@<TRIPOS>MOLECULE
tmp/4j2tA00.pdb
 198 188 0 0 0
SMALL
GASTEIGER

@<TRIPOS>ATOM
      1  N        -14.2300    1.3350  -52.4310 N.3   252  LYS252     -0.1231
      2  CA       -13.7700    0.5290  -53.5530 C.3   252  LYS252      0.1693
      3  C        -14.1140    1.1730  -54.8940 C.2   252  LYS252      0.2591
      4  O        -13.3680    1.0340  -55.8630 O.2   252  LYS252     -0.2718
      5  CB       -14.3530   -0.8900  -53.4580 C.3   252  LYS252      0.0285
      6  CG       -13.5730   -1.8210  -52.5050 C.3   252  LYS252      0.0035
      7  CD       -14.3100   -3.1410  -52.1860 C.3   252  LYS252      0.0206
      8  CE       -14.8390   -3.1590  -50.7400 C.3   252  LYS252      0.1093
      9  NZ       -15.8830   -4.2020  -50.4710 N.3   252  LYS252     -0.1314
     10  N        -15.2310    1.8900  -54.9470 N.am  253  LEU253     -0.1980
     11  CA       -15.6280    2.5460  -56.1830 C.3   253  LEU253      0.1596
     12  C        -14.7240    3.7360  -56.5080 C.2   253  LEU253      0.2287
     13  O        -14.5300    4.0830  -57.6770 O.2   253  LEU253     -0.2864
     14  CB       -17.0930    2.9920  -56.1120 C.3   253  LEU253      0.0297
     15  CG       -17.6400    3.7080  -57.3510 C.3   253  LEU253      0.0022
     16  CD1      -19.1110    3.4770  -57.4310 C.3   253  LEU253      0.0001
     17  CD2      -17.3320    5.1830  -57.2950 C.3   253  LEU253      0.0001
     18  N        -11.6250    3.7750  -55.4440 N.3   255  GLU255     -0.1231
     19  CA       -10.3880    3.0430  -55.6560 C.3   255  GLU255      0.1699
     20  C        -10.3250    2.6130  -57.1250 C.2   255  GLU255      0.2592
     21  O         -9.3190    2.8280  -57.8160 O.2   255  GLU255     -0.2718
     22  CB       -10.3930    1.8250  -54.7270 C.3   255  GLU255      0.0402
     23  CG        -9.3000    0.8010  -54.9490 C.3   255  GLU255      0.1161
     24  CD        -9.6630   -0.5600  -54.3510 C.2   255  GLU255      0.3649
     25  OE1      -10.5590   -1.2470  -54.9050 O.co2 255  GLU255     -0.2457
     26  OE2       -9.0640   -0.9410  -53.3220 O.co2 255  GLU255     -0.2457
     27  N        -11.4180    2.0150  -57.5930 N.am  256  PHE256     -0.1976
     28  CA       -11.5310    1.5410  -58.9700 C.3   256  PHE256      0.1639
     29  C        -11.5040    2.6910  -59.9740 C.2   256  PHE256      0.2290
     30  O        -11.0780    2.5260  -61.1130 O.2   256  PHE256     -0.2864
     31  CB       -12.8340    0.7520  -59.1470 C.3   256  PHE256      0.0560
     32  CG       -13.1010    0.3380  -60.5660 C.ar  256  PHE256     -0.0200
     33  CD1      -12.6190   -0.8680  -61.0520 C.ar  256  PHE256     -0.0042
     34  CD2      -13.7900    1.1800  -61.4320 C.ar  256  PHE256     -0.0042
     35  CE1      -12.8140   -1.2310  -62.3790 C.ar  256  PHE256     -0.0003
     36  CE2      -13.9900    0.8270  -62.7580 C.ar  256  PHE256     -0.0003
     37  CZ       -13.4990   -0.3820  -63.2320 C.ar  256  PHE256     -0.0000
     38  N         -7.7650    3.8840  -60.4450 N.3   259  GLN259     -0.1231
     39  CA        -7.0980    2.8350  -61.2100 C.3   259  GLN259      0.1698
     40  C         -7.4940    2.7780  -62.6840 C.2   259  GLN259      0.2592
     41  O         -6.6310    2.8430  -63.5570 O.2   259  GLN259     -0.2718
     42  CB        -7.3470    1.4680  -60.5680 C.3   259  GLN259      0.0381
     43  CG        -6.4720    1.2000  -59.3740 C.3   259  GLN259      0.0905
     44  CD        -5.0470    1.6420  -59.6240 C.2   259  GLN259      0.2608
     45  OE1       -4.5510    1.5450  -60.7530 O.2   259  GLN259     -0.2717
     46  NE2       -4.3770    2.1290  -58.5780 N.am  259  GLN259     -0.0878
     47  N         -8.7860    2.6430  -62.9640 N.am  260  LEU260     -0.1980
     48  CA        -9.2370    2.5790  -64.3410 C.3   260  LEU260      0.1596
     49  C         -8.5530    3.6920  -65.1040 C.2   260  LEU260      0.2287
     50  O         -7.9810    3.4680  -66.1700 O.2   260  LEU260     -0.2864
     51  CB       -10.7450    2.7520  -64.4160 C.3   260  LEU260      0.0297
     52  CG       -11.3280    2.6300  -65.8270 C.3   260  LEU260      0.0022
     53  CD1      -11.1310    1.2130  -66.3590 C.3   260  LEU260      0.0001
     54  CD2      -12.8100    2.9830  -65.7890 C.3   260  LEU260      0.0001
     55  N         -4.8480    2.7280  -66.0700 N.3   263  VAL263     -0.1245
     56  CA        -4.8690    1.7380  -67.1400 C.3   263  VAL263      0.1561
     57  C         -5.2120    2.3430  -68.5030 C.2   263  VAL263      0.2260
     58  O         -4.4280    2.2610  -69.4450 O.2   263  VAL263     -0.2867
     59  CB        -5.8900    0.6150  -66.8160 C.3   263  VAL263      0.0252
     60  CG1       -6.2120   -0.1900  -68.0740 C.3   263  VAL263      0.0019
     61  CG2       -5.3380   -0.2880  -65.7280 C.3   263  VAL263      0.0019
     62  N         -2.9510    2.2140  -71.7570 N.3   267  ILE267     -0.1245
     63  CA        -3.4260    1.6010  -72.9990 C.3   267  ILE267      0.1561
     64  C         -3.1400    2.5560  -74.1570 C.2   267  ILE267      0.2260
     65  O         -2.5950    2.1400  -75.1890 O.2   267  ILE267     -0.2867
     66  CB        -4.9490    1.2730  -72.9530 C.3   267  ILE267      0.0252
     67  CG1       -5.1740    0.0130  -72.1090 C.3   267  ILE267      0.0019
     68  CG2       -5.4920    1.0600  -74.3600 C.3   267  ILE267      0.0019
     69  CD1       -6.5540   -0.6160  -72.2310 C.3   267  ILE267      0.0001
     70  N        -14.7350    1.0260  -70.7430 N.3   306  ALA306     -0.1245
     71  CA       -14.1170    0.8180  -69.4310 C.3   306  ALA306      0.1562
     72  C        -15.0190    1.1210  -68.2440 C.2   306  ALA306      0.2260
     73  O        -14.8410    0.5350  -67.1770 O.2   306  ALA306     -0.2867
     74  CB       -12.8430    1.6300  -69.3220 C.3   306  ALA306      0.0290
     75  N        -23.9120   -0.1150  -63.5050 N.3   311  LEU311     -0.1245
     76  CA       -23.6370   -0.6780  -62.1830 C.3   311  LEU311      0.1561
     77  C        -24.2940    0.0640  -61.0210 C.2   311  LEU311      0.2260
     78  O        -24.8980   -0.5600  -60.1490 O.2   311  LEU311     -0.2867
     79  CB       -22.1260   -0.7670  -61.9590 C.3   311  LEU311      0.0270
     80  CG       -21.7270   -1.7410  -60.8570 C.3   311  LEU311      0.0019
     81  CD1      -22.6020   -2.9850  -60.9010 C.3   311  LEU311      0.0001
     82  CD2      -20.2800   -2.1130  -61.0410 C.3   311  LEU311      0.0001
     83  N        -21.5090   -7.5680  -59.3430 N.3   761  ILE761     -0.1245
     84  CA       -20.5000   -6.5470  -59.5400 C.3   761  ILE761      0.1561
     85  C        -19.3180   -7.1650  -60.2640 C.2   761  ILE761      0.2260
     86  O        -18.7400   -6.5490  -61.1560 O.2   761  ILE761     -0.2867
     87  CB       -20.0280   -5.9540  -58.2220 C.3   761  ILE761      0.0252
     88  CG1      -21.1900   -5.1850  -57.5820 C.3   761  ILE761      0.0019
     89  CG2      -18.8060   -5.0590  -58.4620 C.3   761  ILE761      0.0019
     90  CD1      -20.9300   -4.7720  -56.1440 C.3   761  ILE761      0.0001
     91  N        -18.2140   -6.1330  -64.1120 N.3   765  ILE765     -0.1231
     92  CA       -16.8350   -5.6870  -64.2680 C.3   765  ILE765      0.1692
     93  C        -16.0810   -6.4730  -65.3430 C.2   765  ILE765      0.2592
     94  O        -15.4470   -5.8910  -66.2140 O.2   765  ILE765     -0.2718
     95  CB       -16.0440   -5.7900  -62.9490 C.3   765  ILE765      0.0266
     96  CG1      -16.5490   -4.7380  -61.9590 C.3   765  ILE765      0.0019
     97  CG2      -14.5470   -5.6220  -63.2150 C.3   765  ILE765      0.0020
     98  CD1      -16.4050   -3.3040  -62.4290 C.3   765  ILE765      0.0001
     99  N        -16.1490   -7.8000  -65.2870 N.am  766  SER766     -0.1952
    100  CA       -15.4370   -8.6260  -66.2640 C.3   766  SER766      0.1924
    101  C        -15.8290   -8.2600  -67.6980 C.2   766  SER766      0.2314
    102  O        -14.9630   -8.1570  -68.5770 O.2   766  SER766     -0.2863
    103  CB       -15.7140  -10.1130  -66.0190 C.3   766  SER766      0.2116
    104  OG       -17.0700  -10.4310  -66.2850 O.3   766  SER766     -0.2180
    105  N        -16.8140   -5.4610  -68.7710 N.3   768  ASN768     -0.1225
    106  CA       -16.1500   -4.2260  -69.1330 C.3   768  ASN768      0.1785
    107  C        -14.6860   -4.5310  -69.4890 C.2   768  ASN768      0.2597
    108  O        -14.1220   -3.9200  -70.3990 O.2   768  ASN768     -0.2718
    109  CB       -16.2530   -3.1930  -67.9970 C.3   768  ASN768      0.1169
    110  CG       -17.5700   -2.4150  -68.0180 C.2   768  ASN768      0.2627
    111  OD1      -18.4930   -2.6810  -67.2380 O.2   768  ASN768     -0.2716
    112  ND2      -17.6600   -1.4530  -68.9310 N.am  768  ASN768     -0.0877
    113  N        -14.0780   -5.4870  -68.7940 N.am  769  VAL769     -0.1980
    114  CA       -12.6950   -5.8300  -69.0870 C.3   769  VAL769      0.1595
    115  C        -12.5920   -6.3510  -70.5160 C.2   769  VAL769      0.2287
    116  O        -11.7860   -5.8560  -71.3150 O.2   769  VAL769     -0.2864
    117  CB       -12.1520   -6.9080  -68.1300 C.3   769  VAL769      0.0276
    118  CG1      -10.7330   -7.2960  -68.5370 C.3   769  VAL769      0.0022
    119  CG2      -12.1600   -6.3880  -66.7080 C.3   769  VAL769      0.0022
    120  N        -12.9780   -3.7540  -73.2500 N.3   772  VAL772     -0.1231
    121  CA       -11.7290   -3.0150  -73.4410 C.3   772  VAL772      0.1692
    122  C        -10.7430   -3.8020  -74.2960 C.2   772  VAL772      0.2591
    123  O        -10.1550   -3.2580  -75.2290 O.2   772  VAL772     -0.2718
    124  CB       -11.0660   -2.6530  -72.0830 C.3   772  VAL772      0.0266
    125  CG1       -9.6160   -2.2190  -72.2920 C.3   772  VAL772      0.0020
    126  CG2      -11.8560   -1.5320  -71.4200 C.3   772  VAL772      0.0020
    127  N        -10.5590   -5.0800  -73.9800 N.am  773  VAL773     -0.1980
    128  CA        -9.6540   -5.9190  -74.7570 C.3   773  VAL773      0.1595
    129  C         -9.9680   -5.7570  -76.2480 C.2   773  VAL773      0.2287
    130  O         -9.0780   -5.5050  -77.0670 O.2   773  VAL773     -0.2864
    131  CB        -9.8220   -7.4070  -74.3850 C.3   773  VAL773      0.0276
    132  CG1       -8.8920   -8.2590  -75.2320 C.3   773  VAL773      0.0022
    133  CG2       -9.5450   -7.6140  -72.9130 C.3   773  VAL773      0.0022
    134  N         -8.8920   -2.5700  -77.5890 N.3   776  PHE776     -0.1241
    135  CA        -7.4370   -2.5500  -77.6310 C.3   776  PHE776      0.1605
    136  C         -6.8940   -3.2740  -78.8340 C.2   776  PHE776      0.2264
    137  O         -5.9110   -2.8330  -79.4200 O.2   776  PHE776     -0.2867
    138  CB        -6.8190   -3.1830  -76.3890 C.3   776  PHE776      0.0534
    139  CG        -5.3190   -3.3010  -76.4640 C.ar  776  PHE776     -0.0203
    140  CD1       -4.5210   -2.1560  -76.5270 C.ar  776  PHE776     -0.0042
    141  CD2       -4.7030   -4.5490  -76.4920 C.ar  776  PHE776     -0.0042
    142  CE1       -3.1200   -2.2510  -76.6150 C.ar  776  PHE776     -0.0003
    143  CE2       -3.3070   -4.6590  -76.5790 C.ar  776  PHE776     -0.0003
    144  CZ        -2.5150   -3.5040  -76.6390 C.ar  776  PHE776     -0.0000
    145  N        -10.7790   -7.0120  -51.0130 N.3   827  PRO827     -0.2102
    146  CA       -10.9680   -6.5670  -52.3990 C.3   827  PRO827      0.1504
    147  C        -11.9670   -7.5030  -53.0840 C.2   827  PRO827      0.2576
    148  O        -12.1040   -8.6550  -52.6750 O.2   827  PRO827     -0.2718
    149  CB        -9.5610   -6.6480  -52.9860 C.3   827  PRO827      0.0282
    150  CG        -8.9440   -7.7580  -52.2240 C.3   827  PRO827      0.0208
    151  CD        -9.4020   -7.5010  -50.8100 C.3   827  PRO827      0.0893
    152  N        -12.6660   -7.0070  -54.1020 N.am  828  LEU828     -0.1966
    153  CA       -13.6670   -7.8020  -54.8180 C.3   828  LEU828      0.1728
    154  C        -13.0940   -8.7420  -55.8690 C.2   828  LEU828      0.2616
    155  O        -13.6980   -9.7680  -56.1860 O.2   828  LEU828     -0.2715
    156  CB       -14.7040   -6.8940  -55.4830 C.3   828  LEU828      0.0311
    157  CG       -16.0970   -6.8560  -54.8450 C.3   828  LEU828      0.0022
    158  CD1      -16.9960   -5.9710  -55.6990 C.3   828  LEU828      0.0001
    159  CD2      -16.6710   -8.2670  -54.7300 C.3   828  LEU828      0.0001
    160  N        -11.9410   -8.3870  -56.4210 N.am  829  ILE829     -0.1977
    161  CA       -11.3090   -9.2280  -57.4180 C.3   829  ILE829      0.1596
    162  C         -9.7980   -9.2060  -57.2420 C.2   829  ILE829      0.2287
    163  O         -9.1520   -8.1630  -57.3930 O.2   829  ILE829     -0.2864
    164  CB       -11.6640   -8.7720  -58.8360 C.3   829  ILE829      0.0276
    165  CG1      -13.1640   -8.9230  -59.0600 C.3   829  ILE829      0.0022
    166  CG2      -10.9130   -9.6170  -59.8540 C.3   829  ILE829      0.0022
    167  CD1      -13.6400   -8.3300  -60.3750 C.3   829  ILE829      0.0001
    168  N         -8.7660  -12.6960  -60.1600 N.3   834  PHE834     -0.1241
    169  CA        -8.2350  -11.6710  -61.0500 C.3   834  PHE834      0.1605
    170  C         -7.8390  -12.2980  -62.3890 C.2   834  PHE834      0.2264
    171  O         -8.1230  -11.7690  -63.4650 O.2   834  PHE834     -0.2867
    172  CB        -7.0030  -11.0330  -60.4060 C.3   834  PHE834      0.0534
    173  CG        -6.4710   -9.8490  -61.1540 C.ar  834  PHE834     -0.0203
    174  CD1       -6.0320   -9.9770  -62.4700 C.ar  834  PHE834     -0.0042
    175  CD2       -6.4160   -8.6000  -60.5440 C.ar  834  PHE834     -0.0042
    176  CE1       -5.5560   -8.8830  -63.1620 C.ar  834  PHE834     -0.0003
    177  CE2       -5.9390   -7.4990  -61.2330 C.ar  834  PHE834     -0.0003
    178  CZ        -5.5090   -7.6390  -62.5440 C.ar  834  PHE834     -0.0000
    179  N        -10.8010  -13.5140  -64.8700 N.3   837  TYR837     -0.1227
    180  CA       -11.3660  -12.3930  -65.6180 C.3   837  TYR837      0.1736
    181  C        -10.3090  -11.8370  -66.5440 C.2   837  TYR837      0.2595
    182  O        -10.6090  -11.2920  -67.5990 O.2   837  TYR837     -0.2718
    183  CB       -11.8630  -11.3240  -64.6600 C.3   837  TYR837      0.0548
    184  CG       -13.0000  -11.8270  -63.8330 C.ar  837  TYR837     -0.0200
    185  CD1      -14.0820  -12.4610  -64.4340 C.ar  837  TYR837     -0.0009
    186  CD2      -12.9930  -11.7090  -62.4540 C.ar  837  TYR837     -0.0009
    187  CE1      -15.1290  -12.9740  -63.6770 C.ar  837  TYR837      0.0417
    188  CE2      -14.0390  -12.2170  -61.6860 C.ar  837  TYR837      0.0417
    189  CZ       -15.0970  -12.8490  -62.3090 C.ar  837  TYR837      0.1957
    190  OH       -16.1190  -13.3560  -61.5620 O.3   837  TYR837     -0.2866
    191  N         -9.0650  -11.9800  -66.1220 N.am  838  MET838     -0.1979
    192  CA        -7.9330  -11.5600  -66.9100 C.3   838  MET838      0.1605
    193  C         -8.0170  -12.4300  -68.1740 C.2   838  MET838      0.2287
    194  O         -7.7400  -11.9690  -69.2770 O.2   838  MET838     -0.2864
    195  CB        -6.6480  -11.8670  -66.1420 C.3   838  MET838      0.0413
    196  CG        -5.3810  -11.3760  -66.7930 C.3   838  MET838      0.0598
    197  SD        -5.1850   -9.5860  -66.6530 S.3   838  MET838     -0.1393
    198  CE        -3.3980   -9.3980  -66.9850 C.3   838  MET838      0.0692
@<TRIPOS>BOND
     1   137   136    2
     2   136   135    1
     3   135   134    1
     4   135   138    1
     5   130   129    2
     6   144   142   ar
     7   144   143   ar
     8   142   140   ar
     9   143   141   ar
    10   140   139   ar
    11   141   139   ar
    12   139   138    1
    13   129   128    1
    14   132   131    1
    15   123   122    2
    16    65    64    2
    17   128   131    1
    18   128   127    1
    19   131   133    1
    20    68    66    1
    21   122   127   am
    22   122   121    1
    23    64    63    1
    24   121   120    1
    25   121   124    1
    26    63    66    1
    27    63    62    1
    28    66    67    1
    29   125   124    1
    30    69    67    1
    31   124   126    1
    32   116   115    2
    33    70    71    1
    34   115   114    1
    35   108   107    2
    36   107   106    1
    37   107   113   am
    38    58    57    2
    39    71    74    1
    40    71    72    1
    41   194   193    2
    42   106   105    1
    43   106   109    1
    44   114   113    1
    45   114   117    1
    46   112   110   am
    47   102   101    2
    48   118   117    1
    49    57    56    1
    50    72    73    2
    51   193   192    1
    52   117   119    1
    53    60    59    1
    54   110   109    1
    55   110   111    2
    56   101   100    1
    57   182   181    2
    58    56    59    1
    59    56    55    1
    60   198   197    1
    61   192   195    1
    62   192   191    1
    63    59    61    1
    64   196   197    1
    65   196   195    1
    66   181   191   am
    67   181   180    1
    68    53    52    1
    69   104   103    1
    70   100   103    1
    71   100    99    1
    72    94    93    2
    73    50    49    2
    74    52    54    1
    75    52    51    1
    76   180   179    1
    77   180   183    1
    78    93    99   am
    79    93    92    1
    80    49    48    1
    81   183   184    1
    82   185   184   ar
    83   185   187   ar
    84    51    48    1
    85    48    47    1
    86    92    91    1
    87    92    95    1
    88   184   186   ar
    89   187   189   ar
    90    41    40    2
    91    75    76    1
    92   171   170    2
    93    37    36   ar
    94    37    35   ar
    95    97    95    1
    96   176   178   ar
    97   176   174   ar
    98    47    40   am
    99    95    96    1
   100    36    34   ar
   101    40    39    1
   102   178   177   ar
   103   174   173   ar
   104   186   188   ar
   105    98    96    1
   106   170   169    1
   107    35    33   ar
   108   189   188   ar
   109   189   190    1
   110    76    79    1
   111    76    77    1
   112    79    80    1
   113    34    32   ar
   114   177   175   ar
   115    39    42    1
   116    39    38    1
   117    86    85    2
   118   173   175   ar
   119   173   172    1
   120    30    29    2
   121    33    32   ar
   122   169   172    1
   123   169   168    1
   124    82    80    1
   125    77    78    2
   126    81    80    1
   127    45    44    2
   128    42    43    1
   129    32    31    1
   130   167   165    1
   131    85    84    1
   132    29    28    1
   133   166   164    1
   134    44    43    1
   135    44    46   am
   136    84    83    1
   137    84    87    1
   138    31    28    1
   139   165   164    1
   140    28    27    1
   141   164   161    1
   142    89    87    1
   143    87    88    1
   144    21    20    2
   145    13    12    2
   146    27    20   am
   147    88    90    1
   148    16    15    1
   149   161   162    1
   150   161   160    1
   151   163   162    2
   152    15    17    1
   153    15    14    1
   154    20    19    1
   155    12    11    1
   156   160   154   am
   157   155   154    2
   158    11    14    1
   159    11    10    1
   160   154   153    1
   161     4     3    2
   162   158   157    1
   163    19    18    1
   164    19    22    1
   165   156   157    1
   166   156   153    1
   167    23    22    1
   168    23    24    1
   169    10     3   am
   170    25    24   ar
   171     3     2    1
   172   157   159    1
   173   153   152    1
   174    24    26   ar
   175   152   147   am
   176     2     5    1
   177     2     1    1
   178     5     6    1
   179   147   148    2
   180   147   146    1
   181   149   146    1
   182   149   150    1
   183     6     7    1
   184   146   145    1
   185   150   151    1
   186     7     8    1
   187   145   151    1
   188     8     9    1
