@<TRIPOS>MOLECULE
tmp/4j2vA04.pdb
 105 96 0 0 0
SMALL
GASTEIGER

@<TRIPOS>ATOM
      1  N        -38.5150   -6.9750   29.2450 N.3   391  LEU391     -0.1245
      2  CA       -38.0960   -6.6320   30.5760 C.3   391  LEU391      0.1561
      3  C        -39.1470   -5.7450   31.1700 C.2   391  LEU391      0.2260
      4  O        -39.6450   -5.9730   32.2610 O.2   391  LEU391     -0.2867
      5  CB       -36.7950   -5.8830   30.5060 C.3   391  LEU391      0.0270
      6  CG       -36.3690   -5.4480   31.8880 C.3   391  LEU391      0.0019
      7  CD1      -36.0350   -6.6740   32.7780 C.3   391  LEU391      0.0001
      8  CD2      -35.2060   -4.5450   31.7190 C.3   391  LEU391      0.0001
      9  N        -41.0890   -6.4350   34.3780 N.3   395  VAL395     -0.1245
     10  CA       -40.8300   -5.8250   35.6760 C.3   395  VAL395      0.1561
     11  C        -41.5960   -4.5430   35.9030 C.2   395  VAL395      0.2260
     12  O        -41.5990   -4.0110   36.9940 O.2   395  VAL395     -0.2867
     13  CB       -39.3570   -5.5740   35.8740 C.3   395  VAL395      0.0252
     14  CG1      -38.6150   -6.8990   35.8250 C.3   395  VAL395      0.0019
     15  CG2      -38.8450   -4.5680   34.8150 C.3   395  VAL395      0.0019
     16  N        -39.2240   -0.6660   37.5730 N.3   399  ASP399     -0.1239
     17  CA       -38.0530   -1.4970   37.5500 C.3   399  ASP399      0.1674
     18  C        -37.3580   -1.3980   36.2300 C.2   399  ASP399      0.2266
     19  O        -36.1870   -1.5960   36.1690 O.2   399  ASP399     -0.2867
     20  CB       -38.4360   -2.9160   37.8440 C.3   399  ASP399      0.1410
     21  CG       -38.6420   -3.1230   39.2980 C.2   399  ASP399      0.3668
     22  OD1      -37.6520   -2.9750   40.0380 O.co2 399  ASP399     -0.2456
     23  OD2      -39.7980   -3.3450   39.6990 O.co2 399  ASP399     -0.2456
     24  N        -35.4390    1.5980   36.5860 N.3   402  ASN402     -0.1225
     25  CA       -34.3110    1.2130   37.3850 C.3   402  ASN402      0.1785
     26  C        -33.2870    0.5720   36.5500 C.2   402  ASN402      0.2597
     27  O        -32.1480    0.9330   36.6060 O.2   402  ASN402     -0.2718
     28  CB       -34.7550    0.2190   38.4170 C.3   402  ASN402      0.1169
     29  CG       -35.6050    0.8600   39.4290 C.2   402  ASN402      0.2627
     30  OD1      -35.7460    2.0790   39.4010 O.2   402  ASN402     -0.2716
     31  ND2      -36.2130    0.0790   40.2910 N.am  402  ASN402     -0.0877
     32  N        -33.7180   -0.3990   35.7770 N.am  403  ALA403     -0.1979
     33  CA       -32.8970   -1.0180   34.7800 C.3   403  ALA403      0.1597
     34  C        -32.1470    0.0030   33.9720 C.2   403  ALA403      0.2287
     35  O        -30.9570   -0.0790   33.8760 O.2   403  ALA403     -0.2864
     36  CB       -33.7110   -1.9360   33.8680 C.3   403  ALA403      0.0319
     37  N        -29.7000    2.1160   35.9450 N.3   406  VAL406     -0.1231
     38  CA       -28.5140    1.3440   36.1520 C.3   406  VAL406      0.1692
     39  C        -27.7100    1.3070   34.9090 C.2   406  VAL406      0.2591
     40  O        -26.5460    1.5910   34.9490 O.2   406  VAL406     -0.2718
     41  CB       -28.8350   -0.0820   36.5610 C.3   406  VAL406      0.0266
     42  CG1      -27.5650   -0.9190   36.5530 C.3   406  VAL406      0.0020
     43  CG2      -29.4670   -0.0640   37.9410 C.3   406  VAL406      0.0020
     44  N        -28.3260    0.9810   33.7940 N.am  407  ARG407     -0.1980
     45  CA       -27.5960    0.8360   32.5560 C.3   407  ARG407      0.1597
     46  C        -26.9080    2.1240   32.1820 C.2   407  ARG407      0.2287
     47  O        -25.8140    2.1120   31.6890 O.2   407  ARG407     -0.2864
     48  CB       -28.5350    0.5160   31.4300 C.3   407  ARG407      0.0334
     49  CG       -28.9830   -0.8630   31.4590 C.3   407  ARG407      0.0492
     50  CD       -29.5340   -1.1910   30.1270 C.3   407  ARG407      0.2205
     51  NE       -30.4710   -2.2780   30.2560 N.pl3 407  ARG407     -0.0865
     52  CZ       -31.5690   -2.3310   29.5460 C.cat 407  ARG407      0.5346
     53  NH1      -31.8020   -1.3520   28.6830 N.pl3 407  ARG407      0.1354
     54  NH2      -32.4080   -3.3420   29.6960 N.pl3 407  ARG407      0.1354
     55  N        -30.4570    4.5990   43.5670 N.3   526  LEU526     -0.1245
     56  CA       -30.0870    3.4990   42.7100 C.3   526  LEU526      0.1561
     57  C        -28.9180    3.9380   41.8460 C.2   526  LEU526      0.2260
     58  O        -27.9030    3.2520   41.7630 O.2   526  LEU526     -0.2867
     59  CB       -31.2630    3.1310   41.8360 C.3   526  LEU526      0.0270
     60  CG       -30.8730    2.1260   40.7640 C.3   526  LEU526      0.0019
     61  CD1      -30.2940    0.8580   41.4090 C.3   526  LEU526      0.0001
     62  CD2      -32.0740    1.8140   39.9280 C.3   526  LEU526      0.0001
     63  N        -26.7340   -5.3690   37.5710 N.3   538  LYS538     -0.1231
     64  CA       -28.0120   -4.7520   37.6090 C.3   538  LYS538      0.1693
     65  C        -28.9660   -5.5130   38.5170 C.2   538  LYS538      0.2591
     66  O        -29.9000   -4.9640   39.0800 O.2   538  LYS538     -0.2718
     67  CB       -28.4630   -4.7850   36.1910 C.3   538  LYS538      0.0285
     68  CG       -28.6530   -6.1380   35.4890 C.3   538  LYS538      0.0035
     69  CD       -28.6840   -5.9640   33.9320 C.3   538  LYS538      0.0206
     70  CE       -29.3620   -7.1180   33.1830 C.3   538  LYS538      0.1093
     71  NZ       -28.3710   -8.0270   32.5060 N.3   538  LYS538     -0.1314
     72  N        -28.6850   -6.7880   38.6800 N.am  539  GLU539     -0.1979
     73  CA       -29.4900   -7.6570   39.5000 C.3   539  GLU539      0.1602
     74  C        -29.1350   -7.4480   40.9740 C.2   539  GLU539      0.2287
     75  O        -29.9990   -7.4560   41.8460 O.2   539  GLU539     -0.2864
     76  CB       -29.2420   -9.0890   39.0490 C.3   539  GLU539      0.0415
     77  CG       -29.6430   -9.3220   37.5730 C.3   539  GLU539      0.1163
     78  CD       -28.5100   -9.1820   36.5470 C.2   539  GLU539      0.3649
     79  OE1      -27.4080   -8.6970   36.8760 O.co2 539  GLU539     -0.2457
     80  OE2      -28.7400   -9.5540   35.3740 O.co2 539  GLU539     -0.2457
     81  N        -28.0540   -4.7080   42.0280 N.3   541  LEU541     -0.1231
     82  CA       -28.6010   -3.3920   42.2650 C.3   541  LEU541      0.1693
     83  C        -30.0580   -3.5100   42.5120 C.2   541  LEU541      0.2591
     84  O        -30.6050   -2.7960   43.3150 O.2   541  LEU541     -0.2718
     85  CB       -28.3680   -2.4940   41.0700 C.3   541  LEU541      0.0284
     86  CG       -26.9060   -2.1260   41.1540 C.3   541  LEU541      0.0019
     87  CD1      -26.4140   -1.7270   39.7960 C.3   541  LEU541      0.0001
     88  CD2      -26.7870   -1.0090   42.1370 C.3   541  LEU541      0.0001
     89  N        -30.6830   -4.4320   41.8130 N.am  542  LYS542     -0.1980
     90  CA       -32.1000   -4.5510   41.8950 C.3   542  LYS542      0.1596
     91  C        -32.4370   -5.0720   43.2420 C.2   542  LYS542      0.2287
     92  O        -33.3760   -4.6430   43.8460 O.2   542  LYS542     -0.2864
     93  CB       -32.6100   -5.4510   40.7880 C.3   542  LYS542      0.0298
     94  CG       -34.1030   -5.6900   40.7660 C.3   542  LYS542      0.0038
     95  CD       -34.4040   -6.7110   39.6360 C.3   542  LYS542      0.0206
     96  CE       -35.8720   -7.0570   39.5250 C.3   542  LYS542      0.1093
     97  NZ       -36.6920   -5.8390   39.5000 N.3   542  LYS542     -0.1314
     98  N        -31.8440   -2.3650   45.7900 N.3   545  LEU545     -0.1245
     99  CA       -32.8750   -1.3660   45.6620 C.3   545  LEU545      0.1561
    100  C        -34.1730   -1.9200   46.1880 C.2   545  LEU545      0.2260
    101  O        -34.9300   -1.2240   46.7640 O.2   545  LEU545     -0.2867
    102  CB       -33.0550   -0.9400   44.2120 C.3   545  LEU545      0.0270
    103  CG       -33.9350    0.3120   44.1180 C.3   545  LEU545      0.0019
    104  CD1      -33.2130    1.4780   44.7670 C.3   545  LEU545      0.0001
    105  CD2      -34.3570    0.6510   42.6970 C.3   545  LEU545      0.0001
@<TRIPOS>BOND
     1    53    52    1
     2     1     2    1
     3    52    54    1
     4    52    51    2
     5    50    51    1
     6    50    49    1
     7     5     2    1
     8     5     6    1
     9     2     3    1
    10     3     4    2
    11    48    49    1
    12    48    45    1
    13    47    46    2
    14     8     6    1
    15     6     7    1
    16    46    45    1
    17    71    70    1
    18    45    44    1
    19    70    69    1
    20    44    39   am
    21    36    33    1
    22    35    34    2
    23    69    68    1
    24    34    33    1
    25     9    10    1
    26    33    32    1
    27    15    13    1
    28    39    40    2
    29    39    38    1
    30    80    78   ar
    31    68    67    1
    32    10    13    1
    33    10    11    1
    34    32    26   am
    35    14    13    1
    36    11    12    2
    37    37    38    1
    38    38    41    1
    39    19    18    2
    40    67    64    1
    41    18    17    1
    42    78    79   ar
    43    78    77    1
    44    26    27    2
    45    26    25    1
    46    42    41    1
    47    41    43    1
    48    24    25    1
    49    25    28    1
    50    17    16    1
    51    17    20    1
    52    63    64    1
    53    77    76    1
    54    64    65    1
    55    20    21    1
    56    28    29    1
    57    65    72   am
    58    65    66    2
    59    72    73    1
    60    76    73    1
    61    21    23   ar
    62    21    22   ar
    63    30    29    2
    64    29    31   am
    65    97    96    1
    66    73    74    1
    67    96    95    1
    68    95    94    1
    69    87    86    1
    70    62    60    1
    71    60    61    1
    72    60    59    1
    73    94    93    1
    74    93    90    1
    75    74    75    2
    76    85    86    1
    77    85    82    1
    78    86    88    1
    79    58    57    2
    80    89    90    1
    81    89    83   am
    82    59    56    1
    83    57    56    1
    84    90    91    1
    85    81    82    1
    86    82    83    1
    87    83    84    2
    88   105   103    1
    89    56    55    1
    90    91    92    2
    91   103   102    1
    92   103   104    1
    93   102    99    1
    94    99    98    1
    95    99   100    1
    96   100   101    2
