@<TRIPOS>MOLECULE
tmp/4j2vA10.pdb
 77 69 0 0 0
SMALL
GASTEIGER

@<TRIPOS>ATOM
      1  N        -29.6240   18.9730    7.3760 N.3   206  ARG206     -0.1231
      2  CA       -29.7160   17.8360    6.5100 C.3   206  ARG206      0.1694
      3  C        -30.1530   16.6780    7.3720 C.2   206  ARG206      0.2591
      4  O        -30.9370   15.8720    6.9440 O.2   206  ARG206     -0.2718
      5  CB       -28.3780   17.5290    5.8380 C.3   206  ARG206      0.0321
      6  CG       -27.6960   18.7520    5.1840 C.3   206  ARG206      0.0489
      7  CD       -27.2390   18.5370    3.7260 C.3   206  ARG206      0.2205
      8  NE       -26.8440   17.1550    3.4390 N.pl3 206  ARG206     -0.0865
      9  CZ       -27.1850   16.4890    2.3340 C.cat 206  ARG206      0.5346
     10  NH1      -27.9270   17.0830    1.4020 N.pl3 206  ARG206      0.1354
     11  NH2      -26.7860   15.2290    2.1600 N.pl3 206  ARG206      0.1354
     12  N        -29.6260   16.5950    8.5820 N.am  207  ALA207     -0.1980
     13  CA       -29.9590   15.5090    9.4710 C.3   207  ALA207      0.1597
     14  C        -31.4420   15.5830    9.7830 C.2   207  ALA207      0.2287
     15  O        -32.1290   14.5480    9.8440 O.2   207  ALA207     -0.2864
     16  CB       -29.1380   15.5890   10.7540 C.3   207  ALA207      0.0319
     17  N        -33.4390   14.5130    6.9050 N.3   210  ALA210     -0.1245
     18  CA       -33.3680   13.0930    6.6380 C.3   210  ALA210      0.1562
     19  C        -34.3410   12.4820    7.6090 C.2   210  ALA210      0.2260
     20  O        -35.1660   11.6830    7.2780 O.2   210  ALA210     -0.2867
     21  CB       -31.9400   12.5810    6.9070 C.3   210  ALA210      0.0290
     22  N        -30.8800    9.4460   -2.4080 N.3   324  LEU324     -0.1231
     23  CA       -30.8240    8.8870   -1.0760 C.3   324  LEU324      0.1693
     24  C        -32.0700    9.2840   -0.4040 C.2   324  LEU324      0.2592
     25  O        -32.6140    8.5490    0.3790 O.2   324  LEU324     -0.2718
     26  CB       -29.7120    9.5450   -0.2770 C.3   324  LEU324      0.0284
     27  CG       -28.3070    9.2040   -0.7140 C.3   324  LEU324      0.0019
     28  CD1      -27.3320    9.7910    0.3060 C.3   324  LEU324      0.0001
     29  CD2      -28.2550    7.6970   -0.7750 C.3   324  LEU324      0.0001
     30  N        -32.4780   10.5010   -0.6900 N.am  325  GLY325     -0.1957
     31  CA       -33.6440   11.0870   -0.0850 C.3   325  GLY325      0.1869
     32  C        -34.8120   10.2470   -0.4950 C.2   325  GLY325      0.2309
     33  O        -35.6600    9.9340    0.3090 O.2   325  GLY325     -0.2863
     34  N        -34.7210    6.9410    1.1380 N.3   328  LEU328     -0.1245
     35  CA       -35.0820    7.0940    2.5020 C.3   328  LEU328      0.1561
     36  C        -36.5910    7.1830    2.5310 C.2   328  LEU328      0.2260
     37  O        -37.2270    6.4780    3.2420 O.2   328  LEU328     -0.2867
     38  CB       -34.4290    8.3450    3.0190 C.3   328  LEU328      0.0270
     39  CG       -34.8560    8.6870    4.4190 C.3   328  LEU328      0.0019
     40  CD1      -34.6270    7.4540    5.2890 C.3   328  LEU328      0.0001
     41  CD2      -34.0810    9.8970    4.8980 C.3   328  LEU328      0.0001
     42  N        -32.7820    5.9290    9.2240 N.3   344  LEU344     -0.1245
     43  CA       -31.7030    6.7960    8.8910 C.3   344  LEU344      0.1561
     44  C        -30.4810    5.9840    8.8760 C.2   344  LEU344      0.2260
     45  O        -29.6170    6.2500    8.1270 O.2   344  LEU344     -0.2867
     46  CB       -31.5730    7.8800    9.9410 C.3   344  LEU344      0.0270
     47  CG       -32.7640    8.8500    9.8550 C.3   344  LEU344      0.0019
     48  CD1      -32.5810    9.8790   10.9340 C.3   344  LEU344      0.0001
     49  CD2      -32.8450    9.5100    8.4890 C.3   344  LEU344      0.0001
     50  N        -30.4690    4.2800    5.8420 N.3   347  ALA347     -0.1231
     51  CA       -30.2510    5.1710    4.7220 C.3   347  ALA347      0.1694
     52  C        -28.7700    5.3990    4.6750 C.2   347  ALA347      0.2591
     53  O        -28.2070    5.3980    3.6270 O.2   347  ALA347     -0.2718
     54  CB       -30.9570    6.4710    4.9140 C.3   347  ALA347      0.0304
     55  N        -28.1730    5.5950    5.8270 N.am  348  LYS348     -0.1980
     56  CA       -26.7630    5.8680    5.9390 C.3   348  LYS348      0.1596
     57  C        -26.0410    4.6470    5.4320 C.2   348  LYS348      0.2287
     58  O        -25.0160    4.7500    4.8740 O.2   348  LYS348     -0.2864
     59  CB       -26.3830    6.1740    7.3950 C.3   348  LYS348      0.0298
     60  CG       -26.4160    7.6710    7.7670 C.3   348  LYS348      0.0038
     61  CD       -26.5400    7.9070    9.2930 C.3   348  LYS348      0.0206
     62  CE       -25.9110    9.2330    9.7690 C.3   348  LYS348      0.1093
     63  NZ       -24.4570    9.2130   10.2130 N.3   348  LYS348     -0.1314
     64  N        -26.3260    4.3840    1.8100 N.3   351  GLU351     -0.1245
     65  CA       -25.4520    5.3630    1.2470 C.3   351  GLU351      0.1567
     66  C        -24.0560    4.8290    1.3380 C.2   351  GLU351      0.2260
     67  O        -23.3450    4.8450    0.3910 O.2   351  GLU351     -0.2867
     68  CB       -25.5300    6.6440    2.0160 C.3   351  GLU351      0.0388
     69  CG       -24.5930    7.6680    1.4180 C.3   351  GLU351      0.1160
     70  CD       -24.5570    8.8890    2.2330 C.2   351  GLU351      0.3649
     71  OE1      -25.5480    9.1270    2.9270 O.co2 351  GLU351     -0.2457
     72  OE2      -23.5390    9.6020    2.2050 O.co2 351  GLU351     -0.2457
     73  N        -28.3810    9.4560   13.8900 N.3   479  ALA479     -0.1245
     74  CA       -29.0370    8.2100   13.5560 C.3   479  ALA479      0.1562
     75  C        -28.5320    7.0910   14.4730 C.2   479  ALA479      0.2260
     76  O        -29.2650    6.1620   14.7990 O.2   479  ALA479     -0.2867
     77  CB       -28.7760    7.8700   12.0950 C.3   479  ALA479      0.0290
@<TRIPOS>BOND
     1    22    23    1
     2    23    24    1
     3    23    26    1
     4    29    27    1
     5    27    26    1
     6    27    28    1
     7    30    24   am
     8    30    31    1
     9    32    31    1
    10    32    33    2
    11    24    25    2
    12    67    66    2
    13    34    35    1
    14    65    66    1
    15    65    64    1
    16    65    68    1
    17    10     9    1
    18    69    68    1
    19    69    70    1
    20    11     9    1
    21    72    70   ar
    22    70    71   ar
    23     9     8    2
    24    35    36    1
    25    35    38    1
    26    36    37    2
    27    38    39    1
    28     8     7    1
    29    53    52    2
    30     7     6    1
    31    39    41    1
    32    39    40    1
    33    52    51    1
    34    52    55   am
    35    51    54    1
    36    51    50    1
    37    58    57    2
    38     6     5    1
    39    57    56    1
    40    55    56    1
    41     5     2    1
    42    56    59    1
    43     2     3    1
    44     2     1    1
    45    18    17    1
    46    18    21    1
    47    18    19    1
    48     4     3    2
    49    20    19    2
    50     3    12   am
    51    59    60    1
    52    60    61    1
    53    45    44    2
    54    49    47    1
    55    12    13    1
    56    44    43    1
    57    43    42    1
    58    43    46    1
    59    61    62    1
    60    13    14    1
    61    13    16    1
    62    62    63    1
    63    14    15    2
    64    47    46    1
    65    47    48    1
    66    77    74    1
    67    74    73    1
    68    74    75    1
    69    75    76    2
