@<TRIPOS>MOLECULE
tmp/4j2vA01.pdb
 135 126 0 0 0
SMALL
GASTEIGER

@<TRIPOS>ATOM
      1  N        -41.5290   23.6320   21.0670 N.3   147  TYR147     -0.1241
      2  CA       -42.1760   24.0340   19.8500 C.3   147  TYR147      0.1605
      3  C        -43.2630   25.0890   20.1580 C.2   147  TYR147      0.2264
      4  O        -44.3460   24.7600   20.6390 O.2   147  TYR147     -0.2867
      5  CB       -42.7750   22.7450   19.3150 C.3   147  TYR147      0.0534
      6  CG       -43.0030   22.7200   17.8730 C.ar  147  TYR147     -0.0201
      7  CD1      -42.3840   23.6080   17.0240 C.ar  147  TYR147     -0.0009
      8  CD2      -43.8500   21.7860   17.3450 C.ar  147  TYR147     -0.0009
      9  CE1      -42.6300   23.5570   15.6460 C.ar  147  TYR147      0.0417
     10  CE2      -44.1280   21.7360   16.0230 C.ar  147  TYR147      0.0417
     11  CZ       -43.5160   22.6130   15.1590 C.ar  147  TYR147      0.1957
     12  OH       -43.8160   22.4950   13.8240 O.3   147  TYR147     -0.2866
     13  N        -35.4690   17.9110   17.5980 N.3   196  LYS196     -0.1245
     14  CA       -35.4270   18.5540   16.3210 C.3   196  LYS196      0.1561
     15  C        -34.3990   19.6540   16.4100 C.2   196  LYS196      0.2260
     16  O        -33.5410   19.7710   15.5570 O.2   196  LYS196     -0.2867
     17  CB       -36.8070   19.0980   15.9120 C.3   196  LYS196      0.0271
     18  CG       -37.4280   18.3020   14.7600 C.3   196  LYS196      0.0035
     19  CD       -38.9400   18.1740   14.9350 C.3   196  LYS196      0.0206
     20  CE       -39.5290   16.8510   14.3980 C.3   196  LYS196      0.1093
     21  NZ       -40.4560   16.3560   15.4790 N.3   196  LYS196     -0.1314
     22  N        -41.8310   11.3770    7.8810 N.3   216  LEU216     -0.1245
     23  CA       -42.9780   11.8260    7.1040 C.3   216  LEU216      0.1561
     24  C        -43.2840   10.7660    6.1020 C.2   216  LEU216      0.2260
     25  O        -44.4220   10.5100    5.7280 O.2   216  LEU216     -0.2867
     26  CB       -42.6380   13.1570    6.4020 C.3   216  LEU216      0.0270
     27  CG       -43.2320   14.3520    7.1800 C.3   216  LEU216      0.0019
     28  CD1      -43.0000   14.2140    8.6640 C.3   216  LEU216      0.0001
     29  CD2      -42.7170   15.6960    6.7170 C.3   216  LEU216      0.0001
     30  N        -45.1880    8.5030    7.9390 N.3   219  LYS219     -0.1231
     31  CA       -46.4430    9.0860    8.3390 C.3   219  LYS219      0.1693
     32  C        -47.3030    9.1970    7.1270 C.2   219  LYS219      0.2592
     33  O        -48.5010    8.9620    7.1620 O.2   219  LYS219     -0.2718
     34  CB       -46.2250   10.4700    8.9630 C.3   219  LYS219      0.0285
     35  CG       -45.8420   10.3970   10.4210 C.3   219  LYS219      0.0035
     36  CD       -45.8740   11.7440   11.0230 C.3   219  LYS219      0.0206
     37  CE       -45.7850   11.6740   12.5550 C.3   219  LYS219      0.1093
     38  NZ       -47.1210   11.8680   13.2290 N.3   219  LYS219     -0.1314
     39  N        -46.6680    9.5510    6.0310 N.am  220  PHE220     -0.1976
     40  CA       -47.3990    9.7800    4.8180 C.3   220  PHE220      0.1639
     41  C        -46.8820    8.8660    3.7690 C.2   220  PHE220      0.2290
     42  O        -46.3690    9.3350    2.7550 O.2   220  PHE220     -0.2864
     43  CB       -47.1540   11.1890    4.3650 C.3   220  PHE220      0.0560
     44  CG       -47.4380   12.1900    5.4010 C.ar  220  PHE220     -0.0200
     45  CD1      -48.5160   12.0330    6.2490 C.ar  220  PHE220     -0.0042
     46  CD2      -46.6470   13.3060    5.5200 C.ar  220  PHE220     -0.0042
     47  CE1      -48.7870   12.9660    7.1980 C.ar  220  PHE220     -0.0003
     48  CE2      -46.9290   14.2550    6.4690 C.ar  220  PHE220     -0.0003
     49  CZ       -47.9920   14.0710    7.3120 C.ar  220  PHE220     -0.0000
     50  N        -42.9190   18.8170    2.1170 N.3   231  ILE231     -0.1245
     51  CA       -43.4090   18.9860    3.4720 C.3   231  ILE231      0.1561
     52  C        -42.2590   18.9760    4.4290 C.2   231  ILE231      0.2260
     53  O        -42.2950   19.6430    5.3920 O.2   231  ILE231     -0.2867
     54  CB       -44.3590   17.8890    3.9030 C.3   231  ILE231      0.0252
     55  CG1      -45.5570   17.8370    2.9850 C.3   231  ILE231      0.0019
     56  CG2      -44.8380   18.1310    5.3290 C.3   231  ILE231      0.0019
     57  CD1      -46.1650   16.4430    2.9990 C.3   231  ILE231      0.0001
     58  N        -41.3600   21.8010    6.8170 N.3   235  LEU235     -0.1245
     59  CA       -41.4100   21.4460    8.1940 C.3   235  LEU235      0.1561
     60  C        -40.0630   21.6670    8.7910 C.2   235  LEU235      0.2260
     61  O        -39.9490   22.0840    9.9060 O.2   235  LEU235     -0.2867
     62  CB       -41.8000   19.9960    8.3520 C.3   235  LEU235      0.0270
     63  CG       -41.9760   19.5650    9.7960 C.3   235  LEU235      0.0019
     64  CD1      -42.9920   20.4600   10.5120 C.3   235  LEU235      0.0001
     65  CD2      -42.3890   18.1090    9.8130 C.3   235  LEU235      0.0001
     66  N        -39.3040   23.9490   11.8890 N.3   239  HIS239     -0.1241
     67  CA       -38.5610   23.5180   13.0390 C.3   239  HIS239      0.1621
     68  C        -37.2890   24.2860   13.1690 C.2   239  HIS239      0.2264
     69  O        -36.8850   24.6020   14.2440 O.2   239  HIS239     -0.2867
     70  CB       -38.2810   22.0410   12.9320 C.3   239  HIS239      0.0745
     71  CG       -39.4820   21.2400   13.2570 C.ar  239  HIS239      0.0817
     72  ND1      -40.2140   21.4760   14.3960 N.ar  239  HIS239     -0.2268
     73  CD2      -40.1210   20.2570   12.5890 C.ar  239  HIS239      0.1154
     74  CE1      -41.2360   20.6460   14.4360 C.ar  239  HIS239      0.1986
     75  NE2      -41.2120   19.9050   13.3460 N.ar  239  HIS239     -0.2212
     76  N        -45.5200   27.0830   10.0010 N.3   254  ARG254     -0.1245
     77  CA       -46.1380   25.8740   10.4270 C.3   254  ARG254      0.1563
     78  C        -47.5900   25.9180   10.0210 C.2   254  ARG254      0.2260
     79  O        -48.1340   24.9250    9.5780 O.2   254  ARG254     -0.2867
     80  CB       -46.0130   25.7430   11.9260 C.3   254  ARG254      0.0307
     81  CG       -46.5040   24.4390   12.4570 C.3   254  ARG254      0.0489
     82  CD       -46.1110   24.3210   13.8950 C.3   254  ARG254      0.2205
     83  NE       -46.4600   23.0170   14.4380 N.pl3 254  ARG254     -0.0865
     84  CZ       -47.4770   22.7900   15.2600 C.cat 254  ARG254      0.5346
     85  NH1      -48.2470   23.7890   15.6610 N.pl3 254  ARG254      0.1354
     86  NH2      -47.7140   21.5570   15.6920 N.pl3 254  ARG254      0.1354
     87  N        -47.6930   25.3140    6.5220 N.3   257  LEU257     -0.1231
     88  CA       -47.4460   23.9280    6.2510 C.3   257  LEU257      0.1693
     89  C        -48.6980   23.1170    6.4840 C.2   257  LEU257      0.2591
     90  O        -49.0700   22.3270    5.6650 O.2   257  LEU257     -0.2718
     91  CB       -46.3260   23.4160    7.1320 C.3   257  LEU257      0.0284
     92  CG       -46.0630   21.9580    6.7970 C.3   257  LEU257      0.0019
     93  CD1      -45.7970   21.8330    5.2940 C.3   257  LEU257      0.0001
     94  CD2      -44.9200   21.4400    7.6400 C.3   257  LEU257      0.0001
     95  N        -49.3710   23.3640    7.5920 N.am  258  ALA258     -0.1980
     96  CA       -50.5890   22.6910    7.9340 C.3   258  ALA258      0.1597
     97  C        -51.6230   22.9150    6.8470 C.2   258  ALA258      0.2287
     98  O        -52.2900   21.9800    6.3910 O.2   258  ALA258     -0.2864
     99  CB       -51.0800   23.1770    9.3120 C.3   258  ALA258      0.0319
    100  N        -50.6520   21.0000    3.7560 N.3   261  ILE261     -0.1245
    101  CA       -50.7810   19.5910    3.9760 C.3   261  ILE261      0.1561
    102  C        -52.2430   19.2480    3.8900 C.2   261  ILE261      0.2260
    103  O        -52.6290   18.2830    3.2250 O.2   261  ILE261     -0.2867
    104  CB       -50.2530   19.2400    5.3540 C.3   261  ILE261      0.0252
    105  CG1      -48.7240   19.2710    5.3470 C.3   261  ILE261      0.0019
    106  CG2      -50.8050   17.9140    5.8070 C.3   261  ILE261      0.0019
    107  CD1      -48.0920   19.1190    6.7430 C.3   261  ILE261      0.0001
    108  N        -52.4280   21.7420   13.2480 N.3   284  SER284     -0.1217
    109  CA       -50.9810   21.6080   13.1290 C.3   284  SER284      0.1889
    110  C        -50.4730   20.5070   14.0110 C.2   284  SER284      0.2288
    111  O        -49.6220   19.7290   13.6310 O.2   284  SER284     -0.2866
    112  CB       -50.3390   22.8990   13.5820 C.3   284  SER284      0.2089
    113  OG       -50.1650   23.7520   12.4840 O.3   284  SER284     -0.2183
    114  N        -51.5770   17.1570   12.7670 N.3   287  ILE287     -0.1231
    115  CA       -50.7970   16.6890   11.6440 C.3   287  ILE287      0.1692
    116  C        -49.4680   16.2360   12.2090 C.2   287  ILE287      0.2592
    117  O        -48.9380   15.2090   11.8230 O.2   287  ILE287     -0.2718
    118  CB       -50.5070   17.8150   10.6500 C.3   287  ILE287      0.0266
    119  CG1      -51.7870   18.3450   10.0300 C.3   287  ILE287      0.0019
    120  CG2      -49.5080   17.3520    9.5960 C.3   287  ILE287      0.0020
    121  CD1      -51.5780   19.5860    9.2860 C.3   287  ILE287      0.0001
    122  N        -48.9450   16.9960   13.1630 N.am  288  ALA288     -0.1966
    123  CA       -47.6520   16.6840   13.7380 C.3   288  ALA288      0.1728
    124  C        -47.6870   15.3410   14.4220 C.2   288  ALA288      0.2616
    125  O        -46.6620   14.6540   14.5050 O.2   288  ALA288     -0.2715
    126  CB       -47.2170   17.7610   14.7290 C.3   288  ALA288      0.0334
    127  N        -48.8580   14.9570   14.9070 N.am  289  GLU289     -0.1977
    128  CA       -48.9620   13.7720   15.7450 C.3   289  GLU289      0.1602
    129  C        -49.6900   12.7130   14.9870 C.2   289  GLU289      0.2287
    130  O        -50.0220   11.6620   15.5130 O.2   289  GLU289     -0.2864
    131  CB       -49.6880   14.0770   17.0360 C.3   289  GLU289      0.0415
    132  CG       -48.9280   14.9990   17.9480 C.3   289  GLU289      0.1163
    133  CD       -47.4910   14.5540   18.1500 C.2   289  GLU289      0.3649
    134  OE1      -47.2500   13.3190   18.2390 O.co2 289  GLU289     -0.2457
    135  OE2      -46.5960   15.4400   18.2000 O.co2 289  GLU289     -0.2457
@<TRIPOS>BOND
     1    50    51    1
     2    42    41    2
     3    55    57    1
     4    55    54    1
     5   103   102    2
     6    51    54    1
     7    51    52    1
     8   100   101    1
     9    41    40    1
    10   102   101    1
    11    54    56    1
    12   101   104    1
    13    43    40    1
    14    43    44    1
    15    52    53    2
    16    40    39    1
    17    93    92    1
    18   105   104    1
    19   105   107    1
    20   104   106    1
    21    44    46   ar
    22    44    45   ar
    23    46    48   ar
    24    90    89    2
    25    25    24    2
    26    39    32   am
    27    24    23    1
    28    45    47   ar
    29    88    89    1
    30    88    87    1
    31    88    91    1
    32    98    97    2
    33    26    23    1
    34    26    27    1
    35    48    49   ar
    36    89    95   am
    37    29    27    1
    38    92    91    1
    39    92    94    1
    40    58    59    1
    41    97    96    1
    42    23    22    1
    43    32    33    2
    44    32    31    1
    45    27    28    1
    46    47    49   ar
    47    95    96    1
    48    96    99    1
    49    30    31    1
    50    59    62    1
    51    59    60    1
    52    31    34    1
    53    62    63    1
    54    60    61    2
    55    34    35    1
    56   121   119    1
    57    79    78    2
    58   120   118    1
    59    63    65    1
    60    63    64    1
    61    76    77    1
    62    78    77    1
    63   119   118    1
    64    35    36    1
    65    77    80    1
    66   118   115    1
    67    36    37    1
    68   115   116    1
    69   115   114    1
    70   117   116    2
    71    66    67    1
    72    80    81    1
    73   116   122   am
    74    81    82    1
    75   113   112    1
    76    37    38    1
    77    73    71   ar
    78    73    75   ar
    79    70    67    1
    80    70    71    1
    81    67    68    1
    82   109   108    1
    83   109   112    1
    84   109   110    1
    85   122   123    1
    86    68    69    2
    87    71    72   ar
    88    75    74   ar
    89   111   110    2
    90   123   124    1
    91   123   126    1
    92    12    11    1
    93    82    83    1
    94    72    74   ar
    95    20    19    1
    96    20    21    1
    97   124   125    2
    98   124   127   am
    99    83    84    2
   100    18    19    1
   101    18    17    1
   102   127   128    1
   103   129   130    2
   104   129   128    1
   105    11     9   ar
   106    11    10   ar
   107    84    85    1
   108    84    86    1
   109    16    15    2
   110     9     7   ar
   111   128   131    1
   112    17    14    1
   113    10     8   ar
   114    14    15    1
   115    14    13    1
   116     7     6   ar
   117   131   132    1
   118     8     6   ar
   119     6     5    1
   120   132   133    1
   121   133   135   ar
   122   133   134   ar
   123     5     2    1
   124     2     3    1
   125     2     1    1
   126     3     4    2
