@<TRIPOS>MOLECULE
tmp/4j2vA03.pdb
 114 109 0 0 0
SMALL
GASTEIGER

@<TRIPOS>ATOM
      1  N        -43.9260   21.9960   37.8580 N.3   113  LEU113     -0.1231
      2  CA       -45.2760   22.4210   37.6030 C.3   113  LEU113      0.1693
      3  C        -46.1730   21.4140   38.3030 C.2   113  LEU113      0.2592
      4  O        -46.3280   20.2630   37.8760 O.2   113  LEU113     -0.2718
      5  CB       -45.5520   22.5250   36.1060 C.3   113  LEU113      0.0284
      6  CG       -44.9370   23.7830   35.4950 C.3   113  LEU113      0.0019
      7  CD1      -45.3600   23.9450   34.0410 C.3   113  LEU113      0.0001
      8  CD2      -45.2950   25.0180   36.2970 C.3   113  LEU113      0.0001
      9  N        -46.6960   21.8440   39.4400 N.am  114  LYS114     -0.1966
     10  CA       -47.6550   21.0450   40.1570 C.3   114  LYS114      0.1713
     11  C        -48.9710   21.8170   40.2050 C.2   114  LYS114      0.2458
     12  O        -48.9930   23.0530   40.3470 O.2   114  LYS114     -0.2730
     13  CB       -47.1300   20.6060   41.5430 C.3   114  LYS114      0.0311
     14  CG       -46.8020   21.7120   42.5490 C.3   114  LYS114      0.0038
     15  CD       -46.2360   21.1130   43.8620 C.3   114  LYS114      0.0206
     16  CE       -44.9000   20.3750   43.6290 C.3   114  LYS114      0.1093
     17  NZ       -44.5170   19.3990   44.7150 N.3   114  LYS114     -0.1314
     18  N        -50.0740   21.0900   40.0240 N.am  115  PRO115     -0.2727
     19  CA       -51.3840   21.7170   40.0200 C.3   115  PRO115      0.1402
     20  C        -51.5680   22.3390   41.3690 C.2   115  PRO115      0.2269
     21  O        -51.1500   21.7670   42.3730 O.2   115  PRO115     -0.2865
     22  CB       -52.3340   20.5320   39.8990 C.3   115  PRO115      0.0296
     23  CG       -51.4920   19.4010   39.4200 C.3   115  PRO115      0.0237
     24  CD       -50.1640   19.6260   40.0000 C.3   115  PRO115      0.0939
     25  N        -55.0420   27.7470   41.1290 N.3   120  GLN120     -0.1245
     26  CA       -54.8680   27.8840   39.7000 C.3   120  GLN120      0.1566
     27  C        -56.1660   28.0890   38.9660 C.2   120  GLN120      0.2260
     28  O        -56.1940   28.8700   38.0390 O.2   120  GLN120     -0.2867
     29  CB       -54.1600   26.6940   39.1110 C.3   120  GLN120      0.0367
     30  CG       -52.6960   26.6720   39.3420 C.3   120  GLN120      0.0905
     31  CD       -52.1340   25.4970   38.6450 C.2   120  GLN120      0.2608
     32  OE1      -52.6170   24.3830   38.8300 O.2   120  GLN120     -0.2717
     33  NE2      -51.1750   25.7330   37.7630 N.am  120  GLN120     -0.0878
     34  N        -49.0270   29.7490   31.7990 N.3   135  TYR135     -0.1241
     35  CA       -48.7510   28.4120   31.3820 C.3   135  TYR135      0.1605
     36  C        -47.7180   28.3330   30.2720 C.2   135  TYR135      0.2264
     37  O        -46.8080   27.5070   30.3220 O.2   135  TYR135     -0.2867
     38  CB       -50.0290   27.8070   30.8710 C.3   135  TYR135      0.0534
     39  CG       -49.7830   26.4610   30.2740 C.ar  135  TYR135     -0.0201
     40  CD1      -49.5920   25.3770   31.0790 C.ar  135  TYR135     -0.0009
     41  CD2      -49.7210   26.2980   28.9030 C.ar  135  TYR135     -0.0009
     42  CE1      -49.3740   24.1580   30.5500 C.ar  135  TYR135      0.0417
     43  CE2      -49.4950   25.0970   28.3660 C.ar  135  TYR135      0.0417
     44  CZ       -49.3270   24.0280   29.1830 C.ar  135  TYR135      0.1957
     45  OH       -49.0910   22.8130   28.6230 O.3   135  TYR135     -0.2866
     46  N        -44.4720   29.1360   31.6810 N.3   138  GLU138     -0.1231
     47  CA       -43.9140   28.1260   32.5780 C.3   138  GLU138      0.1699
     48  C        -43.3350   27.0200   31.7770 C.2   138  GLU138      0.2592
     49  O        -42.1950   26.5730   32.0030 O.2   138  GLU138     -0.2718
     50  CB       -45.0000   27.5330   33.4860 C.3   138  GLU138      0.0402
     51  CG       -45.5880   28.4630   34.5070 C.3   138  GLU138      0.1161
     52  CD       -44.6070   28.9240   35.5660 C.2   138  GLU138      0.3649
     53  OE1      -43.3850   28.8280   35.3910 O.co2 138  GLU138     -0.2457
     54  OE2      -45.0760   29.4160   36.6020 O.co2 138  GLU138     -0.2457
     55  N        -44.1300   26.5740   30.8160 N.am  139  VAL139     -0.1980
     56  CA       -43.7320   25.4340   30.0270 C.3   139  VAL139      0.1595
     57  C        -42.5780   25.8480   29.1490 C.2   139  VAL139      0.2287
     58  O        -41.5530   25.1980   29.1280 O.2   139  VAL139     -0.2864
     59  CB       -44.8720   24.9190   29.1850 C.3   139  VAL139      0.0276
     60  CG1      -44.3670   23.8170   28.3510 C.3   139  VAL139      0.0022
     61  CG2      -45.9650   24.4250   30.0690 C.3   139  VAL139      0.0022
     62  N        -54.6920   22.9970   27.9390 N.3   158  TYR158     -0.1241
     63  CA       -54.4660   23.2490   29.3300 C.3   158  TYR158      0.1605
     64  C        -55.6450   24.0600   29.7950 C.2   158  TYR158      0.2264
     65  O        -56.2300   23.7880   30.8440 O.2   158  TYR158     -0.2867
     66  CB       -53.1750   24.0370   29.4260 C.3   158  TYR158      0.0534
     67  CG       -52.8320   24.5630   30.7740 C.ar  158  TYR158     -0.0201
     68  CD1      -52.4060   23.7220   31.7650 C.ar  158  TYR158     -0.0009
     69  CD2      -52.9030   25.9260   31.0500 C.ar  158  TYR158     -0.0009
     70  CE1      -52.0570   24.2020   32.9950 C.ar  158  TYR158      0.0417
     71  CE2      -52.5720   26.4080   32.2870 C.ar  158  TYR158      0.0417
     72  CZ       -52.1450   25.5360   33.2530 C.ar  158  TYR158      0.1957
     73  OH       -51.7960   25.9910   34.4870 O.3   158  TYR158     -0.2866
     74  N        -53.6630   17.5240   33.8470 N.3   179  LEU179     -0.1231
     75  CA       -52.4360   18.2920   33.8420 C.3   179  LEU179      0.1693
     76  C        -51.2590   17.3180   33.7930 C.2   179  LEU179      0.2592
     77  O        -50.3260   17.5340   33.0410 O.2   179  LEU179     -0.2718
     78  CB       -52.3710   19.2200   35.0580 C.3   179  LEU179      0.0284
     79  CG       -53.3980   20.3560   35.0200 C.3   179  LEU179      0.0019
     80  CD1      -53.2010   21.3330   36.1840 C.3   179  LEU179      0.0001
     81  CD2      -53.3460   21.0680   33.6450 C.3   179  LEU179      0.0001
     82  N        -51.3400   16.2330   34.5620 N.am  180  ASP180     -0.1974
     83  CA       -50.3110   15.1980   34.5470 C.3   180  ASP180      0.1709
     84  C        -50.1370   14.6240   33.1330 C.2   180  ASP180      0.2293
     85  O        -49.0090   14.4990   32.6560 O.2   180  ASP180     -0.2864
     86  CB       -50.6330   14.0710   35.5300 C.3   180  ASP180      0.1436
     87  CG       -50.4070   14.4570   36.9920 C.2   180  ASP180      0.3671
     88  OD1      -49.7580   15.4850   37.2570 O.co2 180  ASP180     -0.2456
     89  OD2      -50.8680   13.7080   37.8900 O.co2 180  ASP180     -0.2456
     90  N        -51.0690   16.0520   30.4700 N.3   182  LEU182     -0.1231
     91  CA       -50.6070   17.1770   29.6890 C.3   182  LEU182      0.1693
     92  C        -49.1080   17.4040   29.8620 C.2   182  LEU182      0.2591
     93  O        -48.3990   17.6680   28.8960 O.2   182  LEU182     -0.2718
     94  CB       -51.3720   18.4310   30.0750 C.3   182  LEU182      0.0284
     95  CG       -50.9150   19.6400   29.2780 C.3   182  LEU182      0.0019
     96  CD1      -51.1960   19.4010   27.7750 C.3   182  LEU182      0.0001
     97  CD2      -51.6560   20.8650   29.8140 C.3   182  LEU182      0.0001
     98  N        -48.6340   17.3220   31.0970 N.am  183  LYS183     -0.1980
     99  CA       -47.2020   17.4240   31.3240 C.3   183  LYS183      0.1596
    100  C        -46.5300   16.2970   30.5570 C.2   183  LYS183      0.2287
    101  O        -45.4820   16.5010   29.9720 O.2   183  LYS183     -0.2864
    102  CB       -46.8470   17.3370   32.8210 C.3   183  LYS183      0.0298
    103  CG       -45.3770   17.6520   33.1040 C.3   183  LYS183      0.0038
    104  CD       -45.0060   17.3480   34.5440 C.3   183  LYS183      0.0206
    105  CE       -45.2670   18.5560   35.4550 C.3   183  LYS183      0.1093
    106  NZ       -44.8530   18.3610   36.9050 N.3   183  LYS183     -0.1314
    107  N        -46.4590   17.3410   27.2000 N.3   186  ILE186     -0.1245
    108  CA       -45.5340   18.4490   27.1160 C.3   186  ILE186      0.1561
    109  C        -44.1230   17.9490   27.0940 C.2   186  ILE186      0.2260
    110  O        -43.3330   18.3800   26.2680 O.2   186  ILE186     -0.2867
    111  CB       -45.6510   19.3960   28.3050 C.3   186  ILE186      0.0252
    112  CG1      -46.8860   20.2660   28.1440 C.3   186  ILE186      0.0019
    113  CG2      -44.4280   20.3190   28.3860 C.3   186  ILE186      0.0019
    114  CD1      -47.0970   20.7140   26.7840 C.3   186  ILE186      0.0001
@<TRIPOS>BOND
     1   110   109    2
     2   114   112    1
     3   109   108    1
     4   108   107    1
     5   108   111    1
     6    96    95    1
     7    62    63    1
     8   112   111    1
     9   111   113    1
    10    60    59    1
    11    43    41   ar
    12    43    44   ar
    13    45    44    1
    14    93    92    2
    15    41    39   ar
    16    58    57    2
    17    57    56    1
    18    44    42   ar
    19    59    56    1
    20    59    61    1
    21    95    97    1
    22    95    94    1
    23    63    66    1
    24    63    64    1
    25    66    67    1
    26    91    92    1
    27    91    94    1
    28    91    90    1
    29    64    65    2
    30    92    98   am
    31   101   100    2
    32    56    55    1
    33    36    37    2
    34    36    35    1
    35    39    38    1
    36    39    40   ar
    37    42    40   ar
    38   100    99    1
    39    67    69   ar
    40    67    68   ar
    41    55    48   am
    42    38    35    1
    43    69    71   ar
    44    98    99    1
    45    99   102    1
    46    35    34    1
    47    46    47    1
    48    68    70   ar
    49    48    49    2
    50    48    47    1
    51    71    72   ar
    52    47    50    1
    53    85    84    2
    54   102   103    1
    55    70    72   ar
    56    77    76    2
    57   103   104    1
    58    84    83    1
    59    72    73    1
    60    50    51    1
    61    81    79    1
    62    76    75    1
    63    76    82   am
    64    75    74    1
    65    75    78    1
    66     7     6    1
    67    51    52    1
    68   104   105    1
    69    83    82    1
    70    83    86    1
    71    79    78    1
    72    79    80    1
    73    53    52   ar
    74   105   106    1
    75     6     5    1
    76     6     8    1
    77    86    87    1
    78    52    54   ar
    79     5     2    1
    80    87    88   ar
    81    87    89   ar
    82     2     1    1
    83     2     3    1
    84    33    31   am
    85     4     3    2
    86    28    27    2
    87     3     9   am
    88    31    32    2
    89    31    30    1
    90    27    26    1
    91    29    30    1
    92    29    26    1
    93    23    22    1
    94    23    24    1
    95     9    10    1
    96    26    25    1
    97    22    19    1
    98    24    18    1
    99    19    18    1
   100    19    20    1
   101    18    11   am
   102    10    11    1
   103    10    13    1
   104    11    12    2
   105    20    21    2
   106    13    14    1
   107    14    15    1
   108    16    15    1
   109    16    17    1
