@<TRIPOS>MOLECULE
tmp/4j2vA02.pdb
 148 138 0 0 0
SMALL
GASTEIGER

@<TRIPOS>ATOM
      1  N        -31.9570   -3.1670   16.9260 N.3   381  PRO381     -0.2116
      2  CA       -32.9350   -2.4860   17.7700 C.3   381  PRO381      0.1372
      3  C        -34.1590   -3.3260   17.9820 C.2   381  PRO381      0.2244
      4  O        -34.7640   -3.2100   19.0370 O.2   381  PRO381     -0.2868
      5  CB       -33.2770   -1.2410   16.9660 C.3   381  PRO381      0.0268
      6  CG       -32.9750   -1.5720   15.5910 C.3   381  PRO381      0.0207
      7  CD       -31.7850   -2.4640   15.6540 C.3   381  PRO381      0.0892
      8  N        -33.4700   -5.1540   20.8800 N.3   384  LEU384     -0.1231
      9  CA       -33.4760   -4.3850   22.0860 C.3   384  LEU384      0.1693
     10  C        -34.9030   -4.1030   22.4620 C.2   384  LEU384      0.2591
     11  O        -35.2550   -4.1250   23.6300 O.2   384  LEU384     -0.2718
     12  CB       -32.7170   -3.0910   21.9020 C.3   384  LEU384      0.0284
     13  CG       -31.2010   -3.1880   21.7970 C.3   384  LEU384      0.0019
     14  CD1      -30.6780   -1.7930   21.8100 C.3   384  LEU384      0.0001
     15  CD2      -30.6870   -3.9220   22.9850 C.3   384  LEU384      0.0001
     16  N        -35.7200   -3.8080   21.4640 N.am  385  VAL385     -0.1980
     17  CA       -37.1030   -3.4800   21.7160 C.3   385  VAL385      0.1595
     18  C        -37.7040   -4.6870   22.4050 C.2   385  VAL385      0.2287
     19  O        -38.3810   -4.5710   23.4080 O.2   385  VAL385     -0.2864
     20  CB       -37.8480   -3.2010   20.4260 C.3   385  VAL385      0.0276
     21  CG1      -39.3300   -3.2300   20.6800 C.3   385  VAL385      0.0022
     22  CG2      -37.4240   -1.8510   19.8660 C.3   385  VAL385      0.0022
     23  N        -36.0240   -5.2700   25.8330 N.3   388  ASN388     -0.1225
     24  CA       -36.4130   -4.2930   26.8240 C.3   388  ASN388      0.1785
     25  C        -37.8830   -4.2330   27.1050 C.2   388  ASN388      0.2597
     26  O        -38.2890   -4.0220   28.2530 O.2   388  ASN388     -0.2718
     27  CB       -35.8410   -2.9420   26.4750 C.3   388  ASN388      0.1169
     28  CG       -34.3610   -2.9020   26.7260 C.2   388  ASN388      0.2627
     29  OD1      -33.9280   -3.0450   27.8570 O.2   388  ASN388     -0.2716
     30  ND2      -33.5820   -2.7300   25.6850 N.am  388  ASN388     -0.0877
     31  N        -38.6730   -4.3940   26.0500 N.am  389  CYS389     -0.1970
     32  CA       -40.0930   -4.4960   26.2400 C.3   389  CYS389      0.1712
     33  C        -40.4070   -5.7510   27.0060 C.2   389  CYS389      0.2296
     34  O        -41.3130   -5.7450   27.8020 O.2   389  CYS389     -0.2864
     35  CB       -40.8440   -4.4720   24.9280 C.3   389  CYS389      0.0983
     36  SG       -40.9220   -2.8610   24.3390 S.3   389  CYS389     -0.0798
     37  N        -38.1140   -1.1040   35.1840 N.3   400  PHE400     -0.1241
     38  CA       -37.5580   -0.9060   33.9080 C.3   400  PHE400      0.1605
     39  C        -36.7000    0.3440   33.9660 C.2   400  PHE400      0.2264
     40  O        -35.5930    0.3520   33.5220 O.2   400  PHE400     -0.2867
     41  CB       -38.6610   -0.7100   32.9060 C.3   400  PHE400      0.0534
     42  CG       -38.1720   -0.6940   31.5230 C.ar  400  PHE400     -0.0203
     43  CD1      -37.1920   -1.5660   31.1370 C.ar  400  PHE400     -0.0042
     44  CD2      -38.6570    0.1910   30.6150 C.ar  400  PHE400     -0.0042
     45  CE1      -36.7000   -1.5610   29.8510 C.ar  400  PHE400     -0.0003
     46  CE2      -38.1580    0.1880   29.3190 C.ar  400  PHE400     -0.0003
     47  CZ       -37.1820   -0.7000   28.9450 C.ar  400  PHE400     -0.0000
     48  N        -32.8560    0.9870   33.4540 N.3   404  LEU404     -0.1245
     49  CA       -32.2920    1.9000   32.5110 C.3   404  LEU404      0.1561
     50  C        -31.3510    2.8170   33.2280 C.2   404  LEU404      0.2260
     51  O        -30.3700    3.2400   32.6970 O.2   404  LEU404     -0.2867
     52  CB       -33.4040    2.6680   31.8580 C.3   404  LEU404      0.0270
     53  CG       -33.9630    1.6940   30.8420 C.3   404  LEU404      0.0019
     54  CD1      -35.3000    2.1870   30.3540 C.3   404  LEU404      0.0001
     55  CD2      -32.9300    1.5890   29.6870 C.3   404  LEU404      0.0001
     56  N        -28.3260    0.9810   33.7940 N.3   407  ARG407     -0.1231
     57  CA       -27.5960    0.8360   32.5560 C.3   407  ARG407      0.1694
     58  C        -26.9080    2.1240   32.1820 C.2   407  ARG407      0.2592
     59  O        -25.8140    2.1120   31.6890 O.2   407  ARG407     -0.2718
     60  CB       -28.5350    0.5160   31.4300 C.3   407  ARG407      0.0321
     61  CG       -28.9830   -0.8630   31.4590 C.3   407  ARG407      0.0489
     62  CD       -29.5340   -1.1910   30.1270 C.3   407  ARG407      0.2205
     63  NE       -30.4710   -2.2780   30.2560 N.pl3 407  ARG407     -0.0865
     64  CZ       -31.5690   -2.3310   29.5460 C.cat 407  ARG407      0.5346
     65  NH1      -31.8020   -1.3520   28.6830 N.pl3 407  ARG407      0.1354
     66  NH2      -32.4080   -3.3420   29.6960 N.pl3 407  ARG407      0.1354
     67  N        -27.5970    3.2370   32.3910 N.am  408  TYR408     -0.1976
     68  CA       -27.1300    4.5270   31.9420 C.3   408  TYR408      0.1639
     69  C        -26.1620    5.1320   32.8980 C.2   408  TYR408      0.2290
     70  O        -25.3290    5.9150   32.5130 O.2   408  TYR408     -0.2864
     71  CB       -28.3120    5.4550   31.6510 C.3   408  TYR408      0.0560
     72  CG       -28.7060    5.2160   30.2490 C.ar  408  TYR408     -0.0198
     73  CD1      -29.4220    4.0670   29.8990 C.ar  408  TYR408     -0.0009
     74  CD2      -28.2350    6.0400   29.2400 C.ar  408  TYR408     -0.0009
     75  CE1      -29.6870    3.7930   28.5910 C.ar  408  TYR408      0.0417
     76  CE2      -28.5180    5.7770   27.9280 C.ar  408  TYR408      0.0417
     77  CZ       -29.2400    4.6630   27.6070 C.ar  408  TYR408      0.1957
     78  OH       -29.5170    4.4210   26.2980 O.3   408  TYR408     -0.2866
     79  N        -23.3120    3.5010   31.9170 N.3   411  LYS411     -0.1245
     80  CA       -22.7790    3.9620   30.6870 C.3   411  LYS411      0.1561
     81  C        -22.1860    5.3100   30.9540 C.2   411  LYS411      0.2260
     82  O        -21.2270    5.7130   30.3180 O.2   411  LYS411     -0.2867
     83  CB       -23.9010    4.1510   29.6830 C.3   411  LYS411      0.0271
     84  CG       -24.5140    2.9070   29.2200 C.3   411  LYS411      0.0035
     85  CD       -25.7980    3.2800   28.5560 C.3   411  LYS411      0.0206
     86  CE       -26.5850    2.0560   28.1730 C.3   411  LYS411      0.1093
     87  NZ       -25.8470    1.2000   27.2600 N.3   411  LYS411     -0.1314
     88  N        -36.6260    7.0530   29.6790 N.3   427  LEU427     -0.1245
     89  CA       -36.3130    5.8340   28.9630 C.3   427  LEU427      0.1561
     90  C        -37.2660    4.7170   29.3430 C.2   427  LEU427      0.2260
     91  O        -37.7530    4.0500   28.4900 O.2   427  LEU427     -0.2867
     92  CB       -34.8830    5.4150   29.2570 C.3   427  LEU427      0.0270
     93  CG       -33.7740    6.2410   28.6170 C.3   427  LEU427      0.0019
     94  CD1      -32.4490    5.6160   28.9600 C.3   427  LEU427      0.0001
     95  CD2      -33.9390    6.3200   27.1560 C.3   427  LEU427      0.0001
     96  N        -40.4080    4.9020   27.9870 N.3   430  VAL430     -0.1245
     97  CA       -40.5300    4.2730   26.6760 C.3   430  VAL430      0.1561
     98  C        -41.1480    2.9240   26.8020 C.2   430  VAL430      0.2260
     99  O        -41.8560    2.4880   25.9200 O.2   430  VAL430     -0.2867
    100  CB       -39.2060    4.1160   25.9200 C.3   430  VAL430      0.0252
    101  CG1      -38.8530    2.6240   25.6730 C.3   430  VAL430      0.0019
    102  CG2      -39.3040    4.7800   24.6210 C.3   430  VAL430      0.0019
    103  N        -44.0370   -0.4200   24.7170 N.3   435  CYS435     -0.1235
    104  CA       -44.0170   -1.8570   24.7910 C.3   435  CYS435      0.1677
    105  C        -45.4040   -2.4440   24.6500 C.2   435  CYS435      0.2270
    106  O        -45.5540   -3.5380   24.1410 O.2   435  CYS435     -0.2867
    107  CB       -43.2470   -2.3430   26.0110 C.3   435  CYS435      0.0956
    108  SG       -41.5440   -1.7460   25.8840 S.3   435  CYS435     -0.0801
    109  N        -40.3060    2.9690   20.3650 N.3   446  SER446     -0.1202
    110  CA       -39.3420    2.9450   21.4140 C.3   446  SER446      0.2020
    111  C        -38.0570    3.5660   20.9430 C.2   446  SER446      0.2618
    112  O        -37.4450    4.3590   21.6440 O.2   446  SER446     -0.2717
    113  CB       -39.1870    1.5340   21.9780 C.3   446  SER446      0.2103
    114  OG       -38.4530    0.7350   21.1170 O.3   446  SER446     -0.2182
    115  N        -37.6310    3.2790   19.7360 N.am  447  GLU447     -0.1979
    116  CA       -36.4270    3.9690   19.3640 C.3   447  GLU447      0.1602
    117  C        -36.6120    5.4450   19.1820 C.2   447  GLU447      0.2287
    118  O        -35.7290    6.2110   19.5710 O.2   447  GLU447     -0.2864
    119  CB       -35.7970    3.3810   18.1500 C.3   447  GLU447      0.0415
    120  CG       -34.4870    4.0510   17.8560 C.3   447  GLU447      0.1163
    121  CD       -33.5680    3.1420   17.1450 C.2   447  GLU447      0.3649
    122  OE1      -32.4130    3.0820   17.5620 O.co2 447  GLU447     -0.2457
    123  OE2      -34.0190    2.4750   16.2010 O.co2 447  GLU447     -0.2457
    124  N        -36.6940    6.8280   22.5780 N.3   450  LEU450     -0.1245
    125  CA       -35.4000    6.8190   23.1790 C.3   450  LEU450      0.1561
    126  C        -34.5500    7.8810   22.5620 C.2   450  LEU450      0.2260
    127  O        -33.6700    8.3730   23.2120 O.2   450  LEU450     -0.2867
    128  CB       -34.6940    5.5020   22.9440 C.3   450  LEU450      0.0270
    129  CG       -35.2390    4.2180   23.5590 C.3   450  LEU450      0.0019
    130  CD1      -34.1360    3.2530   23.3360 C.3   450  LEU450      0.0001
    131  CD2      -35.6170    4.2810   25.0270 C.3   450  LEU450      0.0001
    132  N        -28.8280    6.3100   19.4490 N.3   482  ARG482     -0.1245
    133  CA       -29.4300    5.2950   20.2700 C.3   482  ARG482      0.1563
    134  C        -28.5840    4.0370   20.2310 C.2   482  ARG482      0.2260
    135  O        -28.2400    3.5120   21.2670 O.2   482  ARG482     -0.2867
    136  CB       -30.8780    5.0490   19.8770 C.3   482  ARG482      0.0307
    137  CG       -31.6710    4.4070   20.9950 C.3   482  ARG482      0.0489
    138  CD       -31.3660    2.9460   21.0230 C.3   482  ARG482      0.2205
    139  NE       -31.4540    2.3910   19.6990 N.pl3 482  ARG482     -0.0865
    140  CZ       -30.7280    1.3510   19.3100 C.cat 482  ARG482      0.5346
    141  NH1      -29.8940    0.8010   20.1810 N.pl3 482  ARG482      0.1354
    142  NH2      -30.8540    0.8650   18.0840 N.pl3 482  ARG482      0.1354
    143  N        -26.9320    2.5750   23.4430 N.3   486  SER486     -0.1217
    144  CA       -27.2890    1.2120   23.7670 C.3   486  SER486      0.1889
    145  C        -26.0280    0.4340   23.8760 C.2   486  SER486      0.2288
    146  O        -25.8590   -0.3480   24.7910 O.2   486  SER486     -0.2866
    147  CB       -28.1190    0.6150   22.6510 C.3   486  SER486      0.2089
    148  OG       -29.4310    1.1590   22.6740 O.3   486  SER486     -0.2183
@<TRIPOS>BOND
     1     6     7    1
     2     6     5    1
     3     7     1    1
     4   123   121   ar
     5     1     2    1
     6     5     2    1
     7   121   122   ar
     8   121   120    1
     9     2     3    1
    10   120   119    1
    11     3     4    2
    12   142   140    1
    13   119   116    1
    14   117   116    1
    15   117   118    2
    16   140   139    2
    17   140   141    1
    18   116   115    1
    19   132   133    1
    20   139   138    1
    21   115   111   am
    22    22    20    1
    23   136   133    1
    24   136   137    1
    25   134   133    1
    26   134   135    2
    27   109   110    1
    28    20    21    1
    29    20    17    1
    30     8     9    1
    31   111   110    1
    32   111   112    2
    33   137   138    1
    34   114   113    1
    35   110   113    1
    36    16    17    1
    37    16    10   am
    38    17    18    1
    39    13    14    1
    40    13    12    1
    41    13    15    1
    42    12     9    1
    43     9    10    1
    44    18    19    2
    45    10    11    2
    46   126   125    1
    47   126   127    2
    48   124   125    1
    49   147   148    1
    50   147   144    1
    51   128   125    1
    52   128   129    1
    53   130   129    1
    54   143   144    1
    55   129   131    1
    56   144   145    1
    57   145   146    2
    58   106   105    2
    59    36    35    1
    60    36   108    1
    61   102   100    1
    62   105   104    1
    63   103   104    1
    64   104   107    1
    65    35    32    1
    66   101   100    1
    67    30    28   am
    68    23    24    1
    69   108   107    1
    70   100    97    1
    71    99    98    2
    72    31    32    1
    73    31    25   am
    74    32    33    1
    75    78    77    1
    76    27    28    1
    77    27    24    1
    78    97    98    1
    79    97    96    1
    80    28    29    2
    81    24    25    1
    82    33    34    2
    83    25    26    2
    84    95    93    1
    85    87    86    1
    86    77    76   ar
    87    77    75   ar
    88    76    74   ar
    89    86    85    1
    90    91    90    2
    91    85    84    1
    92    75    73   ar
    93    93    94    1
    94    93    92    1
    95    65    64    1
    96    47    46   ar
    97    47    45   ar
    98    89    92    1
    99    89    90    1
   100    89    88    1
   101    84    83    1
   102    74    72   ar
   103    46    44   ar
   104    64    66    1
   105    64    63    2
   106    83    80    1
   107    55    53    1
   108    45    43   ar
   109    73    72   ar
   110    62    63    1
   111    62    61    1
   112    72    71    1
   113    82    81    2
   114    54    53    1
   115    44    42   ar
   116    80    81    1
   117    80    79    1
   118    53    52    1
   119    43    42   ar
   120    60    61    1
   121    60    57    1
   122    42    41    1
   123    71    68    1
   124    59    58    2
   125    52    49    1
   126    68    67    1
   127    68    69    1
   128    58    67   am
   129    58    57    1
   130    49    50    1
   131    49    48    1
   132    70    69    2
   133    57    56    1
   134    51    50    2
   135    41    38    1
   136    40    39    2
   137    38    39    1
   138    38    37    1
