@<TRIPOS>MOLECULE
tmp/4j36B01.pdb
 150 142 0 0 0
SMALL
GASTEIGER

@<TRIPOS>ATOM
      1  N         -7.3430   36.8870   70.4930 N.3    51  SER51      -0.1217
      2  CA        -7.2610   37.3170   69.1040 C.3    51  SER51       0.1889
      3  C         -7.1750   36.0950   68.1980 C.2    51  SER51       0.2288
      4  O         -6.7610   35.0210   68.6360 O.2    51  SER51      -0.2866
      5  CB        -6.0600   38.2460   68.8810 C.3    51  SER51       0.2089
      6  OG        -4.8300   37.5520   68.9870 O.3    51  SER51      -0.2183
      7  N         -5.2500   35.7510   65.3720 N.3    53  ASN53      -0.1225
      8  CA        -3.8510   35.4450   65.1070 C.3    53  ASN53       0.1785
      9  C         -2.8790   36.3240   65.8880 C.2    53  ASN53       0.2597
     10  O         -3.2790   37.2580   66.5840 O.2    53  ASN53      -0.2718
     11  CB        -3.5450   35.4500   63.5980 C.3    53  ASN53       0.1169
     12  CG        -3.7840   36.7970   62.9460 C.2    53  ASN53       0.2627
     13  OD1       -3.6690   37.8440   63.5820 O.2    53  ASN53      -0.2716
     14  ND2       -4.1110   36.7740   61.6560 N.am   53  ASN53      -0.0877
     15  N         -1.5970   36.0090   65.7760 N.am   54  LEU54      -0.1966
     16  CA        -0.5800   36.7610   66.4820 C.3    54  LEU54       0.1728
     17  C          0.7020   36.7560   65.6680 C.2    54  LEU54       0.2616
     18  O          0.8400   35.9840   64.7210 O.2    54  LEU54      -0.2715
     19  CB        -0.3560   36.1650   67.8760 C.3    54  LEU54       0.0311
     20  CG        -0.3200   34.6360   67.9390 C.3    54  LEU54       0.0022
     21  CD1        1.0960   34.1310   67.7690 C.3    54  LEU54       0.0001
     22  CD2       -0.9280   34.1140   69.2330 C.3    54  LEU54       0.0001
     23  N          1.6330   37.6230   66.0370 N.am   55  ALA55      -0.1977
     24  CA         2.8930   37.7330   65.3280 C.3    55  ALA55       0.1597
     25  C          3.9890   37.0700   66.1430 C.2    55  ALA55       0.2287
     26  O          4.3300   37.5320   67.2300 O.2    55  ALA55      -0.2864
     27  CB         3.2260   39.1930   65.0720 C.3    55  ALA55       0.0319
     28  N          6.0780   47.2580   57.9850 N.3    85  ARG85      -0.1245
     29  CA         4.7620   47.8380   58.2100 C.3    85  ARG85       0.1563
     30  C          4.2520   48.4280   56.9050 C.2    85  ARG85       0.2260
     31  O          5.0280   48.9690   56.1140 O.2    85  ARG85      -0.2867
     32  CB         4.8250   48.9500   59.2610 C.3    85  ARG85       0.0307
     33  CG         5.2760   48.5130   60.6430 C.3    85  ARG85       0.0489
     34  CD         5.5150   49.7250   61.5450 C.3    85  ARG85       0.2205
     35  NE         5.7760   49.3310   62.9270 N.pl3  85  ARG85      -0.0865
     36  CZ         5.9910   50.1850   63.9250 C.cat  85  ARG85       0.5346
     37  NH1        5.9800   51.4920   63.6980 N.pl3  85  ARG85       0.1354
     38  NH2        6.2180   49.7290   65.1510 N.pl3  85  ARG85       0.1354
     39  N         11.4630   46.3600   58.0240 N.3    99  TYR99      -0.1241
     40  CA        11.9720   46.2230   59.3850 C.3    99  TYR99       0.1605
     41  C         13.4930   46.3410   59.4220 C.2    99  TYR99       0.2264
     42  O         14.0720   46.6550   60.4620 O.2    99  TYR99      -0.2867
     43  CB        11.5120   44.9000   60.0090 C.3    99  TYR99       0.0534
     44  CG        10.0560   44.9060   60.4370 C.ar   99  TYR99      -0.0201
     45  CD1        9.5390   45.9550   61.1860 C.ar   99  TYR99      -0.0009
     46  CD2        9.1980   43.8730   60.0800 C.ar   99  TYR99      -0.0009
     47  CE1        8.2130   45.9720   61.5790 C.ar   99  TYR99       0.0417
     48  CE2        7.8660   43.8820   60.4690 C.ar   99  TYR99       0.0417
     49  CZ         7.3820   44.9370   61.2170 C.ar   99  TYR99       0.1957
     50  OH         6.0610   44.9600   61.6060 O.3    99  TYR99      -0.2866
     51  N          8.5990   39.4610   61.3270 N.3   106  ILE106     -0.1245
     52  CA         7.7840   38.8060   62.3380 C.3   106  ILE106      0.1561
     53  C          6.7130   38.0690   61.5570 C.2   106  ILE106      0.2260
     54  O          6.3400   38.4950   60.4640 O.2   106  ILE106     -0.2867
     55  CB         7.1340   39.8140   63.2850 C.3   106  ILE106      0.0252
     56  CG1        6.5890   40.9940   62.4860 C.3   106  ILE106      0.0019
     57  CG2        8.1390   40.3070   64.3200 C.3   106  ILE106      0.0019
     58  CD1        6.0300   42.0870   63.3400 C.3   106  ILE106      0.0001
     59  N          2.7320   44.0830   57.9140 N.3   218  LEU218     -0.1245
     60  CA         1.7800   44.3500   58.9800 C.3   218  LEU218      0.1561
     61  C          1.1160   45.6840   58.6490 C.2   218  LEU218      0.2260
     62  O          1.7630   46.7240   58.6650 O.2   218  LEU218     -0.2867
     63  CB         2.4930   44.4180   60.3350 C.3   218  LEU218      0.0270
     64  CG         1.6600   44.2590   61.6150 C.3   218  LEU218      0.0019
     65  CD1        2.5790   44.0940   62.8150 C.3   218  LEU218      0.0001
     66  CD2        0.7190   45.4260   61.8470 C.3   218  LEU218      0.0001
     67  N         -1.1120   48.9810   59.0960 N.3   220  ILE220     -0.1245
     68  CA        -1.4520   49.8810   60.1910 C.3   220  ILE220      0.1561
     69  C         -2.1090   51.1500   59.6600 C.2   220  ILE220      0.2260
     70  O         -1.6300   51.7460   58.7010 O.2   220  ILE220     -0.2867
     71  CB        -0.1980   50.2880   60.9950 C.3   220  ILE220      0.0252
     72  CG1        0.5400   49.0540   61.5070 C.3   220  ILE220      0.0019
     73  CG2       -0.5780   51.1850   62.1620 C.3   220  ILE220      0.0019
     74  CD1        1.8120   49.3710   62.2600 C.3   220  ILE220      0.0001
     75  N         -6.1820   53.3340   66.3320 N.3   227  MET227     -0.1245
     76  CA        -5.6640   52.7770   65.0900 C.3   227  MET227      0.1570
     77  C         -6.3680   51.4940   64.6840 C.2   227  MET227      0.2261
     78  O         -6.9780   50.8080   65.5030 O.2   227  MET227     -0.2867
     79  CB        -4.1620   52.5160   65.1970 C.3   227  MET227      0.0387
     80  CG        -3.8140   51.3040   66.0350 C.3   227  MET227      0.0595
     81  SD        -2.0400   50.9930   66.1580 S.3   227  MET227     -0.1393
     82  CE        -2.0600   49.5700   67.2500 C.3   227  MET227      0.0692
     83  N         -5.3830   47.8530   62.6420 N.3   229  ILE229     -0.1245
     84  CA        -4.2770   47.0610   62.1200 C.3   229  ILE229      0.1561
     85  C         -4.8240   45.8380   61.4000 C.2   229  ILE229      0.2260
     86  O         -5.9980   45.5010   61.5500 O.2   229  ILE229     -0.2867
     87  CB        -3.2810   46.5950   63.2200 C.3   229  ILE229      0.0252
     88  CG1       -3.8290   45.3890   63.9770 C.3   229  ILE229      0.0019
     89  CG2       -2.9100   47.7330   64.1590 C.3   229  ILE229      0.0019
     90  CD1       -2.8930   44.8740   65.0400 C.3   229  ILE229      0.0001
     91  N         -3.4810   41.7130   60.1050 N.3   231  LEU231     -0.1245
     92  CA        -2.5160   40.6280   59.9320 C.3   231  LEU231      0.1561
     93  C         -3.1280   39.5410   59.0590 C.2   231  LEU231      0.2260
     94  O         -4.2920   39.1940   59.2320 O.2   231  LEU231     -0.2867
     95  CB        -2.1180   40.0230   61.2830 C.3   231  LEU231      0.0270
     96  CG        -1.0470   40.7200   62.1250 C.3   231  LEU231      0.0019
     97  CD1       -1.5930   41.9780   62.8010 C.3   231  LEU231      0.0001
     98  CD2       -0.4700   39.7480   63.1530 C.3   231  LEU231      0.0001
     99  N         -7.9150   44.5290   63.6070 N.3   241  THR241     -0.1218
    100  CA        -8.2090   44.9280   64.9780 C.3   241  THR241      0.1862
    101  C         -8.2520   46.4480   65.1020 C.2   241  THR241      0.2287
    102  O         -7.3640   47.1430   64.6180 O.2   241  THR241     -0.2866
    103  CB        -7.1700   44.3600   65.9770 C.3   241  THR241      0.1770
    104  OG1       -6.9950   42.9530   65.7580 O.3   241  THR241     -0.2211
    105  CG2       -7.6210   44.5850   67.4090 C.3   241  THR241      0.0375
    106  N         -8.1230   49.4840   67.8100 N.3   243  PHE243     -0.1241
    107  CA        -7.7910   49.8670   69.1820 C.3   243  PHE243      0.1605
    108  C         -8.1990   51.3120   69.4230 C.2   243  PHE243      0.2264
    109  O         -7.6960   52.2110   68.7530 O.2   243  PHE243     -0.2867
    110  CB        -6.2830   49.7620   69.4340 C.3   243  PHE243      0.0534
    111  CG        -5.7420   48.3640   69.3650 C.ar  243  PHE243     -0.0203
    112  CD1       -5.3070   47.8330   68.1600 C.ar  243  PHE243     -0.0042
    113  CD2       -5.6520   47.5860   70.5070 C.ar  243  PHE243     -0.0042
    114  CE1       -4.8020   46.5410   68.0940 C.ar  243  PHE243     -0.0003
    115  CE2       -5.1510   46.2950   70.4480 C.ar  243  PHE243     -0.0003
    116  CZ        -4.7270   45.7710   69.2390 C.ar  243  PHE243     -0.0000
    117  N         -0.0350   45.0160   73.4850 N.3   318  PRO318     -0.2102
    118  CA         0.3630   44.2180   72.3170 C.3   318  PRO318      0.1504
    119  C          1.1780   44.9730   71.2620 C.2   318  PRO318      0.2576
    120  O          1.6620   44.3490   70.3180 O.2   318  PRO318     -0.2718
    121  CB        -0.9830   43.8010   71.7040 C.3   318  PRO318      0.0282
    122  CG        -2.0270   44.1570   72.7210 C.3   318  PRO318      0.0208
    123  CD        -1.4750   45.3130   73.4710 C.3   318  PRO318      0.0893
    124  N          1.3420   46.2810   71.4280 N.am  319  PHE319     -0.1963
    125  CA         1.8670   47.1430   70.3640 C.3   319  PHE319      0.1771
    126  C          3.3040   46.8660   69.8980 C.2   319  PHE319      0.2620
    127  O          3.7680   47.4640   68.9260 O.2   319  PHE319     -0.2715
    128  CB         1.7080   48.6090   70.7640 C.3   319  PHE319      0.0574
    129  CG         0.3130   48.9600   71.1870 C.ar  319  PHE319     -0.0200
    130  CD1       -0.7730   48.4930   70.4660 C.ar  319  PHE319     -0.0042
    131  CD2        0.0830   49.7240   72.3170 C.ar  319  PHE319     -0.0042
    132  CE1       -2.0570   48.7960   70.8500 C.ar  319  PHE319     -0.0003
    133  CE2       -1.2020   50.0310   72.7060 C.ar  319  PHE319     -0.0003
    134  CZ        -2.2730   49.5630   71.9710 C.ar  319  PHE319     -0.0000
    135  N          4.0030   45.9620   70.5760 N.am  320  TYR320     -0.1960
    136  CA         5.3700   45.6280   70.1830 C.3   320  TYR320      0.1771
    137  C          5.5390   44.1250   69.9640 C.2   320  TYR320      0.2620
    138  O          6.6620   43.6260   69.8740 O.2   320  TYR320     -0.2715
    139  CB         6.3780   46.1490   71.2160 C.3   320  TYR320      0.0574
    140  CG         6.2150   47.6210   71.5340 C.ar  320  TYR320     -0.0198
    141  CD1        6.8760   48.5930   70.7910 C.ar  320  TYR320     -0.0009
    142  CD2        5.3910   48.0400   72.5750 C.ar  320  TYR320     -0.0009
    143  CE1        6.7240   49.9410   71.0760 C.ar  320  TYR320      0.0417
    144  CE2        5.2330   49.3840   72.8670 C.ar  320  TYR320      0.0417
    145  CZ         5.9010   50.3290   72.1160 C.ar  320  TYR320      0.1957
    146  OH         5.7440   51.6670   72.4040 O.3   320  TYR320     -0.2866
    147  N          4.4150   43.4170   69.8720 N.am  321  GLY321     -0.1954
    148  CA         4.4150   41.9810   69.6480 C.3   321  GLY321      0.1869
    149  C          5.2010   41.2290   70.7030 C.2   321  GLY321      0.2309
    150  O          5.9250   40.2800   70.3970 O.2   321  GLY321     -0.2863
@<TRIPOS>BOND
     1    31    30    2
     2    30    29    1
     3    59    60    1
     4    28    29    1
     5    39    40    1
     6    29    32    1
     7    61    62    2
     8    61    60    1
     9    70    69    2
    10    60    63    1
    11    93    94    2
    12    93    92    1
    13    67    68    1
    14    32    33    1
    15    40    41    1
    16    40    43    1
    17    41    42    2
    18    69    68    1
    19    92    91    1
    20    92    95    1
    21    43    44    1
    22    46    44   ar
    23    46    48   ar
    24    68    71    1
    25    63    64    1
    26    44    45   ar
    27    54    53    2
    28    48    49   ar
    29    33    34    1
    30    71    72    1
    31    71    73    1
    32    45    47   ar
    33    49    47   ar
    34    49    50    1
    35    95    96    1
    36    51    52    1
    37    85    86    2
    38    85    84    1
    39    72    74    1
    40    34    35    1
    41    53    52    1
    42    64    66    1
    43    64    65    1
    44    14    12   am
    45    84    83    1
    46    84    87    1
    47    96    97    1
    48    96    98    1
    49    52    55    1
    50    56    55    1
    51    56    58    1
    52    35    36    2
    53    12    13    2
    54    12    11    1
    55    87    88    1
    56    87    89    1
    57    55    57    1
    58    11     8    1
    59    99   100    1
    60    37    36    1
    61    36    38    1
    62    88    90    1
    63   102   101    2
    64    77    76    1
    65    77    78    2
    66    18    17    2
    67   100   101    1
    68   100   103    1
    69    27    24    1
    70    76    79    1
    71    76    75    1
    72     8     7    1
    73     8     9    1
    74    79    80    1
    75    24    23    1
    76    24    25    1
    77    17    23   am
    78    17    16    1
    79   104   103    1
    80    15     9   am
    81    15    16    1
    82     9    10    2
    83   103   105    1
    84    80    81    1
    85    25    26    2
    86    81    82    1
    87    16    19    1
    88    21    20    1
    89   106   107    1
    90    19    20    1
    91    20    22    1
    92   114   112   ar
    93   114   116   ar
    94   112   111   ar
    95     3     4    2
    96     3     2    1
    97   109   108    2
    98     5     6    1
    99     5     2    1
   100   127   126    2
   101     2     1    1
   102   107   108    1
   103   107   110    1
   104   116   115   ar
   105   111   110    1
   106   111   113   ar
   107   148   147    1
   108   148   149    1
   109   147   137   am
   110   138   137    2
   111   126   125    1
   112   126   135   am
   113   137   136    1
   114   136   135    1
   115   136   139    1
   116   120   119    2
   117   125   128    1
   118   125   124    1
   119   150   149    2
   120   115   113   ar
   121   130   132   ar
   122   130   129   ar
   123   128   129    1
   124   141   143   ar
   125   141   140   ar
   126   132   134   ar
   127   143   145   ar
   128   129   131   ar
   129   139   140    1
   130   119   124   am
   131   119   118    1
   132   140   142   ar
   133   121   118    1
   134   121   122    1
   135   134   133   ar
   136   145   146    1
   137   145   144   ar
   138   118   117    1
   139   131   133   ar
   140   142   144   ar
   141   122   123    1
   142   123   117    1
