@<TRIPOS>MOLECULE
tmp/4j3bA00.pdb
 152 145 0 0 0
SMALL
GASTEIGER

@<TRIPOS>ATOM
      1  N        -14.8670  -21.4300   17.1030 N.3   121  GLN121     -0.1245
      2  CA       -14.3760  -20.1710   16.5520 C.3   121  GLN121      0.1566
      3  C        -13.0620  -19.8330   17.2360 C.2   121  GLN121      0.2260
      4  O        -13.0260  -19.6280   18.4450 O.2   121  GLN121     -0.2867
      5  CB       -15.3950  -19.0450   16.7800 C.3   121  GLN121      0.0367
      6  CG       -14.8640  -17.6330   16.4760 C.3   121  GLN121      0.0905
      7  CD       -14.3550  -17.4950   15.0490 C.2   121  GLN121      0.2608
      8  OE1      -14.8300  -18.1760   14.1430 O.2   121  GLN121     -0.2717
      9  NE2      -13.3840  -16.6170   14.8470 N.am  121  GLN121     -0.0878
     10  N        -10.3240  -17.6230   15.8750 N.3   123  GLU123     -0.1245
     11  CA        -9.6930  -16.3130   15.7100 C.3   123  GLU123      0.1567
     12  C        -10.2610  -15.3240   16.7210 C.2   123  GLU123      0.2260
     13  O        -11.4780  -15.1840   16.8280 O.2   123  GLU123     -0.2867
     14  CB        -9.8620  -15.7770   14.2860 C.3   123  GLU123      0.0388
     15  CG        -9.1630  -14.4370   14.0580 C.3   123  GLU123      0.1160
     16  CD        -9.1580  -14.0090   12.5990 C.2   123  GLU123      0.3649
     17  OE1       -9.8130  -14.6740   11.7820 O.co2 123  GLU123     -0.2457
     18  OE2       -8.4930  -13.0070   12.2650 O.co2 123  GLU123     -0.2457
     19  N        -20.2700  -14.5890   16.7910 N.3   262  ASN262     -0.1226
     20  CA       -19.8660  -13.2380   17.1330 C.3   262  ASN262      0.1770
     21  C        -19.5470  -12.4260   15.8810 C.2   262  ASN262      0.2439
     22  O        -20.1870  -11.4090   15.6280 O.2   262  ASN262     -0.2733
     23  CB       -18.7030  -13.2460   18.1340 C.3   262  ASN262      0.1168
     24  CG       -19.1580  -13.5990   19.5460 C.2   262  ASN262      0.2627
     25  OD1      -20.3230  -13.4080   19.8960 O.2   262  ASN262     -0.2716
     26  ND2      -18.2440  -14.1170   20.3580 N.am  262  ASN262     -0.0877
     27  N        -18.5890  -12.8950   15.0670 N.am  263  PRO263     -0.2729
     28  CA       -18.3150  -12.1830   13.8130 C.3   263  PRO263      0.1401
     29  C        -19.4030  -12.4090   12.7520 C.2   263  PRO263      0.2269
     30  O        -20.4000  -13.0970   13.0190 O.2   263  PRO263     -0.2865
     31  CB       -16.9650  -12.7620   13.3530 C.3   263  PRO263      0.0296
     32  CG       -16.6810  -13.9570   14.2490 C.3   263  PRO263      0.0237
     33  CD       -17.8650  -14.1750   15.1530 C.3   263  PRO263      0.0939
     34  N        -18.4590  -13.8780    9.6180 N.3   265  ALA265     -0.1231
     35  CA       -18.0430  -15.2230    9.1900 C.3   265  ALA265      0.1694
     36  C        -16.5600  -15.4400    9.4650 C.2   265  ALA265      0.2592
     37  O        -15.8860  -14.5500    9.9720 O.2   265  ALA265     -0.2718
     38  CB       -18.3440  -15.4430    7.7000 C.3   265  ALA265      0.0304
     39  N        -16.0590  -16.6230    9.1220 N.am  266  MET266     -0.1965
     40  CA       -14.7070  -17.0220    9.4920 C.3   266  MET266      0.1736
     41  C        -14.1090  -17.9450    8.4460 C.2   266  MET266      0.2616
     42  O        -14.7440  -18.9110    8.0400 O.2   266  MET266     -0.2715
     43  CB       -14.7080  -17.7170   10.8520 C.3   266  MET266      0.0427
     44  CG       -13.3280  -18.1540   11.3120 C.3   266  MET266      0.0599
     45  SD       -12.1890  -16.7660   11.4540 S.3   266  MET266     -0.1393
     46  CE       -10.6570  -17.5380   10.9480 C.3   266  MET266      0.0692
     47  N        -12.8780  -17.6500    8.0320 N.am  267  GLU267     -0.1977
     48  CA       -12.2880  -18.2600    6.8410 C.3   267  GLU267      0.1602
     49  C        -11.5170  -19.5660    7.1110 C.2   267  GLU267      0.2287
     50  O        -10.5230  -19.8590    6.4430 O.2   267  GLU267     -0.2864
     51  CB       -11.3740  -17.2540    6.1250 C.3   267  GLU267      0.0415
     52  CG       -10.0590  -16.9430    6.8660 C.3   267  GLU267      0.1163
     53  CD       -10.1560  -15.7290    7.7800 C.2   267  GLU267      0.3649
     54  OE1      -11.2870  -15.3600    8.1700 O.co2 267  GLU267     -0.2457
     55  OE2       -9.0980  -15.1470    8.1120 O.co2 267  GLU267     -0.2457
     56  N        -15.8090  -12.5150    0.5030 N.3   300  HIS300     -0.1226
     57  CA       -14.7960  -12.1900    1.4940 C.3   300  HIS300      0.1752
     58  C        -14.0960  -13.4320    2.0450 C.2   300  HIS300      0.2595
     59  O        -12.8710  -13.5310    2.0170 O.2   300  HIS300     -0.2718
     60  CB       -15.4430  -11.4070    2.6320 C.3   300  HIS300      0.0759
     61  CG       -14.4790  -10.9470    3.6790 C.ar  300  HIS300      0.0818
     62  ND1      -14.0190   -9.6500    3.7470 N.ar  300  HIS300     -0.2268
     63  CD2      -13.9040  -11.6060    4.7130 C.ar  300  HIS300      0.1154
     64  CE1      -13.1970   -9.5310    4.7760 C.ar  300  HIS300      0.1986
     65  NE2      -13.1110  -10.7040    5.3790 N.ar  300  HIS300     -0.2212
     66  N        -14.8710  -14.3770    2.5630 N.am  301  GLU301     -0.1979
     67  CA       -14.2720  -15.5530    3.1750 C.3   301  GLU301      0.1602
     68  C        -13.5400  -16.3810    2.1250 C.2   301  GLU301      0.2287
     69  O        -12.4680  -16.9220    2.3900 O.2   301  GLU301     -0.2864
     70  CB       -15.3250  -16.3980    3.8950 C.3   301  GLU301      0.0415
     71  CG       -16.1190  -15.6460    4.9670 C.3   301  GLU301      0.1163
     72  CD       -15.2440  -14.8760    5.9560 C.2   301  GLU301      0.3649
     73  OE1      -14.1170  -15.3220    6.2450 O.co2 301  GLU301     -0.2457
     74  OE2      -15.6930  -13.8150    6.4510 O.co2 301  GLU301     -0.2457
     75  N        -10.1330  -14.8590    1.2970 N.3   304  HIS304     -0.1241
     76  CA        -9.1720  -15.1870    2.3560 C.3   304  HIS304      0.1621
     77  C         -8.3260  -16.4220    2.0600 C.2   304  HIS304      0.2264
     78  O         -7.2610  -16.6060    2.6600 O.2   304  HIS304     -0.2867
     79  CB        -9.8790  -15.4060    3.6910 C.3   304  HIS304      0.0745
     80  CG        -9.9630  -14.1770    4.5400 C.ar  304  HIS304      0.0817
     81  ND1       -8.9220  -13.2820    4.6670 N.ar  304  HIS304     -0.2268
     82  CD2      -10.9680  -13.6950    5.3070 C.ar  304  HIS304      0.1154
     83  CE1       -9.2850  -12.2980    5.4710 C.ar  304  HIS304      0.1986
     84  NE2      -10.5230  -12.5240    5.8720 N.ar  304  HIS304     -0.2212
     85  N         -4.4430   -9.0300    6.0050 N.3   322  LYS322     -0.1231
     86  CA        -5.4440   -9.9580    5.4900 C.3   322  LYS322      0.1693
     87  C         -6.8450   -9.3630    5.4100 C.2   322  LYS322      0.2591
     88  O         -7.5970   -9.6620    4.4870 O.2   322  LYS322     -0.2718
     89  CB        -5.4160  -11.3140    6.2120 C.3   322  LYS322      0.0285
     90  CG        -6.1200  -11.3830    7.5750 C.3   322  LYS322      0.0035
     91  CD        -6.1010  -12.8360    8.0920 C.3   322  LYS322      0.0206
     92  CE        -6.6200  -12.9690    9.5220 C.3   322  LYS322      0.1093
     93  NZ        -8.1210  -12.9190    9.6010 N.3   322  LYS322     -0.1314
     94  N         -7.1990   -8.5180    6.3680 N.am  323  GLU323     -0.1979
     95  CA        -8.5530   -7.9800    6.3990 C.3   323  GLU323      0.1602
     96  C         -8.7260   -6.8310    5.4150 C.2   323  GLU323      0.2287
     97  O         -9.6710   -6.8230    4.6310 O.2   323  GLU323     -0.2864
     98  CB        -8.9520   -7.5600    7.8130 C.3   323  GLU323      0.0415
     99  CG        -9.0560   -8.7270    8.7900 C.3   323  GLU323      0.1163
    100  CD        -9.9270   -9.8690    8.2750 C.2   323  GLU323      0.3649
    101  OE1      -10.7610   -9.6470    7.3650 O.co2 323  GLU323     -0.2457
    102  OE2       -9.7850  -10.9930    8.7990 O.co2 323  GLU323     -0.2457
    103  N         -9.0930   -8.7880   20.1300 N.3   376  GLU376     -0.1245
    104  CA       -10.5190   -8.6740   19.8250 C.3   376  GLU376      0.1567
    105  C        -10.9470   -7.2280   19.6150 C.2   376  GLU376      0.2260
    106  O        -11.8800   -6.9540   18.8600 O.2   376  GLU376     -0.2867
    107  CB       -11.3610   -9.2950   20.9440 C.3   376  GLU376      0.0388
    108  CG       -11.0530  -10.7560   21.2050 C.3   376  GLU376      0.1160
    109  CD       -11.1000  -11.5750   19.9330 C.2   376  GLU376      0.3649
    110  OE1      -12.1260  -11.4870   19.2190 O.co2 376  GLU376     -0.2457
    111  OE2      -10.1140  -12.2950   19.6430 O.co2 376  GLU376     -0.2457
    112  N        -10.5210   -5.6610   15.6650 N.3   379  TYR379     -0.1241
    113  CA       -11.3120   -5.9900   14.4970 C.3   379  TYR379      0.1605
    114  C        -12.2420   -4.8410   14.1400 C.2   379  TYR379      0.2264
    115  O        -13.4520   -4.9120   14.3290 O.2   379  TYR379     -0.2867
    116  CB       -12.0390   -7.3250   14.7020 C.3   379  TYR379      0.0534
    117  CG       -11.0610   -8.4770   14.6490 C.ar  379  TYR379     -0.0201
    118  CD1      -10.1650   -8.6930   15.6940 C.ar  379  TYR379     -0.0009
    119  CD2      -10.9920   -9.3120   13.5370 C.ar  379  TYR379     -0.0009
    120  CE1       -9.2440   -9.7170   15.6450 C.ar  379  TYR379      0.0417
    121  CE2      -10.0660  -10.3600   13.4820 C.ar  379  TYR379      0.0417
    122  CZ        -9.1970  -10.5490   14.5430 C.ar  379  TYR379      0.1957
    123  OH        -8.2700  -11.5650   14.5190 O.3   379  TYR379     -0.2866
    124  N        -10.3190   -2.8850    8.9050 N.3   384  TYR384     -0.1241
    125  CA       -11.0080   -3.4970    7.7570 C.3   384  TYR384      0.1605
    126  C        -11.1980   -2.5030    6.6210 C.2   384  TYR384      0.2264
    127  O        -10.9050   -2.7980    5.4610 O.2   384  TYR384     -0.2867
    128  CB       -12.3880   -4.0220    8.1760 C.3   384  TYR384      0.0534
    129  CG       -12.3670   -5.4020    8.7930 C.ar  384  TYR384     -0.0201
    130  CD1      -11.7230   -5.6330   10.0080 C.ar  384  TYR384     -0.0009
    131  CD2      -13.0050   -6.4720    8.1720 C.ar  384  TYR384     -0.0009
    132  CE1      -11.7040   -6.8960   10.5830 C.ar  384  TYR384      0.0417
    133  CE2      -12.9930   -7.7420    8.7380 C.ar  384  TYR384      0.0417
    134  CZ       -12.3410   -7.9460    9.9430 C.ar  384  TYR384      0.1957
    135  OH       -12.3230   -9.2000   10.5060 O.3   384  TYR384     -0.2866
    136  N        -17.1110  -10.1430   23.8680 N.3   838  MET838     -0.1245
    137  CA       -16.9600   -9.5940   22.5240 C.3   838  MET838      0.1570
    138  C        -18.1870   -8.7720   22.1490 C.2   838  MET838      0.2261
    139  O        -18.0730   -7.6220   21.7190 O.2   838  MET838     -0.2867
    140  CB       -16.7100  -10.7050   21.5090 C.3   838  MET838      0.0387
    141  CG       -15.2370  -11.0640   21.3570 C.3   838  MET838      0.0595
    142  SD       -14.9780  -12.6440   20.5150 S.3   838  MET838     -0.1393
    143  CE       -14.2620  -13.6210   21.8410 C.3   838  MET838      0.0692
    144  N        -18.9920   -4.6420   21.4490 N.3   842  GLN842     -0.1245
    145  CA       -19.7260   -4.1610   20.2770 C.3   842  GLN842      0.1566
    146  C        -20.8440   -3.2060   20.6900 C.2   842  GLN842      0.2260
    147  O        -21.0980   -2.2050   20.0240 O.2   842  GLN842     -0.2867
    148  CB       -20.3070   -5.3290   19.4740 C.3   842  GLN842      0.0367
    149  CG       -19.2710   -6.1110   18.6800 C.3   842  GLN842      0.0905
    150  CD       -19.7660   -7.4930   18.2730 C.2   842  GLN842      0.2608
    151  OE1      -20.9610   -7.7000   18.0790 O.2   842  GLN842     -0.2717
    152  NE2      -18.8420   -8.4470   18.1520 N.am  842  GLN842     -0.0878
@<TRIPOS>BOND
     1    56    57    1
     2    75    76    1
     3    57    58    1
     4    57    60    1
     5    59    58    2
     6    58    66   am
     7    77    76    1
     8    77    78    2
     9    68    69    2
    10    68    67    1
    11    76    79    1
    12    66    67    1
    13    60    61    1
    14    67    70    1
    15    61    62   ar
    16    61    63   ar
    17    79    80    1
    18    62    64   ar
    19    70    71    1
    20    88    87    2
    21    80    81   ar
    22    80    82   ar
    23    97    96    2
    24    81    83   ar
    25    63    65   ar
    26    64    65   ar
    27    71    72    1
    28    82    84   ar
    29    87    86    1
    30    87    94   am
    31    96    95    1
    32   127   126    2
    33    83    84   ar
    34    86    85    1
    35    86    89    1
    36    72    73   ar
    37    72    74   ar
    38    51    48    1
    39    51    52    1
    40    89    90    1
    41    94    95    1
    42    95    98    1
    43    50    49    2
    44   126   125    1
    45    48    49    1
    46    48    47    1
    47    52    53    1
    48   101   100   ar
    49    90    91    1
    50    38    35    1
    51   125   128    1
    52   125   124    1
    53    53    55   ar
    54    53    54   ar
    55    98    99    1
    56    47    41   am
    57    42    41    2
    58    91    92    1
    59   131   133   ar
    60   131   129   ar
    61   128   129    1
    62   100    99    1
    63   100   102   ar
    64    41    40    1
    65   133   134   ar
    66   129   130   ar
    67    39    36   am
    68    39    40    1
    69    35    36    1
    70    35    34    1
    71    36    37    2
    72    40    43    1
    73    92    93    1
    74   134   135    1
    75   134   132   ar
    76   130   132   ar
    77    43    44    1
    78    46    45    1
    79    44    45    1
    80    17    16   ar
    81    18    16   ar
    82    16    15    1
    83    29    30    2
    84    29    28    1
    85    31    28    1
    86    31    32    1
    87   121   119   ar
    88   121   122   ar
    89   119   117   ar
    90    28    27    1
    91    15    14    1
    92   114   115    2
    93   114   113    1
    94     8     7    2
    95    32    33    1
    96    14    11    1
    97   113   116    1
    98   113   112    1
    99   123   122    1
   100   122   120   ar
   101   117   116    1
   102   117   118   ar
   103     9     7   am
   104     7     6    1
   105    27    33    1
   106    27    21   am
   107    22    21    2
   108   120   118   ar
   109    11    10    1
   110    11    12    1
   111    21    20    1
   112     6     5    1
   113     2     5    1
   114     2     1    1
   115     2     3    1
   116    12    13    2
   117    19    20    1
   118    20    23    1
   119     3     4    2
   120   151   150    2
   121    23    24    1
   122   152   150   am
   123   150   149    1
   124   149   148    1
   125   106   105    2
   126   110   109   ar
   127   148   145    1
   128    24    25    2
   129    24    26   am
   130   105   104    1
   131   111   109   ar
   132   104   103    1
   133   104   107    1
   134   109   108    1
   135   147   146    2
   136   145   146    1
   137   145   144    1
   138   142   141    1
   139   142   143    1
   140   107   108    1
   141   141   140    1
   142   140   137    1
   143   139   138    2
   144   138   137    1
   145   137   136    1
