@<TRIPOS>MOLECULE
tmp/4j3dA00.pdb
 192 185 0 0 0
SMALL
GASTEIGER

@<TRIPOS>ATOM
      1  N          1.4390   20.2560   22.2020 N.3    18  LEU18      -0.1231
      2  CA         1.4850   18.8980   22.7070 C.3    18  LEU18       0.1693
      3  C          2.3810   18.7960   23.9390 C.2    18  LEU18       0.2592
      4  O          1.9580   18.3110   24.9790 O.2    18  LEU18      -0.2718
      5  CB         1.9850   17.9350   21.6180 C.3    18  LEU18       0.0284
      6  CG         2.2060   16.4650   21.9610 C.3    18  LEU18       0.0019
      7  CD1        0.8940   15.7350   22.3630 C.3    18  LEU18       0.0001
      8  CD2        2.8540   15.8050   20.7470 C.3    18  LEU18       0.0001
      9  N          3.6200   19.2380   23.8050 N.am   19  HIS19      -0.1976
     10  CA         4.6170   19.0420   24.8620 C.3    19  HIS19       0.1656
     11  C          4.5250   20.0560   25.9590 C.2    19  HIS19       0.2291
     12  O          4.5650   19.6820   27.1570 O.2    19  HIS19      -0.2864
     13  CB         6.0150   18.9280   24.2650 C.3    19  HIS19       0.0771
     14  CG         6.1670   17.7070   23.4230 C.ar   19  HIS19       0.0820
     15  ND1        5.9830   16.4410   23.9330 N.ar   19  HIS19      -0.2267
     16  CD2        6.4000   17.5520   22.0970 C.ar   19  HIS19       0.1154
     17  CE1        6.1190   15.5570   22.9600 C.ar   19  HIS19       0.1986
     18  NE2        6.3810   16.2070   21.8390 N.ar   19  HIS19      -0.2212
     19  N         11.5370   14.8040   20.2070 N.3    62  MET62      -0.1245
     20  CA        10.2790   14.1680   19.7330 C.3    62  MET62       0.1570
     21  C          9.6230   14.9740   18.6190 C.2    62  MET62       0.2261
     22  O          8.6070   14.5570   18.0390 O.2    62  MET62      -0.2867
     23  CB         9.2880   13.9990   20.8890 C.3    62  MET62       0.0387
     24  CG         9.6480   12.8800   21.8560 C.3    62  MET62       0.0595
     25  SD         8.8790   13.0670   23.4910 S.3    62  MET62      -0.1393
     26  CE         9.5190   14.6460   24.0350 C.3    62  MET62       0.0692
     27  N          6.5560   20.2780   12.5160 N.3    77  GLU77      -0.1231
     28  CA         6.5130   19.2560   11.4580 C.3    77  GLU77       0.1699
     29  C          5.1310   19.0360   10.8580 C.2    77  GLU77       0.2592
     30  O          5.0190   18.7710    9.6530 O.2    77  GLU77      -0.2718
     31  CB         7.1010   17.9040   11.9170 C.3    77  GLU77       0.0402
     32  CG         6.4050   17.2280   13.1330 C.3    77  GLU77       0.1161
     33  CD         7.0820   17.4820   14.4920 C.2    77  GLU77       0.3649
     34  OE1        7.8110   18.4800   14.6210 O.co2  77  GLU77      -0.2457
     35  OE2        6.8640   16.6700   15.4240 O.co2  77  GLU77      -0.2457
     36  N          4.0830   19.1230   11.6730 N.am   78  HIS78      -0.1976
     37  CA         2.7290   18.8300   11.1740 C.3    78  HIS78       0.1656
     38  C          2.1970   19.9790   10.3330 C.2    78  HIS78       0.2291
     39  O          1.6100   19.7670    9.2810 O.2    78  HIS78      -0.2864
     40  CB         1.7580   18.4910   12.3170 C.3    78  HIS78       0.0771
     41  CG         2.2480   17.3990   13.2170 C.ar   78  HIS78       0.0820
     42  ND1        2.0370   17.4080   14.5770 N.ar   78  HIS78      -0.2267
     43  CD2        2.9620   16.2790   12.9560 C.ar   78  HIS78       0.1154
     44  CE1        2.5890   16.3300   15.1150 C.ar   78  HIS78       0.1986
     45  NE2        3.1520   15.6240   14.1520 N.ar   78  HIS78      -0.2212
     46  N         -0.6700   11.5620   15.4390 N.3   180  THR180     -0.1203
     47  CA         0.5160   11.1820   16.1750 C.3   180  THR180      0.1994
     48  C          0.0710   10.1160   17.1510 C.2   180  THR180      0.2618
     49  O         -1.1330    9.8940   17.3380 O.2   180  THR180     -0.2717
     50  CB         1.2110   12.3890   16.8880 C.3   180  THR180      0.1784
     51  OG1        2.4610   11.9720   17.4680 O.3   180  THR180     -0.2211
     52  CG2        0.3030   13.0310   17.9710 C.3   180  THR180      0.0376
     53  N          1.0410    9.4550   17.7740 N.am  181  PHE181     -0.1961
     54  CA         0.7530    8.3140   18.6090 C.3   181  PHE181      0.1771
     55  C          1.8030    8.1400   19.6890 C.2   181  PHE181      0.2620
     56  O          2.9100    8.6830   19.5880 O.2   181  PHE181     -0.2715
     57  CB         0.6630    7.0590   17.7460 C.3   181  PHE181      0.0574
     58  CG         1.9300    6.7450   16.9920 C.ar  181  PHE181     -0.0200
     59  CD1        2.8830    5.8890   17.5390 C.ar  181  PHE181     -0.0042
     60  CD2        2.1730    7.2970   15.7360 C.ar  181  PHE181     -0.0042
     61  CE1        4.0500    5.5830   16.8470 C.ar  181  PHE181     -0.0003
     62  CE2        3.3350    6.9900   15.0290 C.ar  181  PHE181     -0.0003
     63  CZ         4.2780    6.1400   15.5950 C.ar  181  PHE181     -0.0000
     64  N          1.4390    7.3980   20.7270 N.am  182  GLY182     -0.1940
     65  CA         2.3560    7.1240   21.8340 C.3   182  GLY182      0.2014
     66  C          1.9740    5.8950   22.6120 C.2   182  GLY182      0.2639
     67  O          0.8010    5.5010   22.6250 O.2   182  GLY182     -0.2714
     68  N          2.9780    5.2720   23.2330 N.am  183  PHE183     -0.1959
     69  CA         2.7700    4.1330   24.1050 C.3   183  PHE183      0.1771
     70  C          2.5420    4.5930   25.5500 C.2   183  PHE183      0.2619
     71  O          3.1870    5.5220   26.0180 O.2   183  PHE183     -0.2715
     72  CB         3.9240    3.1360   23.9740 C.3   183  PHE183      0.0574
     73  CG         3.9830    2.4810   22.6140 C.ar  183  PHE183     -0.0200
     74  CD1        3.4410    1.2190   22.4100 C.ar  183  PHE183     -0.0042
     75  CD2        4.5300    3.1550   21.5320 C.ar  183  PHE183     -0.0042
     76  CE1        3.4720    0.6230   21.1630 C.ar  183  PHE183     -0.0003
     77  CE2        4.5540    2.5850   20.2840 C.ar  183  PHE183     -0.0003
     78  CZ         4.0280    1.3130   20.0940 C.ar  183  PHE183     -0.0000
     79  N          1.5930    3.9670   26.2370 N.am  184  MET184     -0.1977
     80  CA         1.2620    4.3830   27.6020 C.3   184  MET184      0.1605
     81  C          2.5150    4.5070   28.4850 C.2   184  MET184      0.2287
     82  O          2.6570    5.4640   29.2390 O.2   184  MET184     -0.2864
     83  CB         0.2840    3.4100   28.2500 C.3   184  MET184      0.0413
     84  CG        -0.2960    3.9270   29.5410 C.3   184  MET184      0.0598
     85  SD        -1.2910    5.4110   29.2400 S.3   184  MET184     -0.1393
     86  CE        -2.5520    4.6690   28.1940 C.3   184  MET184      0.0692
     87  N          5.5830    5.0730   27.6230 N.3   186  ASP186     -0.1225
     88  CA         6.2950    6.2760   27.2530 C.3   186  ASP186      0.1805
     89  C          5.5720    7.5000   27.7960 C.2   186  ASP186      0.2597
     90  O          6.1950    8.3720   28.3910 O.2   186  ASP186     -0.2718
     91  CB         6.4020    6.4270   25.7290 C.3   186  ASP186      0.1424
     92  CG         7.5720    5.6720   25.1360 C.2   186  ASP186      0.3668
     93  OD1        8.6880    5.7110   25.7230 O.co2 186  ASP186     -0.2456
     94  OD2        7.3660    5.0520   24.0670 O.co2 186  ASP186     -0.2456
     95  N          4.2630    7.5740   27.5390 N.am  187  ILE187     -0.1980
     96  CA         3.4720    8.7470   27.9110 C.3   187  ILE187      0.1595
     97  C          3.5610    8.9870   29.4040 C.2   187  ILE187      0.2287
     98  O          3.6950   10.1130   29.8300 O.2   187  ILE187     -0.2864
     99  CB         1.9940    8.6230   27.4890 C.3   187  ILE187      0.0276
    100  CG1        1.8700    8.6810   25.9670 C.3   187  ILE187      0.0022
    101  CG2        1.1590    9.7370   28.1370 C.3   187  ILE187      0.0022
    102  CD1        0.5150    8.2500   25.4600 C.3   187  ILE187      0.0001
    103  N          6.9610   10.6260   30.1480 N.3   190  LEU190     -0.1231
    104  CA         7.0750   12.0130   29.6600 C.3   190  LEU190      0.1693
    105  C          6.2970   12.9520   30.5720 C.2   190  LEU190      0.2591
    106  O          6.7900   14.0170   30.9330 O.2   190  LEU190     -0.2718
    107  CB         6.5540   12.1140   28.2300 C.3   190  LEU190      0.0284
    108  CG         7.3990   11.4180   27.1560 C.3   190  LEU190      0.0019
    109  CD1        6.6350   11.3990   25.8510 C.3   190  LEU190      0.0001
    110  CD2        8.7490   12.1290   26.9750 C.3   190  LEU190      0.0001
    111  N          5.0980   12.5190   30.9770 N.am  191  ARG191     -0.1980
    112  CA         4.2940   13.2750   31.9260 C.3   191  ARG191      0.1597
    113  C          5.0500   13.4510   33.2520 C.2   191  ARG191      0.2287
    114  O          4.9830   14.5000   33.8440 O.2   191  ARG191     -0.2864
    115  CB         2.9290   12.6000   32.1330 C.3   191  ARG191      0.0334
    116  CG         1.9230   12.8320   30.9790 C.3   191  ARG191      0.0492
    117  CD         1.4240   14.2780   30.9760 C.3   191  ARG191      0.2205
    118  NE         0.4290   14.6390   29.9450 N.pl3 191  ARG191     -0.0865
    119  CZ        -0.8980   14.5610   30.0960 C.cat 191  ARG191      0.5346
    120  NH1       -1.7050   14.9530   29.1170 N.pl3 191  ARG191      0.1354
    121  NH2       -1.4340   14.0970   31.2160 N.pl3 191  ARG191      0.1354
    122  N          4.7800   16.1820   27.1330 N.3   196  ALA196     -0.1245
    123  CA         3.4650   15.8180   26.5900 C.3   196  ALA196      0.1562
    124  C          2.2950   16.4160   27.3650 C.2   196  ALA196      0.2260
    125  O          1.2310   15.7970   27.4530 O.2   196  ALA196     -0.2867
    126  CB         3.3090   14.2970   26.5370 C.3   196  ALA196      0.0290
    127  N         -1.1090   16.5660   25.6220 N.3   199  GLY199     -0.1210
    128  CA        -1.5980   15.3000   25.0830 C.3   199  GLY199      0.1956
    129  C         -2.9550   14.8840   25.6160 C.2   199  GLY199      0.2613
    130  O         -3.2950   15.1510   26.7790 O.2   199  GLY199     -0.2717
    131  N         -3.7490   14.2690   24.7420 N.am  200  SER200     -0.1938
    132  CA        -4.9770   13.5790   25.1420 C.3   200  SER200      0.2055
    133  C         -5.3770   12.5790   24.0600 C.2   200  SER200      0.2642
    134  O         -4.8110   12.5750   22.9640 O.2   200  SER200     -0.2714
    135  CB        -6.1300   14.5640   25.3660 C.3   200  SER200      0.2130
    136  OG        -6.7660   14.8590   24.1270 O.3   200  SER200     -0.2179
    137  N         -6.3720   11.7510   24.3600 N.am  201  VAL201     -0.1977
    138  CA        -6.9520   10.8520   23.3530 C.3   201  VAL201      0.1596
    139  C         -7.6170   11.6380   22.2060 C.2   201  VAL201      0.2287
    140  O         -7.9580   11.0820   21.1660 O.2   201  VAL201     -0.2864
    141  CB        -7.9330    9.8270   23.9840 C.3   201  VAL201      0.0276
    142  CG1       -7.1650    8.7640   24.7560 C.3   201  VAL201      0.0022
    143  CG2       -8.9590   10.5240   24.8810 C.3   201  VAL201      0.0022
    144  N         -4.0970   12.3980   20.0910 N.3   204  ALA204     -0.1245
    145  CA        -3.0630   11.3800   19.9910 C.3   204  ALA204      0.1562
    146  C         -3.6830    9.9700   20.0930 C.2   204  ALA204      0.2260
    147  O         -4.6230    9.7350   20.8720 O.2   204  ALA204     -0.2867
    148  CB        -1.9960   11.5850   21.0550 C.3   204  ALA204      0.0290
    149  N         -3.2820    6.4230   21.5530 N.3   206  VAL206     -0.1245
    150  CA        -2.5790    5.7840   22.6610 C.3   206  VAL206      0.1561
    151  C         -2.7170    4.2640   22.5930 C.2   206  VAL206      0.2260
    152  O         -3.8230    3.7450   22.5050 O.2   206  VAL206     -0.2867
    153  CB        -3.0980    6.2710   24.0070 C.3   206  VAL206      0.0252
    154  CG1       -2.2860    5.6530   25.1470 C.3   206  VAL206      0.0019
    155  CG2       -3.0510    7.7990   24.0650 C.3   206  VAL206      0.0019
    156  N          1.5170    8.4320    9.7900 N.3   227  HIS227     -0.1226
    157  CA         1.9240    9.6250   10.4940 C.3   227  HIS227      0.1752
    158  C          3.4300    9.9270   10.3930 C.2   227  HIS227      0.2595
    159  O          3.8300   11.0930   10.2320 O.2   227  HIS227     -0.2718
    160  CB         1.5210    9.5780   11.9330 C.3   227  HIS227      0.0759
    161  CG         1.6850   10.8930   12.5860 C.ar  227  HIS227      0.0818
    162  ND1        2.7890   11.1980   13.3480 N.ar  227  HIS227     -0.2268
    163  CD2        0.9500   12.0160   12.5060 C.ar  227  HIS227      0.1154
    164  CE1        2.6950   12.4500   13.7400 C.ar  227  HIS227      0.1986
    165  NE2        1.5890   12.9650   13.2440 N.ar  227  HIS227     -0.2212
    166  N          4.2600    8.8960   10.4890 N.am  228  LYS228     -0.1980
    167  CA         5.7140    9.0610   10.2820 C.3   228  LYS228      0.1596
    168  C          6.0770    9.5910    8.9000 C.2   228  LYS228      0.2287
    169  O          7.0740   10.2960    8.7720 O.2   228  LYS228     -0.2864
    170  CB         6.4840    7.7670   10.5890 C.3   228  LYS228      0.0298
    171  CG         6.4370    7.3840   12.0560 C.3   228  LYS228      0.0038
    172  CD         6.8960    8.5670   12.9150 C.3   228  LYS228      0.0206
    173  CE         7.3040    8.1430   14.2940 C.3   228  LYS228      0.1093
    174  NZ         8.1520    9.2090   14.9240 N.3   228  LYS228     -0.1314
    175  N          5.2430   13.3060    9.1410 N.3   231  ASP231     -0.1239
    176  CA         6.4050   13.9560    9.8000 C.3   231  ASP231      0.1674
    177  C          7.6030   14.1700    8.8830 C.2   231  ASP231      0.2266
    178  O          8.2530   15.2130    8.9620 O.2   231  ASP231     -0.2867
    179  CB         6.9180   13.1400   10.9930 C.3   231  ASP231      0.1410
    180  CG         5.9690   13.1560   12.1490 C.2   231  ASP231      0.3668
    181  OD1        5.1960   14.1140   12.2800 O.co2 231  ASP231     -0.2456
    182  OD2        5.9860   12.1840   12.9260 O.co2 231  ASP231     -0.2456
    183  N         13.4380   12.9080   13.4490 N.3   254  HIS254     -0.1241
    184  CA        13.6630   14.3280   13.1110 C.3   254  HIS254      0.1621
    185  C         15.1150   14.6820   12.9430 C.2   254  HIS254      0.2264
    186  O         15.4480   15.5140   12.0930 O.2   254  HIS254     -0.2867
    187  CB        13.0280   15.2310   14.1710 C.3   254  HIS254      0.0745
    188  CG        11.5780   14.9750   14.3310 C.ar  254  HIS254      0.0817
    189  ND1       10.6890   15.1400   13.2940 N.ar  254  HIS254     -0.2268
    190  CD2       10.8710   14.4620   15.3630 C.ar  254  HIS254      0.1154
    191  CE1        9.4870   14.7540   13.6890 C.ar  254  HIS254      0.1986
    192  NE2        9.5660   14.3620   14.9460 N.ar  254  HIS254     -0.2212
@<TRIPOS>BOND
     1   169   168    2
     2   177   178    2
     3   177   176    1
     4   168   167    1
     5   175   176    1
     6    39    38    2
     7    30    29    2
     8   156   157    1
     9   176   179    1
    10   159   158    2
    11   167   166    1
    12   167   170    1
    13    38    37    1
    14   158   166   am
    15   158   157    1
    16   157   160    1
    17   170   171    1
    18    29    28    1
    19    29    36   am
    20   179   180    1
    21    37    36    1
    22    37    40    1
    23    28    31    1
    24    28    27    1
    25    31    32    1
    26   160   161    1
    27   171   172    1
    28   186   185    2
    29   180   181   ar
    30   180   182   ar
    31    40    41    1
    32   163   161   ar
    33   163   165   ar
    34   161   162   ar
    35   172   173    1
    36   185   184    1
    37    43    41   ar
    38    43    45   ar
    39   184   183    1
    40   184   187    1
    41    32    33    1
    42    41    42   ar
    43   165   164   ar
    44   189   191   ar
    45   189   188   ar
    46   162   164   ar
    47   191   192   ar
    48    45    44   ar
    49   187   188    1
    50   173   174    1
    51   188   190   ar
    52    33    34   ar
    53    33    35   ar
    54    42    44   ar
    55   192   190   ar
    56    62    63   ar
    57    62    60   ar
    58    46    47    1
    59    63    61   ar
    60    60    58   ar
    61    47    50    1
    62    47    48    1
    63    61    59   ar
    64    50    51    1
    65    50    52    1
    66    58    59   ar
    67    58    57    1
    68    48    49    2
    69    48    53   am
    70    57    54    1
    71    53    54    1
    72    22    21    2
    73    54    55    1
    74    21    20    1
    75    56    55    2
    76    55    64   am
    77    20    19    1
    78    20    23    1
    79   145   144    1
    80   145   146    1
    81   145   148    1
    82   146   147    2
    83    78    77   ar
    84    78    76   ar
    85    77    75   ar
    86    64    65    1
    87     8     6    1
    88    23    24    1
    89    76    74   ar
    90   140   139    2
    91    75    73   ar
    92   149   150    1
    93     5     6    1
    94     5     2    1
    95    65    66    1
    96    18    16   ar
    97    18    17   ar
    98    24    25    1
    99     6     7    1
   100    16    14   ar
   101     1     2    1
   102   139   138    1
   103    74    73   ar
   104   152   151    2
   105   151   150    1
   106    66    67    2
   107    66    68   am
   108    73    72    1
   109   150   153    1
   110     2     3    1
   111    17    15   ar
   112   134   133    2
   113    68    69    1
   114   138   141    1
   115   138   137    1
   116    14    15   ar
   117    14    13    1
   118    25    26    1
   119     9     3   am
   120     9    10    1
   121     3     4    2
   122    72    69    1
   123   141   142    1
   124   141   143    1
   125   153   155    1
   126   153   154    1
   127   133   137   am
   128   133   132    1
   129    94    92   ar
   130    69    70    1
   131   136   135    1
   132    13    10    1
   133   131   132    1
   134   131   129   am
   135    10    11    1
   136   128   129    1
   137   128   127    1
   138    92    93   ar
   139    92    91    1
   140   132   135    1
   141   102   100    1
   142    70    71    2
   143    70    79   am
   144   129   130    2
   145    91    88    1
   146   109   108    1
   147    11    12    2
   148   100    99    1
   149    79    80    1
   150   126   123    1
   151   123   122    1
   152   123   124    1
   153   110   108    1
   154   108   107    1
   155    88    87    1
   156    88    89    1
   157   124   125    2
   158    99    96    1
   159    99   101    1
   160    95    89   am
   161    95    96    1
   162    80    83    1
   163    80    81    1
   164    89    90    2
   165    96    97    1
   166    86    85    1
   167   107   104    1
   168    83    84    1
   169    81    82    2
   170   120   119    1
   171    85    84    1
   172    97    98    2
   173   104   103    1
   174   104   105    1
   175   118   119    2
   176   118   117    1
   177   119   121    1
   178   105   106    2
   179   105   111   am
   180   117   116    1
   181   111   112    1
   182   116   115    1
   183   112   115    1
   184   112   113    1
   185   113   114    2
