@<TRIPOS>MOLECULE
tmp/4j3eA00.pdb
 154 150 0 0 0
SMALL
GASTEIGER

@<TRIPOS>ATOM
      1  N         12.8330   24.1440   28.1120 N.3    31  LEU31      -0.1231
      2  CA        11.9660   23.9890   29.2720 C.3    31  LEU31       0.1693
      3  C         11.5640   25.3350   29.8630 C.2    31  LEU31       0.2592
      4  O         10.4060   25.5360   30.2190 O.2    31  LEU31      -0.2718
      5  CB        12.6640   23.1430   30.3410 C.3    31  LEU31       0.0284
      6  CG        12.9110   21.6880   29.9440 C.3    31  LEU31       0.0019
      7  CD1       13.9880   21.0790   30.8260 C.3    31  LEU31       0.0001
      8  CD2       11.6030   20.9120   30.0460 C.3    31  LEU31       0.0001
      9  N         12.5140   26.2600   29.9640 N.am   32  TYR32      -0.1976
     10  CA        12.2080   27.5590   30.5550 C.3    32  TYR32       0.1639
     11  C         11.1220   28.2840   29.7690 C.2    32  TYR32       0.2290
     12  O         10.1450   28.7590   30.3450 O.2    32  TYR32      -0.2864
     13  CB        13.4510   28.4510   30.6150 C.3    32  TYR32       0.0560
     14  CG        13.1250   29.8550   31.0650 C.ar   32  TYR32      -0.0198
     15  CD1       12.9150   30.1410   32.4110 C.ar   32  TYR32      -0.0009
     16  CD2       12.9820   30.8890   30.1440 C.ar   32  TYR32      -0.0009
     17  CE1       12.5680   31.4130   32.8250 C.ar   32  TYR32       0.0417
     18  CE2       12.6320   32.1680   30.5520 C.ar   32  TYR32       0.0417
     19  CZ        12.4260   32.4220   31.8920 C.ar   32  TYR32       0.1957
     20  OH        12.0710   33.6850   32.3060 O.3    32  TYR32      -0.2866
     21  N          9.0210   27.0340   27.6620 N.3    34  LEU34      -0.1231
     22  CA         7.7850   26.2690   27.6780 C.3    34  LEU34       0.1693
     23  C          7.0320   26.5620   28.9760 C.2    34  LEU34       0.2593
     24  O          5.8050   26.6920   28.9820 O.2    34  LEU34      -0.2718
     25  CB         8.0920   24.7740   27.5580 C.3    34  LEU34       0.0284
     26  CG         6.9160   23.8600   27.1950 C.3    34  LEU34       0.0019
     27  CD1        6.2470   24.3640   25.9280 C.3    34  LEU34       0.0001
     28  CD2        7.4120   22.4330   27.0040 C.3    34  LEU34       0.0001
     29  N          7.7750   26.6790   30.0730 N.am   35  GLY35      -0.1942
     30  CA         7.1600   27.0400   31.3370 C.3    35  GLY35       0.2014
     31  C          6.5640   28.4310   31.2790 C.2    35  GLY35       0.2638
     32  O          5.5030   28.6910   31.8440 O.2    35  GLY35      -0.2714
     33  N          7.2450   29.3320   30.5820 N.am   36  GLN36      -0.1977
     34  CA         6.7610   30.6980   30.4380 C.3    36  GLN36       0.1601
     35  C          5.4840   30.7240   29.5970 C.2    36  GLN36       0.2287
     36  O          4.5550   31.4740   29.8950 O.2    36  GLN36      -0.2864
     37  CB         7.8390   31.5700   29.7890 C.3    36  GLN36       0.0394
     38  CG         9.0790   31.7480   30.6540 C.3    36  GLN36       0.0908
     39  CD         8.7970   32.5610   31.9050 C.2    36  GLN36       0.2608
     40  OE1        8.4130   33.7280   31.8260 O.2    36  GLN36      -0.2717
     41  NE2        8.9810   31.9450   33.0690 N.am   36  GLN36      -0.0878
     42  N          3.2680   28.2880   29.4230 N.3    38  ILE38      -0.1231
     43  CA         2.2210   27.7490   30.2820 C.3    38  ILE38       0.1692
     44  C          1.7050   28.7970   31.2680 C.2    38  ILE38       0.2591
     45  O          0.4950   28.9150   31.4790 O.2    38  ILE38      -0.2718
     46  CB         2.7440   26.5040   31.0370 C.3    38  ILE38       0.0266
     47  CG1        2.9880   25.3810   30.0220 C.3    38  ILE38       0.0019
     48  CG2        1.7530   26.0730   32.1290 C.3    38  ILE38       0.0020
     49  CD1        3.7420   24.1930   30.5640 C.3    38  ILE38       0.0001
     50  N          2.6120   29.5810   31.8460 N.am   39  MET39      -0.1979
     51  CA         2.2040   30.6730   32.7290 C.3    39  MET39       0.1605
     52  C          1.3880   31.7220   31.9730 C.2    39  MET39       0.2287
     53  O          0.3350   32.1660   32.4410 O.2    39  MET39      -0.2864
     54  CB         3.4310   31.3390   33.3640 C.3    39  MET39       0.0413
     55  CG         4.2070   30.4490   34.3270 C.3    39  MET39       0.0598
     56  SD         3.1540   29.6690   35.5740 S.3    39  MET39      -0.1393
     57  CE         2.7010   31.0850   36.5950 C.3    39  MET39       0.0692
     58  N         -1.9910   26.1990   33.9170 N.3    44  TYR44      -0.1241
     59  CA        -1.8280   25.4750   35.1680 C.3    44  TYR44       0.1605
     60  C         -3.1380   25.4280   35.9350 C.2    44  TYR44       0.2264
     61  O         -3.9960   26.3030   35.7950 O.2    44  TYR44      -0.2867
     62  CB        -0.7380   26.1140   36.0370 C.3    44  TYR44       0.0534
     63  CG        -0.9800   27.5590   36.3990 C.ar   44  TYR44      -0.0201
     64  CD1       -1.6500   27.9010   37.5660 C.ar   44  TYR44      -0.0009
     65  CD2       -0.5130   28.5840   35.5880 C.ar   44  TYR44      -0.0009
     66  CE1       -1.8460   29.2250   37.9160 C.ar   44  TYR44       0.0417
     67  CE2       -0.7010   29.9050   35.9270 C.ar   44  TYR44       0.0417
     68  CZ        -1.3670   30.2210   37.0880 C.ar   44  TYR44       0.1957
     69  OH        -1.5630   31.5380   37.4160 O.3    44  TYR44      -0.2866
     70  N         -1.2390   23.6570   41.4700 N.3    49  GLN49      -0.1231
     71  CA        -0.6070   24.4810   40.4460 C.3    49  GLN49       0.1698
     72  C          0.5430   23.8080   39.7020 C.2    49  GLN49       0.2592
     73  O          1.0630   24.3580   38.7270 O.2    49  GLN49      -0.2718
     74  CB        -0.1250   25.7930   41.0700 C.3    49  GLN49       0.0381
     75  CG        -1.2460   26.6100   41.6950 C.3    49  GLN49       0.0905
     76  CD        -0.7410   27.8580   42.3870 C.2    49  GLN49       0.2608
     77  OE1        0.4570   28.0080   42.6230 O.2    49  GLN49      -0.2717
     78  NE2       -1.6550   28.7630   42.7150 N.am   49  GLN49      -0.0878
     79  N          0.9380   22.6210   40.1520 N.am   50  HIS50      -0.1976
     80  CA         1.9200   21.8280   39.4200 C.3    50  HIS50       0.1656
     81  C          1.2820   21.0610   38.2580 C.2    50  HIS50       0.2291
     82  O          1.9840   20.5080   37.4130 O.2    50  HIS50      -0.2864
     83  CB         2.6190   20.8430   40.3630 C.3    50  HIS50       0.0771
     84  CG         1.6780   19.9340   41.0900 C.ar   50  HIS50       0.0820
     85  ND1        1.3950   18.6560   40.6580 N.ar   50  HIS50      -0.2267
     86  CD2        0.9510   20.1210   42.2170 C.ar   50  HIS50       0.1154
     87  CE1        0.5340   18.0940   41.4880 C.ar   50  HIS50       0.1986
     88  NE2        0.2490   18.9610   42.4420 N.ar   50  HIS50      -0.2212
     89  N         -0.7340   20.7870   34.7530 N.3    52  VAL52      -0.1245
     90  CA        -0.9100   21.5830   33.5400 C.3    52  VAL52       0.1561
     91  C         -2.0190   21.0070   32.6620 C.2    52  VAL52       0.2260
     92  O         -1.9820   19.8270   32.3020 O.2    52  VAL52      -0.2867
     93  CB         0.3910   21.6330   32.7020 C.3    52  VAL52       0.0252
     94  CG1        0.1590   22.4330   31.4200 C.3    52  VAL52       0.0019
     95  CG2        1.5120   22.2630   33.5170 C.3    52  VAL52       0.0019
     96  N          2.1990   17.8160   22.6040 N.3    63  PHE63      -0.1241
     97  CA         2.6470   16.7570   23.5000 C.3    63  PHE63       0.1605
     98  C          1.9090   15.4560   23.2340 C.2    63  PHE63       0.2264
     99  O          2.5090   14.3840   23.2370 O.2    63  PHE63      -0.2867
    100  CB         2.4390   17.1710   24.9600 C.3    63  PHE63       0.0534
    101  CG         3.5290   18.0530   25.5020 C.ar   63  PHE63      -0.0203
    102  CD1        4.7260   18.2020   24.8150 C.ar   63  PHE63      -0.0042
    103  CD2        3.3670   18.7130   26.7110 C.ar   63  PHE63      -0.0042
    104  CE1        5.7480   18.9890   25.3260 C.ar   63  PHE63      -0.0003
    105  CE2        4.3820   19.5020   27.2280 C.ar   63  PHE63      -0.0003
    106  CZ         5.5750   19.6390   26.5330 C.ar   63  PHE63      -0.0000
    107  N         -0.5410   16.9690   32.3960 N.3    68  PHE68      -0.1241
    108  CA         0.6910   16.4790   32.9970 C.3    68  PHE68       0.1605
    109  C          1.0820   17.3610   34.1770 C.2    68  PHE68       0.2264
    110  O          0.6680   18.5180   34.2640 O.2    68  PHE68      -0.2867
    111  CB         1.8240   16.4420   31.9580 C.3    68  PHE68       0.0534
    112  CG         2.2620   17.8000   31.4690 C.ar   68  PHE68      -0.0203
    113  CD1        3.3390   18.4470   32.0520 C.ar   68  PHE68      -0.0042
    114  CD2        1.6130   18.4130   30.4080 C.ar   68  PHE68      -0.0042
    115  CE1        3.7640   19.6800   31.5860 C.ar   68  PHE68      -0.0003
    116  CE2        2.0300   19.6430   29.9360 C.ar   68  PHE68      -0.0003
    117  CZ         3.1090   20.2780   30.5260 C.ar   68  PHE68      -0.0000
    118  N          4.2010   19.1510   36.3770 N.3    70  VAL70      -0.1245
    119  CA         5.5800   19.6030   36.2050 C.3    70  VAL70       0.1561
    120  C          6.5400   18.7860   37.0660 C.2    70  VAL70       0.2260
    121  O          7.7470   19.0160   37.0430 O.2    70  VAL70      -0.2867
    122  CB         5.7580   21.1050   36.5660 C.3    70  VAL70       0.0252
    123  CG1        4.8320   21.9640   35.7110 C.3    70  VAL70       0.0019
    124  CG2        5.5040   21.3260   38.0470 C.3    70  VAL70       0.0019
    125  N          9.2670   14.9000   35.1880 N.3    73  HIS73      -0.1241
    126  CA        10.3310   15.4420   34.3510 C.3    73  HIS73       0.1621
    127  C         10.7250   14.5040   33.2100 C.2    73  HIS73       0.2264
    128  O         11.0500   14.9610   32.1150 O.2    73  HIS73      -0.2867
    129  CB        11.5560   15.7890   35.2090 C.3    73  HIS73       0.0745
    130  CG        11.3550   16.9900   36.0850 C.ar   73  HIS73       0.0817
    131  ND1       12.4000   17.7510   36.5620 N.ar   73  HIS73      -0.2268
    132  CD2       10.2240   17.5820   36.5370 C.ar   73  HIS73       0.1154
    133  CE1       11.9220   18.7620   37.2670 C.ar   73  HIS73       0.1986
    134  NE2       10.6040   18.6820   37.2670 N.ar   73  HIS73      -0.2212
    135  N          8.0530   14.8340   30.5540 N.3    76  ILE76      -0.1231
    136  CA         8.1730   16.1090   29.8560 C.3    76  ILE76       0.1692
    137  C          9.3550   16.1080   28.8910 C.2    76  ILE76       0.2592
    138  O          9.2540   16.6060   27.7630 O.2    76  ILE76      -0.2718
    139  CB         8.3220   17.2680   30.8660 C.3    76  ILE76       0.0266
    140  CG1        7.0010   17.4470   31.6260 C.3    76  ILE76       0.0019
    141  CG2        8.7430   18.5420   30.1470 C.3    76  ILE76       0.0020
    142  CD1        7.0900   18.3550   32.8460 C.3    76  ILE76       0.0001
    143  N         10.4740   15.5440   29.3300 N.am   77  TYR77      -0.1976
    144  CA        11.6340   15.4080   28.4570 C.3    77  TYR77       0.1639
    145  C         11.3100   14.5450   27.2460 C.2    77  TYR77       0.2290
    146  O         11.7580   14.8280   26.1330 O.2    77  TYR77      -0.2864
    147  CB        12.8080   14.7960   29.2210 C.3    77  TYR77       0.0560
    148  CG        13.7830   15.8160   29.7500 C.ar   77  TYR77      -0.0198
    149  CD1       15.0250   15.9870   29.1550 C.ar   77  TYR77      -0.0009
    150  CD2       13.4600   16.6180   30.8370 C.ar   77  TYR77      -0.0009
    151  CE1       15.9230   16.9330   29.6270 C.ar   77  TYR77       0.0417
    152  CE2       14.3530   17.5680   31.3170 C.ar   77  TYR77       0.0417
    153  CZ        15.5800   17.7190   30.7050 C.ar   77  TYR77       0.1957
    154  OH        16.4670   18.6630   31.1730 O.3    77  TYR77      -0.2866
@<TRIPOS>BOND
     1    96    97    1
     2    98    99    2
     3    98    97    1
     4    97   100    1
     5   102   104   ar
     6   102   101   ar
     7   100   101    1
     8   104   106   ar
     9   101   103   ar
    10    27    26    1
    11   146   145    2
    12   106   105   ar
    13   103   105   ar
    14    28    26    1
    15    26    25    1
    16   145   144    1
    17    25    22    1
    18    21    22    1
    19    22    23    1
    20   138   137    2
    21     1     2    1
    22   144   147    1
    23   144   143    1
    24   137   143   am
    25   137   136    1
    26    23    24    2
    27    23    29   am
    28   149   151   ar
    29   149   148   ar
    30   147   148    1
    31     2     3    1
    32     2     5    1
    33    42    43    1
    34    35    36    2
    35    35    34    1
    36   151   153   ar
    37   148   150   ar
    38    11    12    2
    39    11    10    1
    40    37    34    1
    41    37    38    1
    42   136   135    1
    43   136   139    1
    44     3     9   am
    45     3     4    2
    46   116   114   ar
    47   116   117   ar
    48     6     8    1
    49     6     5    1
    50     6     7    1
    51     9    10    1
    52    47    49    1
    53    47    46    1
    54    29    30    1
    55    16    18   ar
    56    16    14   ar
    57   141   139    1
    58    43    46    1
    59    43    44    1
    60   114   112   ar
    61    34    33    1
    62   117   115   ar
    63    18    19   ar
    64    10    13    1
    65    33    31   am
    66    13    14    1
    67    38    39    1
    68   153   154    1
    69   153   152   ar
    70   150   152   ar
    71   139   140    1
    72    46    48    1
    73    14    15   ar
    74    44    45    2
    75    44    50   am
    76    31    30    1
    77    31    32    2
    78    94    93    1
    79   112   111    1
    80   112   113   ar
    81   115   113   ar
    82   140   142    1
    83    40    39    2
    84    50    51    1
    85    19    20    1
    86    19    17   ar
    87    39    41   am
    88   111   108    1
    89    52    53    2
    90    52    51    1
    91   128   127    2
    92    92    91    2
    93   107   108    1
    94    15    17   ar
    95    91    90    1
    96    93    95    1
    97    93    90    1
    98    51    54    1
    99   108   109    1
   100   127   126    1
   101    54    55    1
   102    90    89    1
   103    58    59    1
   104   109   110    2
   105    55    56    1
   106   126   125    1
   107   126   129    1
   108    59    60    1
   109    59    62    1
   110   129   130    1
   111    56    57    1
   112    65    67   ar
   113    65    63   ar
   114   123   122    1
   115    61    60    2
   116    67    68   ar
   117    62    63    1
   118   130   132   ar
   119   130   131   ar
   120   119   118    1
   121   119   122    1
   122   119   120    1
   123    63    64   ar
   124   132   134   ar
   125   131   133   ar
   126   122   124    1
   127   121   120    2
   128    68    69    1
   129    68    66   ar
   130   133   134   ar
   131    82    81    2
   132    64    66   ar
   133    81    80    1
   134    73    72    2
   135    80    79    1
   136    80    83    1
   137    72    79   am
   138    72    71    1
   139    83    84    1
   140    71    74    1
   141    71    70    1
   142    85    84   ar
   143    85    87   ar
   144    74    75    1
   145    84    86   ar
   146    87    88   ar
   147    75    76    1
   148    86    88   ar
   149    76    77    2
   150    76    78   am
