@<TRIPOS>MOLECULE
tmp/4j3fD00.pdb
 147 142 0 0 0
SMALL
GASTEIGER

@<TRIPOS>ATOM
      1  N         43.1890   -8.4970   13.6280 N.3    91  ALA91      -0.1231
      2  CA        42.0350   -9.3510   13.3690 C.3    91  ALA91       0.1694
      3  C         42.4390  -10.4570   12.4380 C.2    91  ALA91       0.2592
      4  O         43.3540  -10.2720   11.6070 O.2    91  ALA91      -0.2718
      5  CB        40.9030   -8.5440   12.7650 C.3    91  ALA91       0.0304
      6  N         41.7640  -11.5970   12.5740 N.am   92  PHE92      -0.1962
      7  CA        41.9130  -12.6840   11.6320 C.3    92  PHE92       0.1771
      8  C         40.6910  -13.5960   11.6700 C.2    92  PHE92       0.2619
      9  O         40.1560  -13.8990   12.7410 O.2    92  PHE92      -0.2715
     10  CB        43.1480  -13.5550   11.9410 C.3    92  PHE92       0.0574
     11  CG        43.3220  -14.6960   10.9540 C.ar   92  PHE92      -0.0200
     12  CD1       43.8150  -14.4470    9.6760 C.ar   92  PHE92      -0.0042
     13  CD2       42.8970  -15.9900   11.2700 C.ar   92  PHE92      -0.0042
     14  CE1       43.9290  -15.4790    8.7450 C.ar   92  PHE92      -0.0003
     15  CE2       43.0220  -17.0270   10.3510 C.ar   92  PHE92      -0.0003
     16  CZ        43.5240  -16.7680    9.0850 C.ar   92  PHE92      -0.0000
     17  N         40.2810  -14.0390   10.4870 N.am   93  ALA93      -0.1977
     18  CA        39.4220  -15.2130   10.3460 C.3    93  ALA93       0.1597
     19  C         39.8770  -15.9460    9.0720 C.2    93  ALA93       0.2287
     20  O         40.4130  -15.3150    8.1690 O.2    93  ALA93      -0.2864
     21  CB        37.9460  -14.7950   10.2450 C.3    93  ALA93       0.0319
     22  N         34.5770  -15.6570    5.3090 N.3    98  LEU98      -0.1245
     23  CA        34.1880  -14.3760    4.7580 C.3    98  LEU98       0.1561
     24  C         33.5690  -14.7110    3.4220 C.2    98  LEU98       0.2260
     25  O         33.8060  -15.7820    2.8840 O.2    98  LEU98      -0.2867
     26  CB        35.4090  -13.4560    4.6430 C.3    98  LEU98       0.0270
     27  CG        36.1530  -13.2720    5.9810 C.3    98  LEU98       0.0019
     28  CD1       37.5850  -12.8000    5.8160 C.3    98  LEU98       0.0001
     29  CD2       35.3920  -12.3670    6.9280 C.3    98  LEU98       0.0001
     30  N         34.5080   -2.7990   13.8640 N.3   145  TYR145     -0.1241
     31  CA        33.7950   -2.4690   12.6330 C.3   145  TYR145      0.1605
     32  C         32.2910   -2.6430   12.8480 C.2   145  TYR145      0.2264
     33  O         31.8730   -3.5370   13.5860 O.2   145  TYR145     -0.2867
     34  CB        34.3190   -3.3460   11.4710 C.3   145  TYR145      0.0534
     35  CG        33.6000   -3.0570   10.1760 C.ar  145  TYR145     -0.0201
     36  CD1       33.6830   -1.7950    9.5910 C.ar  145  TYR145     -0.0009
     37  CD2       32.8050   -4.0300    9.5530 C.ar  145  TYR145     -0.0009
     38  CE1       32.9970   -1.4970    8.4170 C.ar  145  TYR145      0.0417
     39  CE2       32.1120   -3.7370    8.3820 C.ar  145  TYR145      0.0417
     40  CZ        32.2220   -2.4710    7.8240 C.ar  145  TYR145      0.1957
     41  OH        31.5500   -2.1420    6.6650 O.3   145  TYR145     -0.2866
     42  N         25.7880   -7.8740    7.8150 N.3   152  MET152     -0.1231
     43  CA        26.2640   -7.2840    6.5670 C.3   152  MET152      0.1687
     44  C         26.6500   -8.3940    5.5980 C.2   152  MET152      0.2434
     45  O         26.9670   -9.4920    6.0290 O.2   152  MET152     -0.2733
     46  CB        27.4860   -6.4210    6.8730 C.3   152  MET152      0.0400
     47  CG        27.1190   -5.2780    7.8120 C.3   152  MET152      0.0596
     48  SD        28.4120   -4.0800    8.0320 S.3   152  MET152     -0.1393
     49  CE        28.2960   -3.2510    6.4370 C.3   152  MET152      0.0692
     50  N         26.6780   -8.0990    4.2880 N.am  153  PRO153     -0.2718
     51  CA        27.1950   -9.1180    3.3710 C.3   153  PRO153      0.1535
     52  C         28.6740   -9.4010    3.6690 C.2   153  PRO153      0.2599
     53  O         29.4090   -8.4880    4.0960 O.2   153  PRO153     -0.2715
     54  CB        27.0510   -8.4550    1.9950 C.3   153  PRO153      0.0310
     55  CG        27.1420   -6.9650    2.2910 C.3   153  PRO153      0.0237
     56  CD        26.3700   -6.8340    3.5990 C.3   153  PRO153      0.0939
     57  N         29.0770  -10.6600    3.4950 N.am  154  SER154     -0.1936
     58  CA        30.5020  -11.0970    3.5000 C.3   154  SER154      0.2055
     59  C         31.2240  -11.1200    4.8420 C.2   154  SER154      0.2643
     60  O         32.0300  -12.0170    5.0930 O.2   154  SER154     -0.2714
     61  CB        31.3650  -10.2900    2.5140 C.3   154  SER154      0.2130
     62  OG        30.8060  -10.3500    1.2110 O.3   154  SER154     -0.2179
     63  N         30.9880  -10.1130    5.6700 N.am  155  TYR155     -0.1973
     64  CA        31.7620   -9.9640    6.9040 C.3   155  TYR155      0.1639
     65  C         31.5600  -11.1570    7.8370 C.2   155  TYR155      0.2290
     66  O         32.4820  -11.5730    8.5530 O.2   155  TYR155     -0.2864
     67  CB        31.4430   -8.6210    7.5820 C.3   155  TYR155      0.0560
     68  CG        32.5430   -8.1240    8.4980 C.ar  155  TYR155     -0.0198
     69  CD1       33.8450   -7.9160    8.0240 C.ar  155  TYR155     -0.0009
     70  CD2       32.2800   -7.8580    9.8520 C.ar  155  TYR155     -0.0009
     71  CE1       34.8410   -7.4460    8.8690 C.ar  155  TYR155      0.0417
     72  CE2       33.2730   -7.4050   10.7050 C.ar  155  TYR155      0.0417
     73  CZ        34.5470   -7.2060   10.2170 C.ar  155  TYR155      0.1957
     74  OH        35.5320   -6.7420   11.0440 O.3   155  TYR155     -0.2866
     75  N         33.5380  -12.7030   10.9380 N.3   158  MET158     -0.1245
     76  CA        34.2410  -11.5370   11.5250 C.3   158  MET158      0.1570
     77  C         33.2820  -10.5960   12.2500 C.2   158  MET158      0.2261
     78  O         33.6480   -9.9800   13.2610 O.2   158  MET158     -0.2867
     79  CB        35.0710  -10.7580   10.4860 C.3   158  MET158      0.0387
     80  CG        36.5140  -11.2730   10.2990 C.3   158  MET158      0.0595
     81  SD        37.4830  -11.5140   11.8300 S.3   158  MET158     -0.1393
     82  CE        37.2390   -9.9830   12.7020 C.3   158  MET158      0.0692
     83  N         33.7080   -9.4960   15.9990 N.3   162  LYS162     -0.1245
     84  CA        33.7410   -8.0740   16.4240 C.3   162  LYS162      0.1561
     85  C         32.7210   -7.7600   17.5090 C.2   162  LYS162      0.2260
     86  O         32.9880   -6.9230   18.3890 O.2   162  LYS162     -0.2867
     87  CB        33.5750   -7.1220   15.2350 C.3   162  LYS162      0.0271
     88  CG        34.8230   -7.0340   14.3420 C.3   162  LYS162      0.0035
     89  CD        36.1020   -6.5660   15.0610 C.3   162  LYS162      0.0206
     90  CE        37.1820   -6.2130   14.0070 C.3   162  LYS162      0.1093
     91  NZ        38.5510   -5.9300   14.5620 N.3   162  LYS162     -0.1314
     92  N         35.2980    1.5010    6.3440 N.3   190  PRO190     -0.2102
     93  CA        36.2040    0.7000    5.5260 C.3   190  PRO190      0.1504
     94  C         37.3770    1.5260    5.0100 C.2   190  PRO190      0.2575
     95  O         37.2110    2.7000    4.6480 O.2   190  PRO190     -0.2718
     96  CB        35.3250    0.2080    4.3740 C.3   190  PRO190      0.0282
     97  CG        34.1670    1.1430    4.3520 C.3   190  PRO190      0.0208
     98  CD        33.9460    1.5610    5.7820 C.3   190  PRO190      0.0893
     99  N         38.5510    0.9020    5.0150 N.am  191  ILE191     -0.1980
    100  CA        39.8050    1.5110    4.5470 C.3   191  ILE191      0.1595
    101  C         40.5510    0.4590    3.7370 C.2   191  ILE191      0.2287
    102  O         40.5920   -0.7060    4.1270 O.2   191  ILE191     -0.2864
    103  CB        40.6990    1.9700    5.7420 C.3   191  ILE191      0.0276
    104  CG1       39.9710    3.0480    6.5520 C.3   191  ILE191      0.0022
    105  CG2       42.0470    2.5070    5.2190 C.3   191  ILE191      0.0022
    106  CD1       40.6460    3.4420    7.8720 C.3   191  ILE191      0.0001
    107  N         44.1980   -6.1290    4.9780 N.3   195  ALA195     -0.1231
    108  CA        43.0520   -6.9580    5.3700 C.3   195  ALA195      0.1694
    109  C         41.9500   -6.8970    4.3250 C.2   195  ALA195      0.2591
    110  O         41.2430   -7.8770    4.0790 O.2   195  ALA195     -0.2718
    111  CB        42.5160   -6.5340    6.7240 C.3   195  ALA195      0.0304
    112  N         41.7890   -5.7340    3.7210 N.am  196  ALA196     -0.1980
    113  CA        40.7660   -5.5700    2.7030 C.3   196  ALA196      0.1597
    114  C         41.1530   -6.2400    1.3820 C.2   196  ALA196      0.2287
    115  O         40.2880   -6.5070    0.5460 O.2   196  ALA196     -0.2864
    116  CB        40.4690   -4.0890    2.5140 C.3   196  ALA196      0.0319
    117  N         42.0190   -9.2520    0.4450 N.3   198  GLY198     -0.1210
    118  CA        41.3910  -10.5150    0.1250 C.3   198  GLY198      0.1956
    119  C         39.8880  -10.4330   -0.1100 C.2   198  GLY198      0.2611
    120  O         39.2710  -11.4420   -0.4330 O.2   198  GLY198     -0.2717
    121  N         39.2990   -9.2440    0.0500 N.am  199  ILE199     -0.1979
    122  CA        37.8360   -9.0860   -0.0370 C.3   199  ILE199      0.1595
    123  C         37.4190   -8.6340   -1.4300 C.2   199  ILE199      0.2287
    124  O         37.7630   -7.5280   -1.8480 O.2   199  ILE199     -0.2864
    125  CB        37.3030   -8.0520    0.9880 C.3   199  ILE199      0.0276
    126  CG1       37.8060   -8.3530    2.4210 C.3   199  ILE199      0.0022
    127  CG2       35.7810   -7.9100    0.8980 C.3   199  ILE199      0.0022
    128  CD1       37.4140   -9.7120    3.0020 C.3   199  ILE199      0.0001
    129  N         35.6830   -4.9060   -2.6070 N.3   202  PHE202     -0.1241
    130  CA        35.9010   -3.9480   -1.5210 C.3   202  PHE202      0.1605
    131  C         35.7490   -2.4990   -1.9890 C.2   202  PHE202      0.2264
    132  O         35.1870   -1.6630   -1.2760 O.2   202  PHE202     -0.2867
    133  CB        37.2910   -4.1310   -0.8970 C.3   202  PHE202      0.0534
    134  CG        37.4630   -3.3750    0.3850 C.ar  202  PHE202     -0.0203
    135  CD1       36.8620   -3.8300    1.5500 C.ar  202  PHE202     -0.0042
    136  CD2       38.2010   -2.2060    0.4270 C.ar  202  PHE202     -0.0042
    137  CE1       37.0040   -3.1290    2.7480 C.ar  202  PHE202     -0.0003
    138  CE2       38.3490   -1.5110    1.6140 C.ar  202  PHE202     -0.0003
    139  CZ        37.7520   -1.9740    2.7770 C.ar  202  PHE202     -0.0000
    140  N         32.2530   -1.4170   -1.8840 N.3   205  MET205     -0.1245
    141  CA        31.8530   -1.1370   -0.4860 C.3   205  MET205      0.1570
    142  C         32.3150    0.2500   -0.0430 C.2   205  MET205      0.2261
    143  O         31.5570    0.9870    0.6100 O.2   205  MET205     -0.2867
    144  CB        32.4000   -2.1970    0.4600 C.3   205  MET205      0.0387
    145  CG        31.8280   -3.5880    0.2300 C.3   205  MET205      0.0595
    146  SD        32.6170   -4.7740    1.3620 S.3   205  MET205     -0.1393
    147  CE        31.9160   -6.3130    0.7590 C.3   205  MET205      0.0692
@<TRIPOS>BOND
     1   129   130    1
     2   131   130    1
     3   131   132    2
     4   140   141    1
     5   124   123    2
     6   130   133    1
     7   123   122    1
     8   133   134    1
     9   141   142    1
    10   141   144    1
    11   120   119    2
    12   119   121   am
    13   119   118    1
    14   142   143    2
    15   122   121    1
    16   122   125    1
    17   118   117    1
    18   145   144    1
    19   145   146    1
    20   134   136   ar
    21   134   135   ar
    22   136   138   ar
    23   115   114    2
    24   147   146    1
    25   127   125    1
    26   125   126    1
    27    62    61    1
    28   114   113    1
    29   135   137   ar
    30   138   139   ar
    31    54    55    1
    32    54    51    1
    33    55    56    1
    34   126   128    1
    35    61    58    1
    36   116   113    1
    37   113   112    1
    38   137   139   ar
    39    25    24    2
    40    51    52    1
    41    51    50    1
    42    24    23    1
    43    57    58    1
    44    57    52   am
    45    58    59    1
    46    56    50    1
    47    52    53    2
    48   112   109   am
    49   101   102    2
    50   101   100    1
    51   110   109    2
    52    50    44   am
    53   109   108    1
    54    97    96    1
    55    97    98    1
    56    96    93    1
    57   100    99    1
    58   100   103    1
    59    26    23    1
    60    26    27    1
    61    95    94    2
    62    23    22    1
    63    59    60    2
    64    59    63   am
    65   107   108    1
    66    94    99   am
    67    94    93    1
    68   105   103    1
    69   108   111    1
    70    93    92    1
    71    44    45    2
    72    44    43    1
    73    63    64    1
    74   103   104    1
    75    98    92    1
    76    28    27    1
    77    27    29    1
    78    49    48    1
    79   104   106    1
    80    43    46    1
    81    43    42    1
    82    41    40    1
    83    46    47    1
    84    64    67    1
    85    64    65    1
    86    67    68    1
    87    47    48    1
    88    40    39   ar
    89    40    38   ar
    90    65    66    2
    91    69    68   ar
    92    69    71   ar
    93    20    19    2
    94    39    37   ar
    95    38    36   ar
    96    68    70   ar
    97    14    16   ar
    98    14    12   ar
    99    71    73   ar
   100    19    18    1
   101    16    15   ar
   102    37    35   ar
   103    36    35   ar
   104    12    11   ar
   105    70    72   ar
   106    35    34    1
   107    73    72   ar
   108    73    74    1
   109    21    18    1
   110    80    79    1
   111    80    81    1
   112    18    17    1
   113    15    13   ar
   114    79    76    1
   115    17     8   am
   116    75    76    1
   117    11    13   ar
   118    11    10    1
   119    34    31    1
   120    76    77    1
   121     4     3    2
   122     7     8    1
   123     7    10    1
   124     7     6    1
   125     8     9    2
   126    81    82    1
   127    77    78    2
   128     3     6   am
   129     3     2    1
   130    31    32    1
   131    31    30    1
   132     5     2    1
   133    32    33    2
   134     2     1    1
   135    90    91    1
   136    90    89    1
   137    88    89    1
   138    88    87    1
   139    87    84    1
   140    83    84    1
   141    84    85    1
   142    85    86    2
