@<TRIPOS>MOLECULE
tmp/4j3jB00.pdb
 205 198 0 0 0
SMALL
GASTEIGER

@<TRIPOS>ATOM
      1  N        -16.6140   10.1000   15.7530 N.3    86  ARG86      -0.1245
      2  CA       -16.6320    8.8860   16.5760 C.3    86  ARG86       0.1563
      3  C        -18.0410    8.5070   17.0400 C.2    86  ARG86       0.2260
      4  O        -18.4720    7.3700   16.8530 O.2    86  ARG86      -0.2867
      5  CB       -15.6800    9.0100   17.7720 C.3    86  ARG86       0.0307
      6  CG       -15.2900    7.6690   18.3830 C.3    86  ARG86       0.0489
      7  CD       -14.5860    7.8330   19.7200 C.3    86  ARG86       0.2205
      8  NE       -13.1620    8.1460   19.5830 N.pl3  86  ARG86      -0.0865
      9  CZ       -12.1800    7.2500   19.6570 C.cat  86  ARG86       0.5346
     10  NH1      -12.4520    5.9670   19.8620 N.pl3  86  ARG86       0.1354
     11  NH2      -10.9170    7.6360   19.5270 N.pl3  86  ARG86       0.1354
     12  N        -15.1460   14.3090   21.2630 N.3   166  GLU166     -0.1231
     13  CA       -14.0820   13.3210   21.3810 C.3   166  GLU166      0.1699
     14  C        -13.4400   13.3080   22.7630 C.2   166  GLU166      0.2592
     15  O        -13.2290   12.2380   23.3380 O.2   166  GLU166     -0.2718
     16  CB       -13.0190   13.5650   20.3000 C.3   166  GLU166      0.0402
     17  CG       -11.7450   12.7350   20.4250 C.3   166  GLU166      0.1161
     18  CD       -11.9140   11.2800   20.0180 C.2   166  GLU166      0.3649
     19  OE1      -12.9500   10.9280   19.4100 O.co2 166  GLU166     -0.2457
     20  OE2      -10.9940   10.4850   20.3030 O.co2 166  GLU166     -0.2457
     21  N        -13.1440   14.4920   23.2950 N.am  167  GLU167     -0.1979
     22  CA       -12.2780   14.6010   24.4710 C.3   167  GLU167      0.1602
     23  C        -12.9700   14.9270   25.7980 C.2   167  GLU167      0.2287
     24  O        -12.3640   14.7780   26.8630 O.2   167  GLU167     -0.2864
     25  CB       -11.1450   15.6010   24.2070 C.3   167  GLU167      0.0415
     26  CG       -10.3040   15.3060   22.9690 C.3   167  GLU167      0.1163
     27  CD        -9.5150   14.0070   23.0550 C.2   167  GLU167      0.3649
     28  OE1       -9.3750   13.4370   24.1620 O.co2 167  GLU167     -0.2457
     29  OE2       -9.0210   13.5550   22.0030 O.co2 167  GLU167     -0.2457
     30  N        -17.6850   12.5090   25.3710 N.3   170  SER170     -0.1217
     31  CA       -17.6890   11.1690   24.7560 C.3   170  SER170      0.1889
     32  C        -19.0110   10.8290   24.0560 C.2   170  SER170      0.2288
     33  O        -19.4090    9.6630   23.9870 O.2   170  SER170     -0.2866
     34  CB       -17.3190   10.0900   25.7810 C.3   170  SER170      0.2089
     35  OG       -16.0320   10.3240   26.3210 O.3   170  SER170     -0.2183
     36  N         -9.8160   10.8490   35.9630 N.3   317  ARG317     -0.1231
     37  CA        -9.1270    9.8710   35.1210 C.3   317  ARG317      0.1694
     38  C         -8.9280   10.4490   33.7190 C.2   317  ARG317      0.2592
     39  O         -7.7950   10.5750   33.2450 O.2   317  ARG317     -0.2718
     40  CB        -9.8960    8.5460   35.0730 C.3   317  ARG317      0.0321
     41  CG        -9.9040    7.7850   36.3910 C.3   317  ARG317      0.0489
     42  CD       -10.1860    6.3050   36.1830 C.3   317  ARG317      0.2205
     43  NE        -9.8880    5.5120   37.3770 N.pl3 317  ARG317     -0.0865
     44  CZ       -10.8040    4.9250   38.1440 C.cat 317  ARG317      0.5346
     45  NH1      -12.0950    5.0230   37.8490 N.pl3 317  ARG317      0.1354
     46  NH2      -10.4280    4.2280   39.2080 N.pl3 317  ARG317      0.1354
     47  N        -10.0350   10.8000   33.0690 N.am  318  PHE318     -0.1962
     48  CA       -10.0020   11.5700   31.8270 C.3   318  PHE318      0.1771
     49  C        -10.7310   12.8980   32.0080 C.2   318  PHE318      0.2619
     50  O        -10.4810   13.8570   31.2800 O.2   318  PHE318     -0.2715
     51  CB       -10.5860   10.7640   30.6650 C.3   318  PHE318      0.0574
     52  CG        -9.7130    9.6220   30.2300 C.ar  318  PHE318     -0.0200
     53  CD1       -8.5860    9.8500   29.4440 C.ar  318  PHE318     -0.0042
     54  CD2      -10.0060    8.3190   30.6140 C.ar  318  PHE318     -0.0042
     55  CE1       -7.7710    8.8010   29.0480 C.ar  318  PHE318     -0.0003
     56  CE2       -9.1950    7.2650   30.2190 C.ar  318  PHE318     -0.0003
     57  CZ        -8.0780    7.5060   29.4350 C.ar  318  PHE318     -0.0000
     58  N        -11.6310   12.9330   32.9890 N.am  319  ARG319     -0.1977
     59  CA       -12.3110   14.1530   33.4250 C.3   319  ARG319      0.1597
     60  C        -12.8620   13.9530   34.8440 C.2   319  ARG319      0.2287
     61  O        -12.9540   12.8130   35.3100 O.2   319  ARG319     -0.2864
     62  CB       -13.4250   14.5490   32.4420 C.3   319  ARG319      0.0334
     63  CG       -14.6730   13.6820   32.4690 C.3   319  ARG319      0.0492
     64  CD       -15.7220   14.2670   31.5400 C.3   319  ARG319      0.2205
     65  NE       -17.0580   13.7270   31.7800 N.pl3 319  ARG319     -0.0865
     66  CZ       -17.6000   12.7210   31.1000 C.cat 319  ARG319      0.5346
     67  NH1      -16.9230   12.1250   30.1250 N.pl3 319  ARG319      0.1354
     68  NH2      -18.8240   12.3070   31.3960 N.pl3 319  ARG319      0.1354
     69  N        -14.2010    1.8640   40.2070 N.3   366  ILE366     -0.1245
     70  CA       -14.3120    2.1200   38.7700 C.3   366  ILE366      0.1561
     71  C        -15.4850    3.0510   38.4600 C.2   366  ILE366      0.2260
     72  O        -15.3250    4.0280   37.7250 O.2   366  ILE366     -0.2867
     73  CB       -14.4390    0.8050   37.9550 C.3   366  ILE366      0.0252
     74  CG1      -13.4070   -0.2400   38.4180 C.3   366  ILE366      0.0019
     75  CG2      -14.3430    1.0690   36.4550 C.3   366  ILE366      0.0019
     76  CD1      -11.9520    0.1550   38.2490 C.3   366  ILE366      0.0001
     77  N         -0.2960    0.0290   23.9270 N.3   508  TYR508     -0.1241
     78  CA        -1.0400    1.2860   23.9710 C.3   508  TYR508      0.1605
     79  C         -0.3400    2.2580   24.9210 C.2   508  TYR508      0.2264
     80  O          0.1600    3.2970   24.4880 O.2   508  TYR508     -0.2867
     81  CB        -2.5060    1.0810   24.3580 C.3   508  TYR508      0.0534
     82  CG        -3.3460    2.3260   24.1730 C.ar  508  TYR508     -0.0201
     83  CD1       -3.7470    2.7380   22.9000 C.ar  508  TYR508     -0.0009
     84  CD2       -3.7330    3.0990   25.2680 C.ar  508  TYR508     -0.0009
     85  CE1       -4.5120    3.8830   22.7250 C.ar  508  TYR508      0.0417
     86  CE2       -4.4990    4.2440   25.1050 C.ar  508  TYR508      0.0417
     87  CZ        -4.8850    4.6310   23.8330 C.ar  508  TYR508      0.1957
     88  OH        -5.6460    5.7660   23.6660 O.3   508  TYR508     -0.2866
     89  N         -3.8090    6.5150   31.8240 N.3   512  CYS512     -0.1235
     90  CA        -4.9680    5.7720   32.3360 C.3   512  CYS512      0.1677
     91  C         -5.4310    4.6360   31.4080 C.2   512  CYS512      0.2270
     92  O         -6.6290    4.3950   31.2430 O.2   512  CYS512     -0.2867
     93  CB        -6.1230    6.7170   32.6960 C.3   512  CYS512      0.0956
     94  SG        -7.3320    6.0130   33.8390 S.3   512  CYS512     -0.0801
     95  N         -6.0790    2.7920   37.1080 N.3   546  TYR546     -0.1241
     96  CA        -6.6820    1.8210   38.0350 C.3   546  TYR546      0.1605
     97  C         -5.6770    1.2420   39.0380 C.2   546  TYR546      0.2264
     98  O         -5.8790    0.1510   39.5790 O.2   546  TYR546     -0.2867
     99  CB        -7.4210    0.7090   37.2720 C.3   546  TYR546      0.0534
    100  CG        -8.3160    1.2160   36.1610 C.ar  546  TYR546     -0.0201
    101  CD1       -9.5100    1.8760   36.4470 C.ar  546  TYR546     -0.0009
    102  CD2       -7.9670    1.0360   34.8230 C.ar  546  TYR546     -0.0009
    103  CE1      -10.3320    2.3420   35.4340 C.ar  546  TYR546      0.0417
    104  CE2       -8.7830    1.5000   33.8030 C.ar  546  TYR546      0.0417
    105  CZ        -9.9630    2.1510   34.1140 C.ar  546  TYR546      0.1957
    106  OH       -10.7780    2.6160   33.1080 O.3   546  TYR546     -0.2866
    107  N         -3.0230    4.3300   17.3930 N.3   591  SER591     -0.1202
    108  CA        -3.3280    5.5900   18.0790 C.3   591  SER591      0.2020
    109  C         -2.1490    6.0500   18.9540 C.2   591  SER591      0.2618
    110  O         -1.0980    6.4320   18.4300 O.2   591  SER591     -0.2717
    111  CB        -4.6310    5.4540   18.8870 C.3   591  SER591      0.2103
    112  OG        -4.9810    6.6570   19.5440 O.3   591  SER591     -0.2182
    113  N         -2.3250    6.0010   20.2760 N.am  592  TYR592     -0.1975
    114  CA        -1.2620    6.3450   21.2210 C.3   592  TYR592      0.1639
    115  C         -0.1860    5.2690   21.1920 C.2   592  TYR592      0.2290
    116  O          1.0060    5.5670   21.2880 O.2   592  TYR592     -0.2864
    117  CB        -1.8250    6.4880   22.6410 C.3   592  TYR592      0.0560
    118  CG        -0.8980    7.1820   23.6270 C.ar  592  TYR592     -0.0198
    119  CD1        0.1550    6.4960   24.2320 C.ar  592  TYR592     -0.0009
    120  CD2       -1.0840    8.5220   23.9640 C.ar  592  TYR592     -0.0009
    121  CE1        1.0000    7.1260   25.1330 C.ar  592  TYR592      0.0417
    122  CE2       -0.2450    9.1580   24.8670 C.ar  592  TYR592      0.0417
    123  CZ         0.7950    8.4570   25.4470 C.ar  592  TYR592      0.1957
    124  OH         1.6320    9.0820   26.3420 O.3   592  TYR592     -0.2866
    125  N          0.6340    9.2950   16.7180 N.3   617  VAL617     -0.1245
    126  CA         1.0230   10.6660   17.0150 C.3   617  VAL617      0.1561
    127  C          2.5260   10.7490   16.7650 C.2   617  VAL617      0.2260
    128  O          3.2590    9.8080   17.0730 O.2   617  VAL617     -0.2867
    129  CB         0.7030   11.0300   18.4830 C.3   617  VAL617      0.0252
    130  CG1        1.2830   12.3860   18.8630 C.3   617  VAL617      0.0019
    131  CG2       -0.8000   11.0170   18.7170 C.3   617  VAL617      0.0019
    132  N          3.2980   16.2440   19.6950 N.3   620  TRP620     -0.1241
    133  CA         2.1350   16.5810   20.5160 C.3   620  TRP620      0.1605
    134  C          1.4690   17.9100   20.1730 C.2   620  TRP620      0.2264
    135  O          0.3200   18.1500   20.5480 O.2   620  TRP620     -0.2867
    136  CB         2.4680   16.4660   22.0020 C.3   620  TRP620      0.0550
    137  CG         2.5490   15.0420   22.4050 C.ar  620  TRP620      0.0003
    138  CD1        3.6660   14.3560   22.7790 C.ar  620  TRP620      0.0946
    139  CD2        1.4710   14.1000   22.4240 C.ar  620  TRP620      0.0152
    140  NE1        3.3460   13.0470   23.0530 N.ar  620  TRP620     -0.2442
    141  CE2        2.0050   12.8630   22.8420 C.ar  620  TRP620      0.0810
    142  CE3        0.1000   14.1840   22.1400 C.ar  620  TRP620      0.0012
    143  CZ2        1.2200   11.7180   22.9820 C.ar  620  TRP620      0.0191
    144  CZ3       -0.6810   13.0450   22.2790 C.ar  620  TRP620      0.0001
    145  CH2       -0.1180   11.8280   22.6960 C.ar  620  TRP620      0.0015
    146  N         -1.6770   17.1810   17.8810 N.3   623  TYR623     -0.1241
    147  CA        -2.9030   16.6290   18.4460 C.3   623  TYR623      0.1605
    148  C         -3.7080   17.6960   19.1910 C.2   623  TYR623      0.2264
    149  O         -3.1720   18.7520   19.5320 O.2   623  TYR623     -0.2867
    150  CB        -2.6170   15.4010   19.3240 C.3   623  TYR623      0.0534
    151  CG        -3.8460   14.5500   19.5390 C.ar  623  TYR623     -0.0201
    152  CD1       -4.5530   14.0300   18.4510 C.ar  623  TYR623     -0.0009
    153  CD2       -4.3190   14.2840   20.8200 C.ar  623  TYR623     -0.0009
    154  CE1       -5.6900   13.2650   18.6340 C.ar  623  TYR623      0.0417
    155  CE2       -5.4560   13.5150   21.0140 C.ar  623  TYR623      0.0417
    156  CZ        -6.1380   13.0110   19.9190 C.ar  623  TYR623      0.1957
    157  OH        -7.2710   12.2530   20.1140 O.3   623  TYR623     -0.2866
    158  N         -6.9640   17.0070   25.0480 N.3   627  TYR627     -0.1241
    159  CA        -6.2080   15.8050   25.4040 C.3   627  TYR627      0.1605
    160  C         -4.7610   16.1310   25.7580 C.2   627  TYR627      0.2264
    161  O         -4.3130   15.8470   26.8690 O.2   627  TYR627     -0.2867
    162  CB        -6.2480   14.7730   24.2750 C.3   627  TYR627      0.0534
    163  CG        -5.6380   13.4320   24.6380 C.ar  627  TYR627     -0.0201
    164  CD1       -4.3080   13.1370   24.3280 C.ar  627  TYR627     -0.0009
    165  CD2       -6.3930   12.4560   25.2910 C.ar  627  TYR627     -0.0009
    166  CE1       -3.7490   11.9100   24.6590 C.ar  627  TYR627      0.0417
    167  CE2       -5.8430   11.2270   25.6250 C.ar  627  TYR627      0.0417
    168  CZ        -4.5230   10.9590   25.3080 C.ar  627  TYR627      0.1957
    169  OH        -3.9840    9.7390   25.6410 O.3   627  TYR627     -0.2866
    170  N         -4.0930   18.3360   28.8700 N.3   630  ARG630     -0.1245
    171  CA        -4.4730   17.6550   30.1050 C.3   630  ARG630      0.1563
    172  C         -3.2500   17.0230   30.7530 C.2   630  ARG630      0.2260
    173  O         -3.1450   16.9710   31.9790 O.2   630  ARG630     -0.2867
    174  CB        -5.5190   16.5730   29.8310 C.3   630  ARG630      0.0307
    175  CG        -6.3400   16.1780   31.0490 C.3   630  ARG630      0.0489
    176  CD        -6.9500   14.7850   30.9430 C.3   630  ARG630      0.2205
    177  NE        -7.3830   14.4040   29.5950 N.pl3 630  ARG630     -0.0865
    178  CZ        -8.5410   14.7490   29.0320 C.cat 630  ARG630      0.5346
    179  NH1       -9.4090   15.5170   29.6800 N.pl3 630  ARG630      0.1354
    180  NH2       -8.8280   14.3340   27.8040 N.pl3 630  ARG630      0.1354
    181  N         -9.1540   12.5190   13.5000 N.3   671  ASN671     -0.1225
    182  CA        -8.6460   12.4660   14.8680 C.3   671  ASN671      0.1785
    183  C         -7.1370   12.7090   14.9410 C.2   671  ASN671      0.2597
    184  O         -6.6900   13.7260   15.4780 O.2   671  ASN671     -0.2718
    185  CB        -9.0220   11.1270   15.5110 C.3   671  ASN671      0.1169
    186  CG        -8.9560   11.1600   17.0250 C.2   671  ASN671      0.2627
    187  OD1       -8.2200   11.9500   17.6140 O.2   671  ASN671     -0.2716
    188  ND2       -9.7250   10.2890   17.6660 N.am  671  ASN671     -0.0877
    189  N         -6.3640   11.7680   14.4050 N.am  672  VAL672     -0.1980
    190  CA        -4.9190   11.9200   14.2760 C.3   672  VAL672      0.1595
    191  C         -4.6260   12.1160   12.7920 C.2   672  VAL672      0.2287
    192  O         -4.6290   11.1610   12.0190 O.2   672  VAL672     -0.2864
    193  CB        -4.1660   10.6950   14.8420 C.3   672  VAL672      0.0276
    194  CG1       -2.6600   10.8850   14.7440 C.3   672  VAL672      0.0022
    195  CG2       -4.5640   10.4530   16.2890 C.3   672  VAL672      0.0022
    196  N         -9.6750    7.1830   11.7090 N.3   701  HIS701     -0.1241
    197  CA        -8.7480    6.7220   12.7420 C.3   701  HIS701      0.1621
    198  C         -8.9680    5.2640   13.1390 C.2   701  HIS701      0.2264
    199  O         -8.1590    4.6810   13.8600 O.2   701  HIS701     -0.2867
    200  CB        -8.8240    7.6380   13.9680 C.3   701  HIS701      0.0745
    201  CG        -7.7170    7.4250   14.9510 C.ar  701  HIS701      0.0817
    202  ND1       -6.3870    7.5720   14.6190 N.ar  701  HIS701     -0.2268
    203  CD2       -7.7430    7.0780   16.2590 C.ar  701  HIS701      0.1154
    204  CE1       -5.6420    7.3170   15.6800 C.ar  701  HIS701      0.1986
    205  NE2       -6.4400    7.0190   16.6890 N.ar  701  HIS701     -0.2212
@<TRIPOS>BOND
     1   196   197    1
     2   192   191    2
     3   197   198    1
     4   197   200    1
     5   191   190    1
     6   198   199    2
     7   181   182    1
     8   200   201    1
     9   190   189    1
    10   190   193    1
    11   189   183   am
    12   202   201   ar
    13   202   204   ar
    14   194   193    1
    15   193   195    1
    16   182   183    1
    17   182   185    1
    18   183   184    2
    19   201   203   ar
    20   185   186    1
    21   204   205   ar
    22     1     2    1
    23   203   205   ar
    24     2     3    1
    25     2     5    1
    26   125   126    1
    27   127   126    1
    28   127   128    2
    29     4     3    2
    30   126   129    1
    31   186   187    2
    32   186   188   am
    33   107   108    1
    34     5     6    1
    35   146   147    1
    36   108   111    1
    37   108   109    1
    38     6     7    1
    39   110   109    2
    40   147   148    1
    41   147   150    1
    42   152   154   ar
    43   152   151   ar
    44   129   131    1
    45   129   130    1
    46   154   156   ar
    47   111   112    1
    48   109   113   am
    49   148   149    2
    50   150   151    1
    51    19    18   ar
    52    11     9    1
    53   151   153   ar
    54     8     9    2
    55     8     7    1
    56     9    10    1
    57   132   133    1
    58   156   157    1
    59   156   155   ar
    60    18    20   ar
    61    18    17    1
    62   134   133    1
    63   134   135    2
    64   113   114    1
    65    16    17    1
    66    16    13    1
    67   133   136    1
    68   153   155   ar
    69   115   114    1
    70   115   116    2
    71   114   117    1
    72    12    13    1
    73    13    14    1
    74   136   137    1
    75    29    27   ar
    76   142   144   ar
    77   142   139   ar
    78   144   145   ar
    79   137   139   ar
    80   137   138   ar
    81   139   141   ar
    82   117   118    1
    83   145   143   ar
    84    85    83   ar
    85    85    87   ar
    86    14    21   am
    87    14    15    2
    88   138   140   ar
    89   141   143   ar
    90   141   140   ar
    91    83    82   ar
    92    26    27    1
    93    26    25    1
    94    27    28   ar
    95    21    22    1
    96   118   120   ar
    97   118   119   ar
    98    88    87    1
    99    87    86   ar
   100    77    78    1
   101   120   122   ar
   102    78    81    1
   103    78    79    1
   104    33    32    2
   105    32    31    1
   106    82    81    1
   107    82    84   ar
   108    25    22    1
   109   119   121   ar
   110   162   163    1
   111   162   159    1
   112   164   163   ar
   113   164   166   ar
   114    22    23    1
   115    80    79    2
   116   163   165   ar
   117   166   168   ar
   118    31    30    1
   119    31    34    1
   120   122   123   ar
   121   158   159    1
   122    86    84   ar
   123   121   123   ar
   124   165   167   ar
   125   168   167   ar
   126   168   169    1
   127   159   160    1
   128   123   124    1
   129   160   161    2
   130    34    35    1
   131    23    24    2
   132   180   178    1
   133   170   171    1
   134   178   177    2
   135   178   179    1
   136    55    57   ar
   137    55    53   ar
   138    57    56   ar
   139    53    52   ar
   140   177   176    1
   141   174   171    1
   142   174   175    1
   143   171   172    1
   144    67    66    1
   145    56    54   ar
   146    52    54   ar
   147    52    51    1
   148    51    48    1
   149   172   173    2
   150   176   175    1
   151    66    68    1
   152    66    65    2
   153    92    91    2
   154    50    49    2
   155    91    90    1
   156    64    65    1
   157    64    63    1
   158    89    90    1
   159    48    49    1
   160    48    47    1
   161    49    58   am
   162    90    93    1
   163    62    63    1
   164    62    59    1
   165    93    94    1
   166    58    59    1
   167    47    38   am
   168   106   105    1
   169    39    38    2
   170    59    60    1
   171    38    37    1
   172   104   105   ar
   173   104   102   ar
   174   105   103   ar
   175   102   100   ar
   176    60    61    2
   177    40    37    1
   178    40    41    1
   179    37    36    1
   180   103   101   ar
   181   100   101   ar
   182   100    99    1
   183    42    41    1
   184    42    43    1
   185    75    73    1
   186    95    96    1
   187    99    96    1
   188    43    44    2
   189    72    71    2
   190    45    44    1
   191    73    74    1
   192    73    70    1
   193    96    97    1
   194    44    46    1
   195    76    74    1
   196    71    70    1
   197    70    69    1
   198    97    98    2
