@<TRIPOS>MOLECULE
tmp/4j3kA00.pdb
 70 69 0 0 0
SMALL
GASTEIGER

@<TRIPOS>ATOM
      1  N         47.6630   -4.3870    5.4870 N.3    31  VAL31      -0.1231
      2  CA        48.6030   -4.8620    4.4800 C.3    31  VAL31       0.1678
      3  C         49.8730   -4.0330    4.5970 C.2    31  VAL31       0.2434
      4  O         49.8500   -2.7970    4.4750 O.2    31  VAL31      -0.2733
      5  CB        47.9870   -4.8370    3.0450 C.3    31  VAL31       0.0265
      6  CG1       49.0110   -5.3650    2.0240 C.3    31  VAL31       0.0020
      7  CG2       46.7080   -5.6630    2.9970 C.3    31  VAL31       0.0020
      8  N         51.0090   -4.6890    4.8840 N.am   32  PRO32      -0.2718
      9  CA        52.2680   -3.9320    5.0270 C.3    32  PRO32       0.1535
     10  C         52.6510   -3.2410    3.7220 C.2    32  PRO32       0.2598
     11  O         52.2610   -3.6660    2.6380 O.2    32  PRO32      -0.2715
     12  CB        53.3090   -5.0010    5.4020 C.3    32  PRO32       0.0310
     13  CG        52.5290   -6.2490    5.6990 C.3    32  PRO32       0.0237
     14  CD        51.2100   -6.1470    4.9900 C.3    32  PRO32       0.0939
     15  N         53.4520   -2.1980    3.8530 N.am   33  ILE33      -0.1964
     16  CA        53.8470   -1.3680    2.7200 C.3    33  ILE33       0.1727
     17  C         55.1020   -1.8980    2.0630 C.2    33  ILE33       0.2616
     18  O         56.1140   -2.1440    2.7150 O.2    33  ILE33      -0.2715
     19  CB        54.0880    0.1060    3.1640 C.3    33  ILE33       0.0290
     20  CG1       52.7920    0.7910    3.6080 C.3    33  ILE33       0.0022
     21  CG2       54.6330    0.9710    1.9650 C.3    33  ILE33       0.0023
     22  CD1       51.9590    0.0000    4.5910 C.3    33  ILE33       0.0001
     23  N         54.9890   -2.0920    0.7550 N.am   34  ALA34      -0.1977
     24  CA        56.1120   -2.5580   -0.0670 C.3    34  ALA34       0.1597
     25  C         56.2600   -1.4460   -1.0980 C.2    34  ALA34       0.2287
     26  O         55.3310   -1.1810   -1.8640 O.2    34  ALA34      -0.2864
     27  CB        55.7620   -3.8920   -0.7540 C.3    34  ALA34       0.0319
     28  N         54.6040   -1.2520   -4.9570 N.3    37  VAL37      -0.1231
     29  CA        53.5430   -2.2160   -5.2540 C.3    37  VAL37       0.1678
     30  C         52.2130   -1.4590   -5.2790 C.2    37  VAL37       0.2434
     31  O         51.9030   -0.6960   -4.3710 O.2    37  VAL37      -0.2733
     32  CB        53.5180   -3.3530   -4.2080 C.3    37  VAL37       0.0265
     33  CG1       52.3230   -4.2590   -4.3710 C.3    37  VAL37       0.0020
     34  CG2       54.8170   -4.0850   -4.1290 C.3    37  VAL37       0.0020
     35  N         51.4220   -1.6510   -6.3430 N.am   38  PRO38      -0.2718
     36  CA        50.1320   -0.9650   -6.4730 C.3    38  PRO38       0.1535
     37  C         49.1710   -1.3930   -5.3800 C.2    38  PRO38       0.2598
     38  O         49.1800   -2.5500   -4.9530 O.2    38  PRO38      -0.2715
     39  CB        49.6320   -1.4380   -7.8480 C.3    38  PRO38       0.0310
     40  CG        50.8670   -1.8920   -8.5380 C.3    38  PRO38       0.0237
     41  CD        51.6250   -2.5820   -7.4610 C.3    38  PRO38       0.0939
     42  N         48.2950   -0.4720   -4.9990 N.am   39  ALA39      -0.1978
     43  CA        47.3120   -0.7210   -3.9480 C.3    39  ALA39       0.1597
     44  C         46.3640   -1.8360   -4.3410 C.2    39  ALA39       0.2287
     45  O         45.7830   -2.5020   -3.4920 O.2    39  ALA39      -0.2864
     46  CB        46.5360    0.5510   -3.6410 C.3    39  ALA39       0.0319
     47  N         47.3180   -5.0690   -2.7860 N.3    42  ALA42      -0.1245
     48  CA        47.4080   -5.1160   -1.3290 C.3    42  ALA42       0.1562
     49  C         46.3150   -6.0100   -0.7940 C.2    42  ALA42       0.2260
     50  O         45.2720   -5.5250   -0.3820 O.2    42  ALA42      -0.2867
     51  CB        47.3060   -3.6770   -0.7360 C.3    42  ALA42       0.0290
     52  N         51.0840  -12.5000    0.5410 N.3    69  TYR69      -0.1241
     53  CA        50.1710  -11.9700   -0.4600 C.3    69  TYR69       0.1605
     54  C         49.2030  -13.0750   -0.8630 C.2    69  TYR69       0.2264
     55  O         49.5530  -14.2710   -0.8510 O.2    69  TYR69      -0.2867
     56  CB        50.9650  -11.4980   -1.6640 C.3    69  TYR69       0.0534
     57  CG        51.6430  -10.1860   -1.4040 C.ar   69  TYR69      -0.0201
     58  CD1       50.9060   -8.9960   -1.4520 C.ar   69  TYR69      -0.0009
     59  CD2       53.0030  -10.1090   -1.1530 C.ar   69  TYR69      -0.0009
     60  CE1       51.5160   -7.7650   -1.2660 C.ar   69  TYR69       0.0417
     61  CE2       53.6290   -8.8700   -0.9610 C.ar   69  TYR69       0.0417
     62  CZ        52.8760   -7.7150   -1.0210 C.ar   69  TYR69       0.1957
     63  OH        53.5080   -6.5100   -0.8550 O.3    69  TYR69      -0.2866
     64  N         50.3390    2.2620    6.6350 N.3   119  PRO119     -0.2116
     65  CA        50.1160    3.6840    6.3650 C.3   119  PRO119      0.1372
     66  C         49.5470    4.4230    7.5730 C.2   119  PRO119      0.2244
     67  O         48.9600    3.7980    8.4790 O.2   119  PRO119     -0.2868
     68  CB        49.0330    3.6730    5.2700 C.3   119  PRO119      0.0268
     69  CG        48.9420    2.2550    4.7740 C.3   119  PRO119      0.0207
     70  CD        49.4480    1.3750    5.8720 C.3   119  PRO119      0.0892
@<TRIPOS>BOND
     1    40    39    1
     2    40    41    1
     3    39    36    1
     4    41    35    1
     5    36    35    1
     6    36    37    1
     7    35    30   am
     8    37    42   am
     9    37    38    2
    10    30    29    1
    11    30    31    2
    12    29    28    1
    13    29    32    1
    14    42    43    1
    15    33    32    1
    16    44    43    1
    17    44    45    2
    18    32    34    1
    19    43    46    1
    20    47    48    1
    21    26    25    2
    22    56    57    1
    23    56    53    1
    24    58    57   ar
    25    58    60   ar
    26    57    59   ar
    27    48    49    1
    28    48    51    1
    29    60    62   ar
    30    59    61   ar
    31    25    24    1
    32    62    61   ar
    33    62    63    1
    34    54    55    2
    35    54    53    1
    36    49    50    2
    37    27    24    1
    38    53    52    1
    39    24    23    1
    40    23    17   am
    41    21    19    1
    42     6     5    1
    43    17    18    2
    44    17    16    1
    45    11    10    2
    46    16    19    1
    47    16    15    1
    48     7     5    1
    49     5     2    1
    50    19    20    1
    51    20    22    1
    52    10    15   am
    53    10     9    1
    54     4     3    2
    55     2     3    1
    56     2     1    1
    57     3     8   am
    58    69    68    1
    59    69    70    1
    60     8    14    1
    61     8     9    1
    62    14    13    1
    63     9    12    1
    64    68    65    1
    65    12    13    1
    66    70    64    1
    67    65    64    1
    68    65    66    1
    69    66    67    2
