@<TRIPOS>MOLECULE
tmp/4j3lA00.pdb
 171 173 0 0 0
SMALL
GASTEIGER

@<TRIPOS>ATOM
      1  N         -1.7810  -10.2800  -20.5480 N.3    79  PHE79      -0.1227
      2  CA        -2.2840  -11.0800  -19.4550 C.3    79  PHE79       0.1736
      3  C         -1.6480  -10.7490  -18.1130 C.2    79  PHE79       0.2595
      4  O         -0.4050  -10.4100  -18.0060 O.2    79  PHE79      -0.2718
      5  CB        -2.0580  -12.5710  -19.8140 C.3    79  PHE79       0.0547
      6  CG        -2.7160  -12.9330  -21.0680 C.ar   79  PHE79      -0.0202
      7  CD1       -4.1340  -13.1420  -21.0770 C.ar   79  PHE79      -0.0042
      8  CD2       -1.9950  -12.9410  -22.2820 C.ar   79  PHE79      -0.0042
      9  CE1       -4.7740  -13.4140  -22.2450 C.ar   79  PHE79      -0.0003
     10  CE2       -2.6090  -13.2380  -23.4620 C.ar   79  PHE79      -0.0003
     11  CZ        -4.0160  -13.4770  -23.4780 C.ar   79  PHE79      -0.0000
     12  N         -2.4750  -10.8780  -17.0810 N.am   80  HIS80      -0.1961
     13  CA        -2.0510  -10.8190  -15.7260 C.3    80  HIS80       0.1787
     14  C         -2.7080  -11.9440  -14.9080 C.2    80  HIS80       0.2621
     15  O         -3.9520  -12.0120  -14.8330 O.2    80  HIS80      -0.2715
     16  CB        -2.3880   -9.4730  -15.0840 C.3    80  HIS80       0.0785
     17  CG        -1.8280   -9.3580  -13.6900 C.ar   80  HIS80       0.0821
     18  ND1       -0.4850   -9.1690  -13.4520 N.ar   80  HIS80      -0.2267
     19  CD2       -2.4150   -9.4530  -12.4670 C.ar   80  HIS80       0.1154
     20  CE1       -0.2690   -9.1310  -12.1460 C.ar   80  HIS80       0.1986
     21  NE2       -1.4200   -9.3210  -11.5290 N.ar   80  HIS80      -0.2212
     22  N         -1.9220  -12.7970  -14.2750 N.am   81  GLY81      -0.1940
     23  CA        -2.4620  -13.8400  -13.3490 C.3    81  GLY81       0.2014
     24  C         -1.9980  -13.5270  -11.9280 C.2    81  GLY81       0.2640
     25  O         -0.8390  -13.0940  -11.6940 O.2    81  GLY81      -0.2714
     26  N         -2.8660  -13.8160  -10.9720 N.am   82  SER82      -0.1936
     27  CA        -2.6200  -13.4980   -9.5860 C.3    82  SER82       0.2040
     28  C         -3.6790  -14.0670   -8.6590 C.2    82  SER82       0.2485
     29  O         -4.8630  -14.1350   -9.0480 O.2    82  SER82      -0.2729
     30  CB        -2.6950  -11.9590   -9.4910 C.3    82  SER82       0.2129
     31  OG        -2.5120  -11.5750   -8.1840 O.3    82  SER82      -0.2179
     32  N         -3.2980  -14.4020   -7.4130 N.am   83  PRO83      -0.2715
     33  CA        -4.3680  -14.7010   -6.4270 C.3    83  PRO83       0.1536
     34  C         -5.2920  -13.4930   -6.1040 C.2    83  PRO83       0.2598
     35  O         -6.3100  -13.6800   -5.4610 O.2    83  PRO83      -0.2715
     36  CB        -3.5850  -15.1050   -5.1450 C.3    83  PRO83       0.0310
     37  CG        -2.1190  -15.3890   -5.6530 C.3    83  PRO83       0.0237
     38  CD        -1.9420  -14.4240   -6.8010 C.3    83  PRO83       0.0939
     39  N         -4.9380  -12.2790   -6.5210 N.am   84  PHE84      -0.1974
     40  CA        -5.6440  -11.0730   -6.0820 C.3    84  PHE84       0.1639
     41  C         -6.5840  -10.5620   -7.1570 C.2    84  PHE84       0.2290
     42  O         -7.0180   -9.3910   -7.1400 O.2    84  PHE84      -0.2864
     43  CB        -4.6430   -9.9740   -5.7310 C.3    84  PHE84       0.0560
     44  CG        -3.4480  -10.4670   -4.9630 C.ar   84  PHE84      -0.0200
     45  CD1       -3.6080  -11.2050   -3.7860 C.ar   84  PHE84      -0.0042
     46  CD2       -2.1390  -10.1960   -5.4260 C.ar   84  PHE84      -0.0042
     47  CE1       -2.4920  -11.6800   -3.0720 C.ar   84  PHE84      -0.0003
     48  CE2       -0.9930  -10.6530   -4.6940 C.ar   84  PHE84      -0.0003
     49  CZ        -1.1720  -11.3900   -3.5250 C.ar   84  PHE84      -0.0000
     50  N          0.3790   -3.2260   -4.0610 N.3    96  ARG96      -0.1231
     51  CA         0.2610   -4.4920   -3.4180 C.3    96  ARG96       0.1694
     52  C          0.2120   -5.6070   -4.4130 C.2    96  ARG96       0.2592
     53  O          0.2140   -6.7680   -4.0150 O.2    96  ARG96      -0.2718
     54  CB        -0.9960   -4.5080   -2.5630 C.3    96  ARG96       0.0321
     55  CG        -0.8600   -3.5130   -1.4310 C.3    96  ARG96       0.0489
     56  CD        -1.8480   -3.8110   -0.3430 C.3    96  ARG96       0.2205
     57  NE        -1.4590   -4.9410    0.5150 N.pl3  96  ARG96      -0.0865
     58  CZ        -2.1880   -5.3860    1.5430 C.cat  96  ARG96       0.5346
     59  NH1       -1.7390   -6.4180    2.2500 N.pl3  96  ARG96       0.1354
     60  NH2       -3.3600   -4.8020    1.8610 N.pl3  96  ARG96       0.1354
     61  N          0.1000   -5.2490   -5.7010 N.am   97  HIS97      -0.1962
     62  CA         0.1330   -6.2520   -6.7810 C.3    97  HIS97       0.1787
     63  C          1.5360   -6.3420   -7.4230 C.2    97  HIS97       0.2620
     64  O          1.7510   -7.1150   -8.3670 O.2    97  HIS97      -0.2715
     65  CB        -1.0090   -6.0140   -7.7800 C.3    97  HIS97       0.0785
     66  CG        -2.3150   -5.8330   -7.0940 C.ar   97  HIS97       0.0821
     67  ND1       -3.0080   -4.6530   -7.1370 N.ar   97  HIS97      -0.2267
     68  CD2       -2.9720   -6.6210   -6.2090 C.ar   97  HIS97       0.1154
     69  CE1       -4.0730   -4.7370   -6.3550 C.ar   97  HIS97       0.1986
     70  NE2       -4.0630   -5.9140   -5.7640 N.ar   97  HIS97      -0.2212
     71  N          2.4710   -5.5670   -6.8610 N.am   98  ALA98      -0.1963
     72  CA         3.8500   -5.5210   -7.3490 C.3    98  ALA98       0.1728
     73  C          4.6530   -6.7410   -6.9100 C.2    98  ALA98       0.2616
     74  O          4.4510   -7.2670   -5.8290 O.2    98  ALA98      -0.2715
     75  CB         4.5640   -4.2150   -6.9010 C.3    98  ALA98       0.0334
     76  N          5.5740   -7.1670   -7.7680 N.am   99  TYR99      -0.1960
     77  CA         6.4400   -8.2920   -7.4760 C.3    99  TYR99       0.1771
     78  C          7.7580   -7.7040   -6.8940 C.2    99  TYR99       0.2619
     79  O          8.6220   -7.2510   -7.6330 O.2    99  TYR99      -0.2715
     80  CB         6.7050   -9.0060   -8.8060 C.3    99  TYR99       0.0574
     81  CG         7.4620  -10.3000   -8.7580 C.ar   99  TYR99      -0.0198
     82  CD1        7.8250  -10.9510   -9.9420 C.ar   99  TYR99      -0.0009
     83  CD2        7.7630  -10.9110   -7.5400 C.ar   99  TYR99      -0.0009
     84  CE1        8.4500  -12.2300   -9.9150 C.ar   99  TYR99       0.0417
     85  CE2        8.4090  -12.1320   -7.5000 C.ar   99  TYR99       0.0417
     86  CZ         8.7840  -12.7630   -8.6700 C.ar   99  TYR99       0.1957
     87  OH         9.4380  -13.9640   -8.5410 O.3    99  TYR99      -0.2866
     88  N          7.8900   -7.7120   -5.5790 N.am  100  ILE100     -0.1977
     89  CA         9.0790   -7.1650   -4.9020 C.3   100  ILE100      0.1596
     90  C         10.3630   -7.7810   -5.4310 C.2   100  ILE100      0.2287
     91  O         11.2930   -7.0590   -5.7760 O.2   100  ILE100     -0.2864
     92  CB         8.9600   -7.2860   -3.3240 C.3   100  ILE100      0.0276
     93  CG1        7.6360   -6.6670   -2.8120 C.3   100  ILE100      0.0022
     94  CG2       10.2010   -6.6670   -2.5710 C.3   100  ILE100      0.0022
     95  CD1        7.2440   -5.3590   -3.4720 C.3   100  ILE100      0.0001
     96  N          3.8140   -6.9720  -13.0530 N.3   109  TYR109     -0.1227
     97  CA         4.2070   -7.7550  -14.2030 C.3   109  TYR109      0.1736
     98  C          3.0180   -8.2520  -14.9870 C.2   109  TYR109      0.2595
     99  O          2.0100   -8.7030  -14.3920 O.2   109  TYR109     -0.2718
    100  CB         5.0090   -8.9550  -13.7330 C.3   109  TYR109      0.0548
    101  CG         6.4360   -8.5070  -13.2450 C.ar  109  TYR109     -0.0200
    102  CD1        7.5680   -9.0170  -13.8600 C.ar  109  TYR109     -0.0009
    103  CD2        6.6330   -7.6200  -12.1460 C.ar  109  TYR109     -0.0009
    104  CE1        8.8390   -8.6810  -13.4380 C.ar  109  TYR109      0.0417
    105  CE2        7.9780   -7.2440  -11.7440 C.ar  109  TYR109      0.0417
    106  CZ         9.0330   -7.7800  -12.4030 C.ar  109  TYR109      0.1957
    107  OH        10.3800   -7.4870  -12.0840 O.3   109  TYR109     -0.2866
    108  N          3.1540   -8.1440  -16.3120 N.am  110  PHE110     -0.1962
    109  CA         2.1970   -8.5880  -17.2930 C.3   110  PHE110      0.1771
    110  C          2.9150   -9.4590  -18.3260 C.2   110  PHE110      0.2619
    111  O          4.1520   -9.3740  -18.5180 O.2   110  PHE110     -0.2715
    112  CB         1.6330   -7.3450  -17.9780 C.3   110  PHE110      0.0574
    113  CG         0.8140   -6.5290  -17.0960 C.ar  110  PHE110     -0.0200
    114  CD1       -0.5650   -6.7720  -17.0190 C.ar  110  PHE110     -0.0042
    115  CD2        1.4000   -5.5010  -16.2910 C.ar  110  PHE110     -0.0042
    116  CE1       -1.3700   -6.0390  -16.1460 C.ar  110  PHE110     -0.0003
    117  CE2        0.6230   -4.7570  -15.4020 C.ar  110  PHE110     -0.0003
    118  CZ        -0.7910   -5.0120  -15.3250 C.ar  110  PHE110     -0.0000
    119  N          2.1820  -10.2650  -19.0490 N.am  111  ALA111     -0.1977
    120  CA         2.8510  -11.2380  -19.9260 C.3   111  ALA111      0.1597
    121  C          2.1590  -11.2840  -21.2730 C.2   111  ALA111      0.2287
    122  O          0.9310  -11.2090  -21.3390 O.2   111  ALA111     -0.2864
    123  CB         2.9040  -12.7060  -19.2520 C.3   111  ALA111      0.0319
    124  N          2.3680  -17.9480  -19.2240 N.3   116  LYS116     -0.1231
    125  CA         3.2870  -17.3180  -18.2750 C.3   116  LYS116      0.1693
    126  C          2.4270  -16.7930  -17.1090 C.2   116  LYS116      0.2592
    127  O          2.7400  -17.0490  -15.9430 O.2   116  LYS116     -0.2718
    128  CB         4.1290  -16.1780  -18.9120 C.3   116  LYS116      0.0285
    129  CG         4.9800  -15.3400  -17.9240 C.3   116  LYS116      0.0035
    130  CD         5.7460  -16.2470  -16.9200 C.3   116  LYS116      0.0206
    131  CE         7.0120  -16.7660  -17.5580 C.3   116  LYS116      0.1093
    132  NZ         8.0090  -17.2850  -16.5490 N.3   116  LYS116     -0.1314
    133  N          1.3880  -16.0290  -17.4350 N.am  117  SER117     -0.1952
    134  CA         0.4570  -15.5410  -16.4000 C.3   117  SER117      0.1924
    135  C         -0.2050  -16.6670  -15.6050 C.2   117  SER117      0.2314
    136  O         -0.3530  -16.5340  -14.4220 O.2   117  SER117     -0.2863
    137  CB        -0.5750  -14.5880  -17.0090 C.3   117  SER117      0.2116
    138  OG         0.1010  -13.3910  -17.4530 O.3   117  SER117     -0.2180
    139  N          1.2590  -17.9620  -12.2940 N.3   120  TYR120     -0.1241
    140  CA         1.1790  -17.0820  -11.1260 C.3   120  TYR120      0.1605
    141  C         -0.2330  -17.0310  -10.5850 C.2   120  TYR120      0.2264
    142  O         -0.5050  -16.3360   -9.6120 O.2   120  TYR120     -0.2867
    143  CB         1.6450  -15.6320  -11.4720 C.3   120  TYR120      0.0534
    144  CG         3.1280  -15.5630  -11.6770 C.ar  120  TYR120     -0.0201
    145  CD1        4.0010  -15.3070  -10.6000 C.ar  120  TYR120     -0.0009
    146  CD2        3.6800  -15.7890  -12.9360 C.ar  120  TYR120     -0.0009
    147  CE1        5.3580  -15.2590  -10.7870 C.ar  120  TYR120      0.0417
    148  CE2        5.0140  -15.7610  -13.1130 C.ar  120  TYR120      0.0417
    149  CZ         5.8420  -15.4830  -12.0590 C.ar  120  TYR120      0.1957
    150  OH         7.1900  -15.4600  -12.2910 O.3   120  TYR120     -0.2866
    151  N         -0.0870  -17.9590   -7.0980 N.3   123  GLY123     -0.1210
    152  CA         0.9150  -17.1810   -6.3320 C.3   123  GLY123      0.1956
    153  C          2.2800  -17.3100   -7.0070 C.2   123  GLY123      0.2611
    154  O          2.3800  -18.0050   -8.0260 O.2   123  GLY123     -0.2717
    155  N          3.3240  -16.6660   -6.4540 N.am  124  ILE124     -0.1979
    156  CA         4.7000  -16.7090   -7.0500 C.3   124  ILE124      0.1595
    157  C          5.0480  -18.1680   -7.1830 C.2   124  ILE124      0.2287
    158  O          4.9050  -18.8980   -6.2250 O.2   124  ILE124     -0.2864
    159  CB         5.7330  -16.0880   -6.0860 C.3   124  ILE124      0.0276
    160  CG1        5.4240  -14.6180   -5.7500 C.3   124  ILE124      0.0022
    161  CG2        7.2460  -16.2800   -6.5700 C.3   124  ILE124      0.0022
    162  CD1        5.4620  -13.7360   -6.9090 C.3   124  ILE124      0.0001
    163  N          7.6990   -9.9260  -21.1590 N.3   186  GLU186     -0.1245
    164  CA         6.9710   -9.5140  -19.9970 C.3   186  GLU186      0.1567
    165  C          7.2270   -8.0390  -19.8980 C.2   186  GLU186      0.2260
    166  O          8.2920   -7.5360  -20.3640 O.2   186  GLU186     -0.2867
    167  CB         7.5260  -10.1740  -18.7410 C.3   186  GLU186      0.0388
    168  CG         7.3350  -11.6790  -18.6690 C.3   186  GLU186      0.1160
    169  CD         7.9460  -12.2800  -17.3790 C.2   186  GLU186      0.3649
    170  OE1        8.1430  -13.5050  -17.3300 O.co2 186  GLU186     -0.2457
    171  OE2        8.2290  -11.5210  -16.4200 O.co2 186  GLU186     -0.2457
@<TRIPOS>BOND
     1    11    10   ar
     2    11     9   ar
     3    10     8   ar
     4     8     6   ar
     5     9     7   ar
     6   122   121    2
     7   121   120    1
     8   163   164    1
     9     7     6   ar
    10     6     5    1
    11     1     2    1
    12   166   165    2
    13   164   165    1
    14   164   167    1
    15   120   123    1
    16   120   119    1
    17     5     2    1
    18     2     3    1
    19   124   125    1
    20   119   110   am
    21   128   125    1
    22   128   129    1
    23   167   168    1
    24   168   169    1
    25   111   110    2
    26   110   109    1
    27   125   126    1
    28     3     4    2
    29     3    12   am
    30   112   109    1
    31   112   113    1
    32   129   130    1
    33   131   130    1
    34   131   132    1
    35   138   137    1
    36   133   126   am
    37   133   134    1
    38   169   170   ar
    39   169   171   ar
    40   109   108    1
    41   126   127    2
    42   113   114   ar
    43   113   115   ar
    44    12    13    1
    45   114   116   ar
    46   137   134    1
    47   134   135    1
    48   108    98   am
    49   115   117   ar
    50   116   118   ar
    51    13    16    1
    52    13    14    1
    53   135   136    2
    54   117   118   ar
    55    16    17    1
    56    98    99    2
    57    98    97    1
    58    14    15    2
    59    14    22   am
    60    22    23    1
    61    97   100    1
    62    97    96    1
    63   102   104   ar
    64   102   101   ar
    65   100   101    1
    66    17    18   ar
    67    17    19   ar
    68    18    20   ar
    69   104   106   ar
    70    23    24    1
    71   101   103   ar
    72   148   146   ar
    73   148   149   ar
    74   146   144   ar
    75    19    21   ar
    76   106   107    1
    77   106   105   ar
    78   139   140    1
    79   150   149    1
    80   103   105   ar
    81    20    21   ar
    82   149   147   ar
    83    24    25    2
    84    24    26   am
    85   144   143    1
    86   144   145   ar
    87   143   140    1
    88   140   141    1
    89    26    27    1
    90   147   145   ar
    91   141   142    2
    92    82    84   ar
    93    82    81   ar
    94    84    86   ar
    95    27    30    1
    96    27    28    1
    97    30    31    1
    98    29    28    2
    99    80    81    1
   100    80    77    1
   101    81    83   ar
   102    86    87    1
   103    86    85   ar
   104    28    32   am
   105    64    63    2
   106   154   153    2
   107    65    66    1
   108    65    62    1
   109    76    77    1
   110    76    73   am
   111    79    78    2
   112    83    85   ar
   113    77    78    1
   114    63    71   am
   115    63    62    1
   116    32    38    1
   117    32    33    1
   118    72    73    1
   119    72    75    1
   120    72    71    1
   121   157   156    1
   122   157   158    2
   123    41    42    2
   124    41    40    1
   125    67    66   ar
   126    67    69   ar
   127   151   152    1
   128    66    68   ar
   129   156   155    1
   130   156   159    1
   131   153   155   am
   132   153   152    1
   133    73    74    2
   134   162   160    1
   135    78    88   am
   136    38    37    1
   137    62    61    1
   138   161   159    1
   139    39    34   am
   140    39    40    1
   141    33    34    1
   142    33    36    1
   143    69    70   ar
   144    68    70   ar
   145    34    35    2
   146   159   160    1
   147    40    43    1
   148    91    90    2
   149    43    44    1
   150    61    52   am
   151    37    36    1
   152    88    89    1
   153    90    89    1
   154    46    44   ar
   155    46    48   ar
   156    44    45   ar
   157    89    92    1
   158    48    49   ar
   159    52    53    2
   160    52    51    1
   161    50    51    1
   162    45    47   ar
   163    49    47   ar
   164    95    93    1
   165    51    54    1
   166    92    93    1
   167    92    94    1
   168    54    55    1
   169    55    56    1
   170    56    57    1
   171    57    58    2
   172    58    60    1
   173    58    59    1
