@<TRIPOS>MOLECULE
tmp/4j3mB00.pdb
 152 154 0 0 0
SMALL
GASTEIGER

@<TRIPOS>ATOM
      1  N         -3.5950   41.2500   -8.2740 N.3    79  PHE79      -0.1227
      2  CA        -3.7650   40.2370   -9.3210 C.3    79  PHE79       0.1736
      3  C         -3.8670   40.8800  -10.6850 C.2    79  PHE79       0.2595
      4  O         -4.3690   42.0240  -10.8490 O.2    79  PHE79      -0.2718
      5  CB        -5.0080   39.3910   -9.0160 C.3    79  PHE79       0.0547
      6  CG        -4.8430   38.6030   -7.7370 C.ar   79  PHE79      -0.0202
      7  CD1       -4.0410   37.4050   -7.7230 C.ar   79  PHE79      -0.0042
      8  CD2       -5.4000   39.0370   -6.5590 C.ar   79  PHE79      -0.0042
      9  CE1       -3.8460   36.6820   -6.5380 C.ar   79  PHE79      -0.0003
     10  CE2       -5.2070   38.3130   -5.3540 C.ar   79  PHE79      -0.0003
     11  CZ        -4.4250   37.1290   -5.3380 C.ar   79  PHE79      -0.0000
     12  N         -3.4990   40.1060  -11.6940 N.am   80  HIS80      -0.1961
     13  CA        -3.7710   40.5040  -13.0790 C.3    80  HIS80       0.1787
     14  C         -4.0820   39.2300  -13.9180 C.2    80  HIS80       0.2621
     15  O         -3.2980   38.2360  -13.8880 O.2    80  HIS80      -0.2715
     16  CB        -2.5190   41.1530  -13.7160 C.3    80  HIS80       0.0785
     17  CG        -2.8000   41.6220  -15.1160 C.ar   80  HIS80       0.0821
     18  ND1       -3.4810   42.8010  -15.3830 N.ar   80  HIS80      -0.2267
     19  CD2       -2.5540   41.0510  -16.3270 C.ar   80  HIS80       0.1154
     20  CE1       -3.5770   42.9580  -16.6970 C.ar   80  HIS80       0.1986
     21  NE2       -3.0410   41.9170  -17.2910 N.ar   80  HIS80      -0.2212
     22  N         -5.2360   39.2150  -14.5950 N.am   81  GLY81      -0.1940
     23  CA        -5.6120   38.0790  -15.4330 C.3    81  GLY81       0.2014
     24  C         -5.6530   38.6010  -16.8710 C.2    81  GLY81       0.2640
     25  O         -6.0720   39.7700  -17.0910 O.2    81  GLY81      -0.2714
     26  N         -5.2760   37.7580  -17.8570 N.am   82  SER82      -0.1936
     27  CA        -5.2220   38.1800  -19.2600 C.3    82  SER82       0.2040
     28  C         -4.8810   37.0070  -20.1330 C.2    82  SER82       0.2485
     29  O         -4.1410   36.1250  -19.6740 O.2    82  SER82      -0.2729
     30  CB        -4.0070   39.1170  -19.3610 C.3    82  SER82       0.2129
     31  OG        -3.6830   39.5220  -20.6510 O.3    82  SER82      -0.2179
     32  N         -5.3200   37.0220  -21.4380 N.am   83  PRO83      -0.2715
     33  CA        -4.8710   35.9690  -22.3370 C.3    83  PRO83       0.1536
     34  C         -3.4120   36.1770  -22.6470 C.2    83  PRO83       0.2598
     35  O         -2.8600   35.3270  -23.3000 O.2    83  PRO83      -0.2715
     36  CB        -5.7090   36.2260  -23.6370 C.3    83  PRO83       0.0310
     37  CG        -6.9990   36.6960  -23.0830 C.3    83  PRO83       0.0237
     38  CD        -6.5000   37.7030  -22.0010 C.3    83  PRO83       0.0939
     39  N         -2.7850   37.2700  -22.2080 N.am   84  PHE84      -0.1974
     40  CA        -1.4090   37.5680  -22.6110 C.3    84  PHE84       0.1639
     41  C         -0.3910   37.2170  -21.5550 C.2    84  PHE84       0.2290
     42  O          0.7620   37.6510  -21.6030 O.2    84  PHE84      -0.2864
     43  CB        -1.2600   39.0300  -23.0510 C.3    84  PHE84       0.0560
     44  CG        -2.3020   39.4420  -24.0630 C.ar   84  PHE84      -0.0200
     45  CD1       -2.4830   38.7040  -25.2450 C.ar   84  PHE84      -0.0042
     46  CD2       -3.1550   40.5340  -23.8180 C.ar   84  PHE84      -0.0042
     47  CE1       -3.4800   39.0710  -26.1760 C.ar   84  PHE84      -0.0003
     48  CE2       -4.1290   40.9110  -24.7510 C.ar   84  PHE84      -0.0003
     49  CZ        -4.2930   40.1740  -25.9200 C.ar   84  PHE84      -0.0000
     50  N         -0.8960   47.6690  -24.6730 N.3    97  HIS97      -0.1226
     51  CA        -2.0040   46.7760  -24.4540 C.3    97  HIS97       0.1752
     52  C         -2.9030   47.2050  -23.2780 C.2    97  HIS97       0.2596
     53  O         -3.5010   46.4510  -22.5790 O.2    97  HIS97      -0.2718
     54  CB        -1.4920   45.3740  -24.2400 C.3    97  HIS97       0.0759
     55  CG        -1.7660   44.4960  -25.3930 C.ar   97  HIS97       0.0818
     56  ND1       -3.0410   44.1340  -25.7600 N.ar   97  HIS97      -0.2268
     57  CD2       -0.9430   43.9740  -26.3290 C.ar   97  HIS97       0.1154
     58  CE1       -2.9880   43.3860  -26.8460 C.ar   97  HIS97       0.1986
     59  NE2       -1.7290   43.2730  -27.2110 N.ar   97  HIS97      -0.2212
     60  N         -2.9050   48.4650  -23.0790 N.am   98  ALA98      -0.1966
     61  CA        -3.6970   49.2050  -22.0650 C.3    98  ALA98       0.1728
     62  C         -5.1850   48.8940  -22.3230 C.2    98  ALA98       0.2616
     63  O         -5.5690   48.7500  -23.4620 O.2    98  ALA98      -0.2715
     64  CB        -3.4110   50.6830  -22.1050 C.3    98  ALA98       0.0334
     65  N         -6.0180   48.7880  -21.3000 N.am   99  TYR99      -0.1974
     66  CA        -7.4240   48.6100  -21.5820 C.3    99  TYR99       0.1639
     67  C         -8.0150   49.9530  -22.0370 C.2    99  TYR99       0.2290
     68  O         -8.2880   50.8560  -21.2290 O.2    99  TYR99      -0.2864
     69  CB        -8.1270   48.1060  -20.3380 C.3    99  TYR99       0.0560
     70  CG        -9.5720   47.7760  -20.4400 C.ar   99  TYR99      -0.0198
     71  CD1      -10.1900   47.4890  -21.6560 C.ar   99  TYR99      -0.0009
     72  CD2      -10.3160   47.6480  -19.2460 C.ar   99  TYR99      -0.0009
     73  CE1      -11.5540   47.1500  -21.7000 C.ar   99  TYR99       0.0417
     74  CE2      -11.6570   47.2610  -19.2610 C.ar   99  TYR99       0.0417
     75  CZ       -12.2550   47.0620  -20.5030 C.ar   99  TYR99       0.1957
     76  OH       -13.5620   46.6730  -20.4670 O.3    99  TYR99      -0.2866
     77  N         -4.7090   47.3400  -15.8880 N.3   109  TYR109     -0.1227
     78  CA        -5.5750   47.2090  -14.7000 C.3   109  TYR109      0.1736
     79  C         -5.1460   46.0440  -13.8870 C.2   109  TYR109      0.2595
     80  O         -4.7870   44.9990  -14.4340 O.2   109  TYR109     -0.2718
     81  CB        -7.0090   46.9560  -15.1140 C.3   109  TYR109      0.0548
     82  CG        -7.7110   48.2070  -15.5730 C.ar  109  TYR109     -0.0200
     83  CD1       -7.2540   48.9680  -16.6860 C.ar  109  TYR109     -0.0009
     84  CD2       -8.8080   48.6660  -14.8520 C.ar  109  TYR109     -0.0009
     85  CE1       -7.9430   50.1760  -17.0860 C.ar  109  TYR109      0.0417
     86  CE2       -9.5090   49.8020  -15.2680 C.ar  109  TYR109      0.0417
     87  CZ        -9.0560   50.5620  -16.3840 C.ar  109  TYR109      0.1957
     88  OH        -9.6900   51.7920  -16.6620 O.3   109  TYR109     -0.2866
     89  N         -5.2280   46.2180  -12.5700 N.am  110  PHE110     -0.1962
     90  CA        -4.8760   45.1880  -11.6080 C.3   110  PHE110      0.1771
     91  C         -5.9880   45.1690  -10.5680 C.2   110  PHE110      0.2619
     92  O         -6.6930   46.2070  -10.3590 O.2   110  PHE110     -0.2715
     93  CB        -3.5700   45.5820  -10.8930 C.3   110  PHE110      0.0574
     94  CG        -2.3770   45.5090  -11.7970 C.ar  110  PHE110     -0.0200
     95  CD1       -1.7090   44.3720  -11.9550 C.ar  110  PHE110     -0.0042
     96  CD2       -1.9970   46.5500  -12.5540 C.ar  110  PHE110     -0.0042
     97  CE1       -0.5970   44.3140  -12.8260 C.ar  110  PHE110     -0.0003
     98  CE2       -0.9140   46.5050  -13.4070 C.ar  110  PHE110     -0.0003
     99  CZ        -0.1870   45.3660  -13.5590 C.ar  110  PHE110     -0.0000
    100  N         -6.1330   44.0490   -9.8860 N.am  111  ALA111     -0.1977
    101  CA        -7.2600   43.9540   -8.9360 C.3   111  ALA111      0.1597
    102  C         -6.8530   43.3670   -7.5850 C.2   111  ALA111      0.2287
    103  O         -6.0430   42.4180   -7.5190 O.2   111  ALA111     -0.2864
    104  CB        -8.3810   43.0420   -9.5000 C.3   111  ALA111      0.0319
    105  N        -12.0410   39.0490   -9.5480 N.3   116  LYS116     -0.1231
    106  CA       -12.1400   40.1220  -10.6000 C.3   116  LYS116      0.1693
    107  C        -11.1240   39.7570  -11.7240 C.2   116  LYS116      0.2592
    108  O        -11.4420   39.7730  -12.9290 O.2   116  LYS116     -0.2718
    109  CB       -11.7690   41.4800  -10.0160 C.3   116  LYS116      0.0285
    110  CG       -11.6110   42.6510  -11.0000 C.3   116  LYS116      0.0035
    111  CD       -12.8520   42.8160  -11.9620 C.3   116  LYS116      0.0206
    112  CE       -14.1920   43.1480  -11.2550 C.3   116  LYS116      0.1093
    113  NZ       -15.3190   43.3260  -12.2880 N.3   116  LYS116     -0.1314
    114  N         -9.8520   39.5310  -11.3660 N.am  117  SER117     -0.1952
    115  CA        -8.8500   39.1920  -12.4270 C.3   117  SER117      0.1924
    116  C         -9.2320   37.9200  -13.1820 C.2   117  SER117      0.2314
    117  O         -8.9440   37.8130  -14.4000 O.2   117  SER117     -0.2863
    118  CB        -7.4300   39.0140  -11.7310 C.3   117  SER117      0.2116
    119  OG        -7.0230   40.3660  -11.4210 O.3   117  SER117     -0.2180
    120  N        -11.0480   37.9570  -16.5130 N.3   120  TYR120     -0.1241
    121  CA       -10.3260   38.4650  -17.6680 C.3   120  TYR120      0.1605
    122  C         -9.3420   37.4680  -18.2520 C.2   120  TYR120      0.2264
    123  O         -8.6780   37.7630  -19.2380 O.2   120  TYR120     -0.2867
    124  CB        -9.5790   39.7690  -17.3290 C.3   120  TYR120      0.0534
    125  CG       -10.5490   40.9300  -17.1670 C.ar  120  TYR120     -0.0201
    126  CD1      -11.1390   41.1860  -15.9180 C.ar  120  TYR120     -0.0009
    127  CD2      -10.9030   41.7450  -18.2880 C.ar  120  TYR120     -0.0009
    128  CE1      -12.0840   42.2220  -15.7890 C.ar  120  TYR120      0.0417
    129  CE2      -11.8070   42.8020  -18.1490 C.ar  120  TYR120      0.0417
    130  CZ       -12.3780   43.0250  -16.8980 C.ar  120  TYR120      0.1957
    131  OH       -13.3020   44.0200  -16.6930 O.3   120  TYR120     -0.2866
    132  N        -10.1720   36.9180  -21.7160 N.3   123  GLY123     -0.1210
    133  CA       -10.3330   38.1230  -22.5340 C.3   123  GLY123      0.1956
    134  C        -11.3480   39.0710  -21.8420 C.2   123  GLY123      0.2611
    135  O        -11.9320   38.7700  -20.7740 O.2   123  GLY123     -0.2717
    136  N        -11.5240   40.2440  -22.3980 N.am  124  ILE124     -0.1979
    137  CA       -12.5270   41.1650  -21.8280 C.3   124  ILE124      0.1595
    138  C        -13.9220   40.5280  -21.7860 C.2   124  ILE124      0.2287
    139  O        -14.3590   39.9100  -22.7250 O.2   124  ILE124     -0.2864
    140  CB       -12.4960   42.4810  -22.6580 C.3   124  ILE124      0.0276
    141  CG1      -11.1730   43.2140  -22.4060 C.3   124  ILE124      0.0022
    142  CG2      -13.7640   43.3400  -22.3810 C.3   124  ILE124      0.0022
    143  CD1      -10.8590   44.1720  -23.5740 C.3   124  ILE124      0.0001
    144  N         -9.6760   48.3130   -7.5350 N.3   185  GLU185     -0.1245
    145  CA        -8.8760   48.0580   -8.7380 C.3   185  GLU185      0.1567
    146  C         -7.9230   49.2150   -8.9120 C.2   185  GLU185      0.2260
    147  O         -8.1590   50.3150   -8.3620 O.2   185  GLU185     -0.2867
    148  CB        -9.7680   47.9260   -9.9730 C.3   185  GLU185      0.0388
    149  CG       -10.6840   46.7060   -9.9640 C.3   185  GLU185      0.1160
    150  CD       -11.6430   46.6770  -11.1710 C.2   185  GLU185      0.3649
    151  OE1      -12.7730   46.2120  -11.0130 O.co2 185  GLU185     -0.2457
    152  OE2      -11.2850   47.1130  -12.2870 O.co2 185  GLU185     -0.2457
@<TRIPOS>BOND
     1    59    58   ar
     2    59    57   ar
     3    58    56   ar
     4    57    55   ar
     5    47    49   ar
     6    47    45   ar
     7    49    48   ar
     8    56    55   ar
     9    55    54    1
    10    45    44   ar
    11    48    46   ar
    12    50    51    1
    13    51    54    1
    14    51    52    1
    15    44    46   ar
    16    44    43    1
    17    36    37    1
    18    36    33    1
    19   143   141    1
    20    63    62    2
    21    35    34    2
    22    52    60   am
    23    52    53    2
    24    37    38    1
    25    60    61    1
    26    43    40    1
    27   139   138    2
    28   140   141    1
    29   140   142    1
    30   140   137    1
    31    34    33    1
    32    34    39   am
    33    40    39    1
    34    40    41    1
    35   133   134    1
    36   133   132    1
    37   136   134   am
    38   136   137    1
    39    33    32    1
    40    62    61    1
    41    62    65   am
    42    64    61    1
    43    67    66    1
    44    67    68    2
    45    38    32    1
    46   134   135    2
    47   137   138    1
    48    73    71   ar
    49    73    75   ar
    50    71    70   ar
    51    42    41    2
    52    66    65    1
    53    66    69    1
    54    32    28   am
    55    31    30    1
    56    75    76    1
    57    75    74   ar
    58    70    69    1
    59    70    72   ar
    60    28    29    2
    61    28    27    1
    62    30    27    1
    63    74    72   ar
    64    27    26    1
    65   123   122    2
    66   127   129   ar
    67   127   125   ar
    68   122   121    1
    69   129   130   ar
    70    26    24   am
    71   121   124    1
    72   121   120    1
    73   124   125    1
    74    21    20   ar
    75    21    19   ar
    76   125   126   ar
    77    25    24    2
    78    85    83   ar
    79    85    87   ar
    80   130   131    1
    81   130   128   ar
    82    24    23    1
    83    20    18   ar
    84    83    82   ar
    85    88    87    1
    86    87    86   ar
    87    19    17   ar
    88   126   128   ar
    89    77    78    1
    90    82    81    1
    91    82    84   ar
    92    23    22    1
    93    18    17   ar
    94    86    84   ar
    95    17    16    1
    96    81    78    1
    97    78    79    1
    98    22    14   am
    99    80    79    2
   100   117   116    2
   101    14    15    2
   102    14    13    1
   103    79    89   am
   104    16    13    1
   105    99    98   ar
   106    99    97   ar
   107    98    96   ar
   108   116   115    1
   109    13    12    1
   110   108   107    2
   111    97    95   ar
   112    89    90    1
   113    96    94   ar
   114   115   118    1
   115   115   114    1
   116   113   112    1
   117   152   150   ar
   118   111   112    1
   119   111   110    1
   120    95    94   ar
   121    94    93    1
   122   118   119    1
   123   107   114   am
   124   107   106    1
   125    12     3   am
   126    90    93    1
   127    90    91    1
   128   150   151   ar
   129   150   149    1
   130   110   109    1
   131     4     3    2
   132     3     2    1
   133   106   109    1
   134   106   105    1
   135    91    92    2
   136    91   100   am
   137   148   149    1
   138   148   145    1
   139   100   101    1
   140   104   101    1
   141     2     5    1
   142     2     1    1
   143     5     6    1
   144   101   102    1
   145   146   145    1
   146   146   147    2
   147   145   144    1
   148     6     7   ar
   149     6     8   ar
   150     7     9   ar
   151   102   103    2
   152     8    10   ar
   153     9    11   ar
   154    10    11   ar
