@<TRIPOS>MOLECULE
tmp/4j3qA00.pdb
 73 68 0 0 0
SMALL
GASTEIGER

@<TRIPOS>ATOM
      1  N         15.4960    6.0310  -71.1570 N.3    38  THR38      -0.1218
      2  CA        14.9450    6.2560  -69.8110 C.3    38  THR38       0.1862
      3  C         16.0990    6.3430  -68.8170 C.2    38  THR38       0.2287
      4  O         16.9080    5.4040  -68.7380 O.2    38  THR38      -0.2866
      5  CB        13.9600    5.1440  -69.3640 C.3    38  THR38       0.1770
      6  OG1       13.0220    4.8740  -70.4090 O.3    38  THR38      -0.2211
      7  CG2       13.1940    5.5830  -68.1490 C.3    38  THR38       0.0375
      8  N         15.3890    6.2710  -62.7240 N.3    42  LEU42      -0.1231
      9  CA        13.9300    6.0710  -62.7640 C.3    42  LEU42       0.1693
     10  C         13.5560    4.6240  -63.1440 C.2    42  LEU42       0.2591
     11  O         12.5810    4.0740  -62.6220 O.2    42  LEU42      -0.2718
     12  CB        13.2470    7.0900  -63.6850 C.3    42  LEU42       0.0284
     13  CG        13.4980    8.5990  -63.4920 C.3    42  LEU42       0.0019
     14  CD1       12.9390    9.4090  -64.6580 C.3    42  LEU42       0.0001
     15  CD2       12.9770    9.1440  -62.1370 C.3    42  LEU42       0.0001
     16  N         14.3270    4.0070  -64.0460 N.am   43  ALA43      -0.1980
     17  CA        14.1130    2.5940  -64.3860 C.3    43  ALA43       0.1597
     18  C         15.4320    1.8800  -64.5610 C.2    43  ALA43       0.2287
     19  O         15.9100    1.7440  -65.6780 O.2    43  ALA43      -0.2864
     20  CB        13.2640    2.4430  -65.6270 C.3    43  ALA43       0.0319
     21  N          8.5850    0.1810  -70.0360 N.3    55  ALA55      -0.1231
     22  CA         8.6420    0.9200  -68.7670 C.3    55  ALA55       0.1694
     23  C          7.5120    1.9160  -68.6850 C.2    55  ALA55       0.2592
     24  O          6.8700    2.0210  -67.6510 O.2    55  ALA55      -0.2718
     25  CB         9.9940    1.6130  -68.5540 C.3    55  ALA55       0.0304
     26  N          7.2370    2.6340  -69.7690 N.am   56  THR56      -0.1953
     27  CA         6.1820    3.6310  -69.6880 C.3    56  THR56       0.1897
     28  C          4.8260    2.9830  -69.4370 C.2    56  THR56       0.2313
     29  O          3.9990    3.5680  -68.7600 O.2    56  THR56      -0.2863
     30  CB         6.1480    4.6020  -70.9010 C.3    56  THR56       0.1794
     31  OG1        4.8780    5.2820  -70.9400 O.3    56  THR56      -0.2208
     32  CG2        6.3100    3.8640  -72.1640 C.3    56  THR56       0.0378
     33  N          4.7080    2.1090  -65.8710 N.3    59  ASN59      -0.1225
     34  CA         4.5600    3.3450  -65.1380 C.3    59  ASN59       0.1785
     35  C          3.1390    3.9030  -65.2020 C.2    59  ASN59       0.2597
     36  O          2.6660    4.5060  -64.2450 O.2    59  ASN59      -0.2718
     37  CB         5.5690    4.3930  -65.6160 C.3    59  ASN59       0.1169
     38  CG         5.8950    5.4290  -64.5520 C.2    59  ASN59       0.2627
     39  OD1        5.9890    5.1010  -63.3680 O.2    59  ASN59      -0.2716
     40  ND2        6.0780    6.6860  -64.9760 N.am   59  ASN59      -0.0877
     41  N          2.4460    3.6850  -66.3120 N.am   60  GLN60      -0.1979
     42  CA         1.1630    4.3570  -66.5040 C.3    60  GLN60       0.1601
     43  C         -0.0540    3.4490  -66.4340 C.2    60  GLN60       0.2287
     44  O         -1.1590    3.9100  -66.6380 O.2    60  GLN60      -0.2864
     45  CB         1.1520    5.1190  -67.8310 C.3    60  GLN60       0.0394
     46  CG         2.1430    6.2590  -67.9100 C.3    60  GLN60       0.0908
     47  CD         1.9460    7.1030  -69.1480 C.2    60  GLN60       0.2608
     48  OE1        0.8390    7.5460  -69.4440 O.2    60  GLN60      -0.2717
     49  NE2        3.0240    7.3320  -69.8810 N.am   60  GLN60      -0.0878
     50  N         10.3660   -2.0310  -62.0080 N.3   185  LEU185     -0.1245
     51  CA        11.2160   -1.2540  -62.8730 C.3   185  LEU185      0.1561
     52  C         12.7050   -1.5390  -62.6280 C.2   185  LEU185      0.2260
     53  O         13.5630   -0.8450  -63.1580 O.2   185  LEU185     -0.2867
     54  CB        10.9080    0.2280  -62.7020 C.3   185  LEU185      0.0270
     55  CG         9.5850    0.7780  -63.2450 C.3   185  LEU185      0.0019
     56  CD1        9.4280    2.2020  -62.7890 C.3   185  LEU185      0.0001
     57  CD2        9.4750    0.6820  -64.7820 C.3   185  LEU185      0.0001
     58  N          5.9750    9.3650  -71.6390 N.3   313  GLY313     -0.1210
     59  CA         7.2100    9.4920  -70.8740 C.3   313  GLY313      0.1956
     60  C          8.4060    9.4700  -71.8020 C.2   313  GLY313      0.2611
     61  O          8.4450   10.1940  -72.8190 O.2   313  GLY313     -0.2717
     62  N          9.3670    8.6130  -71.4750 N.am  314  TYR314     -0.1976
     63  CA        10.6390    8.6070  -72.1760 C.3   314  TYR314      0.1639
     64  C         10.6460    7.6530  -73.3770 C.2   314  TYR314      0.2290
     65  O         11.6800    7.4570  -74.0180 O.2   314  TYR314     -0.2864
     66  CB        11.7650    8.2590  -71.2010 C.3   314  TYR314      0.0560
     67  CG        12.0450    9.3350  -70.1900 C.ar  314  TYR314     -0.0198
     68  CD1       12.9640   10.3630  -70.4690 C.ar  314  TYR314     -0.0009
     69  CD2       11.4020    9.3310  -68.9520 C.ar  314  TYR314     -0.0009
     70  CE1       13.2250   11.3670  -69.5500 C.ar  314  TYR314      0.0417
     71  CE2       11.6590   10.3200  -68.0210 C.ar  314  TYR314      0.0417
     72  CZ        12.5700   11.3390  -68.3260 C.ar  314  TYR314      0.1957
     73  OH        12.8150   12.3280  -67.4000 O.3   314  TYR314     -0.2866
@<TRIPOS>BOND
     1    65    64    2
     2    64    63    1
     3    61    60    2
     4    63    62    1
     5    63    66    1
     6    32    30    1
     7    60    62   am
     8    60    59    1
     9    58    59    1
    10    66    67    1
    11     1     2    1
    12    31    30    1
    13    30    27    1
    14    68    67   ar
    15    68    70   ar
    16     6     5    1
    17    67    69   ar
    18    21    22    1
    19    49    47   am
    20     2     5    1
    21     2     3    1
    22    26    27    1
    23    26    23   am
    24    27    28    1
    25    70    72   ar
    26    48    47    2
    27    28    29    2
    28     5     7    1
    29    47    46    1
    30    69    71   ar
    31     3     4    2
    32    22    23    1
    33    22    25    1
    34    23    24    2
    35    72    71   ar
    36    72    73    1
    37    46    45    1
    38    45    42    1
    39    44    43    2
    40    42    43    1
    41    42    41    1
    42    41    35   am
    43    33    34    1
    44    19    18    2
    45    20    17    1
    46    37    34    1
    47    37    38    1
    48    35    34    1
    49    35    36    2
    50    40    38   am
    51    57    55    1
    52    14    13    1
    53    18    17    1
    54    38    39    2
    55    17    16    1
    56    16    10   am
    57    12    13    1
    58    12     9    1
    59    13    15    1
    60    55    56    1
    61    55    54    1
    62    53    52    2
    63    10     9    1
    64    10    11    2
    65    51    54    1
    66    51    52    1
    67    51    50    1
    68     9     8    1
