@<TRIPOS>MOLECULE
tmp/4j3rA02.pdb
 70 67 0 0 0
SMALL
GASTEIGER

@<TRIPOS>ATOM
      1  N        -34.7060   -5.8380  -10.7770 N.3     9  SER9       -0.1202
      2  CA       -34.9120   -5.8040   -9.3340 C.3     9  SER9        0.2020
      3  C        -36.3720   -5.5000   -9.0090 C.2     9  SER9        0.2619
      4  O        -36.8360   -5.7370   -7.8970 O.2     9  SER9       -0.2717
      5  CB       -33.9860   -4.7830   -8.6810 C.3     9  SER9        0.2103
      6  OG       -32.6320   -5.1660   -8.8520 O.3     9  SER9       -0.2182
      7  N        -37.0980   -4.9870   -9.9950 N.am   10  SER10      -0.1937
      8  CA       -38.5240   -4.7410   -9.8300 C.3    10  SER10       0.2055
      9  C        -39.3150   -6.0350   -9.9350 C.2    10  SER10       0.2643
     10  O        -39.2870   -6.7170  -10.9630 O.2    10  SER10      -0.2714
     11  CB       -39.0360   -3.7560  -10.8750 C.3    10  SER10       0.2130
     12  OG       -40.3900   -4.0400  -11.1860 O.3    10  SER10      -0.2179
     13  N        -40.0270   -6.3570   -8.8660 N.am   11  THR11      -0.1950
     14  CA       -40.8110   -7.5770   -8.8020 C.3    11  THR11       0.1897
     15  C        -41.8340   -7.6350   -9.9270 C.2    11  THR11       0.2313
     16  O        -42.0360   -8.6800  -10.5520 O.2    11  THR11      -0.2863
     17  CB       -41.5240   -7.6810   -7.4470 C.3    11  THR11       0.1794
     18  OG1      -40.5470   -7.6030   -6.4050 O.3    11  THR11      -0.2208
     19  CG2      -42.2830   -8.9890   -7.3350 C.3    11  THR11       0.0378
     20  N        -43.3460  -17.3620   -7.2380 N.3   135  GLY135     -0.1225
     21  CA       -43.2200  -15.9140   -7.2830 C.3   135  GLY135      0.1811
     22  C        -44.4880  -15.1910   -6.8840 C.2   135  GLY135      0.2280
     23  O        -44.4430  -14.1490   -6.2400 O.2   135  GLY135     -0.2866
     24  N        -44.8170  -15.2170   -3.0570 N.3   138  ALA138     -0.1231
     25  CA       -43.6180  -14.8640   -2.2970 C.3   138  ALA138      0.1694
     26  C        -43.8420  -13.9200   -1.1060 C.2   138  ALA138      0.2592
     27  O        -42.9880  -13.8290   -0.2220 O.2   138  ALA138     -0.2718
     28  CB       -42.5590  -14.3080   -3.2200 C.3   138  ALA138      0.0304
     29  N        -44.9810  -13.2280   -1.0750 N.am  139  ASP139     -0.1974
     30  CA       -45.2580  -12.2400   -0.0200 C.3   139  ASP139      0.1709
     31  C        -46.1740  -12.7650    1.0880 C.2   139  ASP139      0.2293
     32  O        -46.1660  -12.2640    2.2130 O.2   139  ASP139     -0.2864
     33  CB       -45.8450  -10.9590   -0.6210 C.3   139  ASP139      0.1436
     34  CG       -44.7750  -10.0200   -1.1420 C.2   139  ASP139      0.3671
     35  OD1      -43.6430  -10.0560   -0.6040 O.co2 139  ASP139     -0.2456
     36  OD2      -45.0670   -9.2460   -2.0810 O.co2 139  ASP139     -0.2456
     37  N        -39.4280  -15.1510    0.2610 N.3   236  GLN236     -0.1245
     38  CA       -38.9840  -13.7720    0.0850 C.3   236  GLN236      0.1566
     39  C        -37.4800  -13.7090   -0.1360 C.2   236  GLN236      0.2260
     40  O        -36.9790  -12.7890   -0.7740 O.2   236  GLN236     -0.2867
     41  CB       -39.3680  -12.9170    1.3120 C.3   236  GLN236      0.0367
     42  CG       -40.7280  -12.2270    1.1930 C.3   236  GLN236      0.0905
     43  CD       -41.2630  -11.6940    2.5230 C.2   236  GLN236      0.2608
     44  OE1      -40.5860  -11.7480    3.5580 O.2   236  GLN236     -0.2717
     45  NE2      -42.4970  -11.1890    2.4990 N.am  236  GLN236     -0.0878
     46  N        -38.3340  -15.2130   -5.1460 N.3   240  THR240     -0.1203
     47  CA       -39.0590  -14.0990   -5.7520 C.3   240  THR240      0.1994
     48  C        -38.8590  -14.0990   -7.2600 C.2   240  THR240      0.2618
     49  O        -37.8570  -14.6200   -7.7620 O.2   240  THR240     -0.2717
     50  CB       -38.6040  -12.7530   -5.1800 C.3   240  THR240      0.1784
     51  OG1      -37.2390  -12.5160   -5.5450 O.3   240  THR240     -0.2211
     52  CG2      -38.7280  -12.7710   -3.6610 C.3   240  THR240      0.0376
     53  N        -39.8200  -13.5320   -7.9820 N.am  241  PHE241     -0.1962
     54  CA       -39.6760  -13.3810   -9.4240 C.3   241  PHE241      0.1756
     55  C        -38.2860  -12.8960   -9.8610 C.2   241  PHE241      0.2461
     56  O        -37.7090  -13.4700  -10.7820 O.2   241  PHE241     -0.2730
     57  CB       -40.7850  -12.5080  -10.0060 C.3   241  PHE241      0.0574
     58  CG       -42.1240  -13.1790  -10.0450 C.ar  241  PHE241     -0.0200
     59  CD1      -42.3020  -14.3500  -10.7580 C.ar  241  PHE241     -0.0042
     60  CD2      -43.2080  -12.6330   -9.3820 C.ar  241  PHE241     -0.0042
     61  CE1      -43.5390  -14.9750  -10.8070 C.ar  241  PHE241     -0.0003
     62  CE2      -44.4470  -13.2450   -9.4350 C.ar  241  PHE241     -0.0003
     63  CZ       -44.6120  -14.4210  -10.1470 C.ar  241  PHE241     -0.0000
     64  N        -37.7270  -11.8670   -9.1960 N.am  242  PRO242     -0.2727
     65  CA       -36.3490  -11.5080   -9.5650 C.3   242  PRO242      0.1402
     66  C        -35.3550  -12.6620   -9.3990 C.2   242  PRO242      0.2269
     67  O        -34.4920  -12.8530  -10.2640 O.2   242  PRO242     -0.2865
     68  CB       -36.0040  -10.3770   -8.5900 C.3   242  PRO242      0.0296
     69  CG       -37.3020   -9.7660   -8.2560 C.3   242  PRO242      0.0237
     70  CD       -38.3240  -10.8740   -8.2850 C.3   242  PRO242      0.0939
@<TRIPOS>BOND
     1    12    11    1
     2    10     9    2
     3    11     8    1
     4    61    59   ar
     5    61    63   ar
     6    56    55    2
     7     1     2    1
     8    59    58   ar
     9    16    15    2
    10    67    66    2
    11    63    62   ar
    12    58    57    1
    13    58    60   ar
    14    57    54    1
    15     7     8    1
    16     7     3   am
    17     9     8    1
    18     9    13   am
    19    15    14    1
    20    55    54    1
    21    55    64   am
    22    65    66    1
    23    65    64    1
    24    65    68    1
    25    62    60   ar
    26    54    53    1
    27     2     3    1
    28     2     5    1
    29    64    70    1
    30     3     4    2
    31    13    14    1
    32     6     5    1
    33    14    17    1
    34    68    69    1
    35    70    69    1
    36    53    48   am
    37    49    48    2
    38    17    19    1
    39    17    18    1
    40    21    20    1
    41    21    22    1
    42    48    47    1
    43    22    23    2
    44    47    50    1
    45    47    46    1
    46    51    50    1
    47    50    52    1
    48    28    25    1
    49    24    25    1
    50    25    26    1
    51    36    34   ar
    52    34    33    1
    53    34    35   ar
    54    26    29   am
    55    26    27    2
    56    29    30    1
    57    40    39    2
    58    33    30    1
    59    39    38    1
    60    30    31    1
    61    38    37    1
    62    38    41    1
    63    31    32    2
    64    42    41    1
    65    42    43    1
    66    45    43   am
    67    43    44    2
