@<TRIPOS>MOLECULE
tmp/4j3rA00.pdb
 81 75 0 0 0
SMALL
GASTEIGER

@<TRIPOS>ATOM
      1  N        -44.1950  -51.9770   -3.5470 N.3    72  THR72      -0.1218
      2  CA       -42.8690  -52.2790   -3.0400 C.3    72  THR72       0.1862
      3  C        -42.9260  -53.5020   -2.1280 C.2    72  THR72       0.2287
      4  O        -43.7420  -53.5570   -1.2130 O.2    72  THR72      -0.2866
      5  CB       -42.2690  -51.1050   -2.2590 C.3    72  THR72       0.1770
      6  OG1      -42.3720  -49.9040   -3.0330 O.3    72  THR72      -0.2211
      7  CG2      -40.8140  -51.3840   -1.9390 C.3    72  THR72       0.0375
      8  N        -38.3550  -54.7810    1.4810 N.3    76  LEU76      -0.1231
      9  CA       -37.4910  -53.7080    1.0000 C.3    76  LEU76       0.1693
     10  C        -37.8270  -52.3840    1.6700 C.2    76  LEU76       0.2591
     11  O        -36.9380  -51.6000    1.9950 O.2    76  LEU76      -0.2718
     12  CB       -37.5990  -53.5740   -0.5130 C.3    76  LEU76       0.0284
     13  CG       -36.8900  -54.6800   -1.2900 C.3    76  LEU76       0.0019
     14  CD1      -36.8640  -54.3220   -2.7610 C.3    76  LEU76       0.0001
     15  CD2      -35.4810  -54.9010   -0.7600 C.3    76  LEU76       0.0001
     16  N        -39.1210  -52.1450    1.8620 N.am   77  ALA77      -0.1980
     17  CA       -39.6010  -50.9680    2.5780 C.3    77  ALA77       0.1597
     18  C        -40.7950  -51.3430    3.4590 C.2    77  ALA77       0.2287
     19  O        -41.9440  -51.2090    3.0450 O.2    77  ALA77      -0.2864
     20  CB       -39.9770  -49.8600    1.5860 C.3    77  ALA77       0.0319
     21  N        -40.6580  -43.7420   -0.9400 N.3    89  ALA89      -0.1231
     22  CA       -39.6260  -44.7210   -0.6190 C.3    89  ALA89       0.1694
     23  C        -38.4620  -44.7010   -1.6220 C.2    89  ALA89       0.2592
     24  O        -37.2840  -44.7000   -1.2270 O.2    89  ALA89      -0.2718
     25  CB       -40.2380  -46.1220   -0.5280 C.3    89  ALA89       0.0304
     26  N        -38.7740  -44.6650   -2.9150 N.am   90  THR90      -0.1953
     27  CA       -37.6970  -44.6340   -3.8980 C.3    90  THR90       0.1897
     28  C        -36.8740  -43.3490   -3.7610 C.2    90  THR90       0.2313
     29  O        -35.6390  -43.3780   -3.8390 O.2    90  THR90      -0.2863
     30  CB       -38.1730  -44.8900   -5.3760 C.3    90  THR90       0.1794
     31  OG1      -37.0190  -45.1150   -6.2010 O.3    90  THR90      -0.2208
     32  CG2      -38.9440  -43.7090   -5.9490 C.3    90  THR90       0.0378
     33  N        -34.6400  -43.8050   -0.8510 N.3    93  ASN93      -0.1225
     34  CA       -33.6550  -44.8150   -1.2120 C.3    93  ASN93       0.1785
     35  C        -32.5150  -44.2570   -2.0680 C.2    93  ASN93       0.2597
     36  O        -31.3780  -44.7010   -1.9500 O.2    93  ASN93      -0.2718
     37  CB       -34.3640  -45.9530   -1.9510 C.3    93  ASN93       0.1169
     38  CG       -33.5210  -47.2150   -2.0500 C.2    93  ASN93       0.2627
     39  OD1      -32.8030  -47.5630   -1.1250 O.2    93  ASN93      -0.2716
     40  ND2      -33.6190  -47.9100   -3.1900 N.am   93  ASN93      -0.0877
     41  N        -32.8210  -43.2650   -2.9040 N.am   94  GLN94      -0.1979
     42  CA       -31.8660  -42.7760   -3.8960 C.3    94  GLN94       0.1601
     43  C        -31.3870  -41.3450   -3.6710 C.2    94  GLN94       0.2287
     44  O        -30.7590  -40.7570   -4.5550 O.2    94  GLN94      -0.2864
     45  CB       -32.4650  -42.8740   -5.3030 C.3    94  GLN94       0.0394
     46  CG       -32.9360  -44.2630   -5.7210 C.3    94  GLN94       0.0908
     47  CD       -33.2280  -44.3380   -7.2280 C.2    94  GLN94       0.2608
     48  OE1      -32.4030  -43.9360   -8.0460 O.2    94  GLN94      -0.2717
     49  NE2      -34.4020  -44.8380   -7.5890 N.am   94  GLN94      -0.0878
     50  N        -36.9870  -46.3900    5.9770 N.3   219  LEU219     -0.1245
     51  CA       -37.9420  -47.1380    5.1790 C.3   219  LEU219      0.1561
     52  C        -38.8370  -48.0370    6.0290 C.2   219  LEU219      0.2260
     53  O        -39.6610  -48.7790    5.4910 O.2   219  LEU219     -0.2867
     54  CB       -37.2340  -47.9580    4.0910 C.3   219  LEU219      0.0270
     55  CG       -36.4550  -47.1840    3.0200 C.3   219  LEU219      0.0019
     56  CD1      -35.8590  -48.1550    2.0130 C.3   219  LEU219      0.0001
     57  CD2      -37.3300  -46.1590    2.3180 C.3   219  LEU219      0.0001
     58  N        -33.4290  -45.2250  -12.6300 N.3   345  ASP345     -0.1239
     59  CA       -34.7350  -45.8570  -12.4430 C.3   345  ASP345      0.1674
     60  C        -35.3790  -45.3100  -11.1720 C.2   345  ASP345      0.2266
     61  O        -34.7170  -44.6700  -10.3500 O.2   345  ASP345     -0.2867
     62  CB       -34.6220  -47.3860  -12.3350 C.3   345  ASP345      0.1410
     63  CG       -33.8510  -47.8390  -11.0940 C.2   345  ASP345      0.3668
     64  OD1      -34.3310  -47.6540   -9.9450 O.co2 345  ASP345     -0.2456
     65  OD2      -32.7500  -48.4030  -11.2680 O.co2 345  ASP345     -0.2456
     66  N        -37.0130  -47.4090   -9.0670 N.3   347  GLY347     -0.1210
     67  CA       -37.3170  -48.6580   -8.3860 C.3   347  GLY347      0.1956
     68  C        -38.7310  -49.1680   -8.6090 C.2   347  GLY347      0.2611
     69  O        -39.1510  -49.3910   -9.7400 O.2   347  GLY347     -0.2717
     70  N        -39.4820  -49.3260   -7.5220 N.am  348  TYR348     -0.1976
     71  CA       -40.8260  -49.8970   -7.6100 C.3   348  TYR348      0.1639
     72  C        -41.9190  -48.8610   -7.7610 C.2   348  TYR348      0.2290
     73  O        -43.0840  -49.2170   -7.8960 O.2   348  TYR348     -0.2864
     74  CB       -41.1300  -50.7800   -6.3940 C.3   348  TYR348      0.0560
     75  CG       -40.3090  -52.0400   -6.3640 C.ar  348  TYR348     -0.0198
     76  CD1      -40.7900  -53.2230   -6.9130 C.ar  348  TYR348     -0.0009
     77  CD2      -39.0360  -52.0390   -5.8190 C.ar  348  TYR348     -0.0009
     78  CE1      -40.0220  -54.3750   -6.8970 C.ar  348  TYR348      0.0417
     79  CE2      -38.2690  -53.1770   -5.8040 C.ar  348  TYR348      0.0417
     80  CZ       -38.7630  -54.3400   -6.3410 C.ar  348  TYR348      0.1957
     81  OH       -37.9770  -55.4690   -6.3120 O.3   348  TYR348     -0.2866
@<TRIPOS>BOND
     1    58    59    1
     2    59    62    1
     3    59    60    1
     4    62    63    1
     5    65    63   ar
     6    60    61    2
     7    63    64   ar
     8    69    68    2
     9    66    67    1
    10    68    67    1
    11    68    70   am
    12    48    47    2
    13    73    72    2
    14    72    71    1
    15    71    70    1
    16    71    74    1
    17    49    47   am
    18    47    46    1
    19    76    78   ar
    20    76    75   ar
    21    78    80   ar
    22    74    75    1
    23    75    77   ar
    24    80    81    1
    25    80    79   ar
    26    31    30    1
    27    32    30    1
    28    77    79   ar
    29    46    45    1
    30    30    27    1
    31    45    42    1
    32    44    43    2
    33    27    28    1
    34    27    26    1
    35    42    43    1
    36    42    41    1
    37    29    28    2
    38     1     2    1
    39    40    38   am
    40     2     5    1
    41     2     3    1
    42     6     5    1
    43    26    23   am
    44    41    35   am
    45    14    13    1
    46     5     7    1
    47     3     4    2
    48    35    36    2
    49    35    34    1
    50    38    37    1
    51    38    39    2
    52    37    34    1
    53    23    24    2
    54    23    22    1
    55    13    15    1
    56    13    12    1
    57    34    33    1
    58    21    22    1
    59    22    25    1
    60    12     9    1
    61     9     8    1
    62     9    10    1
    63    20    17    1
    64    10    16   am
    65    10    11    2
    66    16    17    1
    67    56    55    1
    68    57    55    1
    69    17    18    1
    70    55    54    1
    71    19    18    2
    72    54    51    1
    73    51    50    1
    74    51    52    1
    75    53    52    2
