@<TRIPOS>MOLECULE
tmp/4j3sA02.pdb
 92 88 0 0 0
SMALL
GASTEIGER

@<TRIPOS>ATOM
      1  N        -30.2500   13.6200   38.4060 N.3   221  LYS221     -0.1231
      2  CA       -30.1490   13.3600   36.9560 C.3   221  LYS221      0.1678
      3  C        -28.8020   13.8510   36.4170 C.2   221  LYS221      0.2434
      4  O        -28.3270   14.9060   36.8290 O.2   221  LYS221     -0.2733
      5  CB       -31.2610   14.0810   36.1920 C.3   221  LYS221      0.0284
      6  CG       -32.6470   13.4920   36.3740 C.3   221  LYS221      0.0035
      7  CD       -33.0220   12.5640   35.2460 C.3   221  LYS221      0.0206
      8  CE       -34.3900   11.9470   35.4680 C.3   221  LYS221      0.1093
      9  NZ       -34.4510   10.6340   34.7810 N.3   221  LYS221     -0.1314
     10  N        -28.1900   13.1010   35.4840 N.am  222  PRO222     -0.2718
     11  CA       -26.9580   13.5910   34.8540 C.3   222  PRO222      0.1535
     12  C        -27.1650   14.9140   34.1180 C.2   222  PRO222      0.2598
     13  O        -28.2210   15.1310   33.5120 O.2   222  PRO222     -0.2715
     14  CB       -26.5880   12.4790   33.8610 C.3   222  PRO222      0.0310
     15  CG       -27.3650   11.2890   34.2770 C.3   222  PRO222      0.0237
     16  CD       -28.6020   11.7920   34.9480 C.3   222  PRO222      0.0939
     17  N        -26.1670   15.7910   34.1780 N.am  223  LYS223     -0.1978
     18  CA       -26.2350   17.0800   33.4910 C.3   223  LYS223      0.1596
     19  C        -26.3900   16.8730   31.9880 C.2   223  LYS223      0.2287
     20  O        -25.7290   16.0170   31.4050 O.2   223  LYS223     -0.2864
     21  CB       -24.9720   17.9050   33.7600 C.3   223  LYS223      0.0298
     22  CG       -24.7330   18.2340   35.2170 C.3   223  LYS223      0.0038
     23  CD       -25.8870   19.0350   35.7840 C.3   223  LYS223      0.0206
     24  CE       -25.5000   19.6940   37.0970 C.3   223  LYS223      0.1093
     25  NZ       -24.9060   18.6840   38.0150 N.3   223  LYS223     -0.1314
     26  N        -20.3550    1.9000   33.2630 N.3   270  ARG270     -0.1245
     27  CA       -19.7020    2.9960   33.9800 C.3   270  ARG270      0.1563
     28  C        -18.4920    3.5020   33.2050 C.2   270  ARG270      0.2260
     29  O        -18.2520    4.7060   33.1450 O.2   270  ARG270     -0.2867
     30  CB       -19.2640    2.5640   35.3860 C.3   270  ARG270      0.0307
     31  CG       -20.4120    2.2850   36.3370 C.3   270  ARG270      0.0489
     32  CD       -20.0080    2.4520   37.7940 C.3   270  ARG270      0.2205
     33  NE       -19.9940    3.8660   38.1690 N.pl3 270  ARG270     -0.0865
     34  CZ       -20.1470    4.3350   39.4050 C.cat 270  ARG270      0.5346
     35  NH1      -20.3360    3.5140   40.4310 N.pl3 270  ARG270      0.1354
     36  NH2      -20.1180    5.6440   39.6120 N.pl3 270  ARG270      0.1354
     37  N        -19.9080    5.5070   30.3020 N.3   273  SER273     -0.1202
     38  CA       -20.5100    6.7200   30.8620 C.3   273  SER273      0.2020
     39  C        -19.4620    7.7390   31.2950 C.2   273  SER273      0.2618
     40  O        -19.5930    8.9280   31.0220 O.2   273  SER273     -0.2717
     41  CB       -21.3900    6.3710   32.0590 C.3   273  SER273      0.2103
     42  OG       -22.0340    7.5220   32.5690 O.3   273  SER273     -0.2182
     43  N        -18.4230    7.2630   31.9720 N.am  274  ASP274     -0.1973
     44  CA       -17.3590    8.1380   32.4610 C.3   274  ASP274      0.1709
     45  C        -16.5720    8.7520   31.3040 C.2   274  ASP274      0.2293
     46  O        -16.0930    9.8800   31.4190 O.2   274  ASP274     -0.2864
     47  CB       -16.4250    7.3710   33.4070 C.3   274  ASP274      0.1436
     48  CG       -17.0890    7.0050   34.7340 C.2   274  ASP274      0.3671
     49  OD1      -18.2210    7.4650   35.0130 O.co2 274  ASP274     -0.2456
     50  OD2      -16.4620    6.2480   35.5150 O.co2 274  ASP274     -0.2456
     51  N        -17.9400    9.6630   28.5850 N.3   276  GLY276     -0.1210
     52  CA       -18.8200   10.7200   28.0920 C.3   276  GLY276      0.1956
     53  C        -20.1550   10.2540   27.5230 C.2   276  GLY276      0.2612
     54  O        -21.0110   11.0750   27.2290 O.2   276  GLY276     -0.2717
     55  N        -20.3470    8.9480   27.3580 N.am  277  LEU277     -0.1965
     56  CA       -21.6440    8.4270   26.9410 C.3   277  LEU277      0.1728
     57  C        -22.7600    9.0180   27.8010 C.2   277  LEU277      0.2616
     58  O        -22.6800    8.9950   29.0320 O.2   277  LEU277     -0.2715
     59  CB       -21.6870    6.8990   27.0280 C.3   277  LEU277      0.0311
     60  CG       -23.0320    6.2580   26.6770 C.3   277  LEU277      0.0022
     61  CD1      -23.3890    6.5210   25.2200 C.3   277  LEU277      0.0001
     62  CD2      -23.0080    4.7640   26.9870 C.3   277  LEU277      0.0001
     63  N        -23.8020    9.5400   27.1620 N.am  278  THR278     -0.1951
     64  CA       -24.8910   10.2020   27.8900 C.3   278  THR278      0.1897
     65  C        -26.1820    9.3920   28.0270 C.2   278  THR278      0.2313
     66  O        -26.8510    9.4890   29.0410 O.2   278  THR278     -0.2863
     67  CB       -25.2360   11.5860   27.2880 C.3   278  THR278      0.1794
     68  OG1      -25.7780   11.4410   25.9660 O.3   278  THR278     -0.2208
     69  CG2      -23.9990   12.4930   27.2490 C.3   278  THR278      0.0378
     70  N        -27.8090    7.3380   38.1370 N.3   367  ARG367     -0.1231
     71  CA       -26.7540    7.5040   39.1550 C.3   367  ARG367      0.1694
     72  C        -25.3420    7.0920   38.7130 C.2   367  ARG367      0.2592
     73  O        -24.3630    7.4750   39.3650 O.2   367  ARG367     -0.2718
     74  CB       -27.1420    6.7590   40.4280 C.3   367  ARG367      0.0321
     75  CG       -28.2570    7.4490   41.1830 C.3   367  ARG367      0.0489
     76  CD       -28.8100    6.5450   42.2650 C.3   367  ARG367      0.2205
     77  NE       -29.5990    7.2850   43.2410 N.pl3 367  ARG367     -0.0865
     78  CZ       -30.1280    6.7510   44.3400 C.cat 367  ARG367      0.5346
     79  NH1      -29.9810    5.4520   44.5930 N.pl3 367  ARG367      0.1354
     80  NH2      -30.8100    7.5150   45.1870 N.pl3 367  ARG367      0.1354
     81  N        -25.2210    6.3120   37.6360 N.am  368  ILE368     -0.1966
     82  CA       -23.9140    6.1100   37.0030 C.3   368  ILE368      0.1727
     83  C        -23.6910    7.0200   35.7770 C.2   368  ILE368      0.2616
     84  O        -22.7620    6.8040   35.0080 O.2   368  ILE368     -0.2715
     85  CB       -23.6100    4.6310   36.6610 C.3   368  ILE368      0.0290
     86  CG1      -24.5200    4.0930   35.5490 C.3   368  ILE368      0.0022
     87  CG2      -23.7020    3.7660   37.9030 C.3   368  ILE368      0.0023
     88  CD1      -23.9700    2.8370   34.9070 C.3   368  ILE368      0.0001
     89  N        -24.5300    8.0450   35.6230 N.am  369  GLY369     -0.1955
     90  CA       -24.3000    9.1110   34.6490 C.3   369  GLY369      0.1869
     91  C        -24.9220    8.8910   33.2870 C.2   369  GLY369      0.2309
     92  O        -24.4930    9.5060   32.3000 O.2   369  GLY369     -0.2863
@<TRIPOS>BOND
     1    61    60    1
     2    68    67    1
     3    60    62    1
     4    60    59    1
     5    56    59    1
     6    56    55    1
     7    56    57    1
     8    63    57   am
     9    63    64    1
    10    54    53    2
    11    69    67    1
    12    67    64    1
    13    55    53   am
    14    53    52    1
    15    57    58    2
    16    64    65    1
    17    65    66    2
    18    52    51    1
    19    37    38    1
    20    38    39    1
    21    38    41    1
    22    40    39    2
    23    39    43   am
    24    45    46    2
    25    45    44    1
    26    20    19    2
    27    43    44    1
    28    19    18    1
    29    41    42    1
    30    92    91    2
    31    44    47    1
    32    29    28    2
    33    28    27    1
    34    26    27    1
    35    91    90    1
    36    47    48    1
    37    18    21    1
    38    18    17    1
    39    13    12    2
    40    21    22    1
    41    14    15    1
    42    14    11    1
    43    27    30    1
    44    12    17   am
    45    12    11    1
    46    15    16    1
    47    90    89    1
    48    48    49   ar
    49    48    50   ar
    50     9     8    1
    51    11    10    1
    52    88    86    1
    53    16    10    1
    54    84    83    2
    55    22    23    1
    56     7     8    1
    57     7     6    1
    58    30    31    1
    59    10     3   am
    60    86    85    1
    61    89    83   am
    62    83    82    1
    63    23    24    1
    64     5     6    1
    65     5     2    1
    66    31    32    1
    67     3     4    2
    68     3     2    1
    69    85    82    1
    70    85    87    1
    71     2     1    1
    72    82    81    1
    73    24    25    1
    74    81    72   am
    75    32    33    1
    76    70    71    1
    77    33    34    2
    78    72    71    1
    79    72    73    2
    80    71    74    1
    81    34    36    1
    82    34    35    1
    83    74    75    1
    84    75    76    1
    85    76    77    1
    86    77    78    2
    87    78    79    1
    88    78    80    1
