@<TRIPOS>MOLECULE
tmp/4j3sA01.pdb
 137 133 0 0 0
SMALL
GASTEIGER

@<TRIPOS>ATOM
      1  N        -36.8890  -12.3620   23.2600 N.3   330  ASN330     -0.1225
      2  CA       -37.3770  -11.6520   22.0840 C.3   330  ASN330      0.1785
      3  C        -36.9630  -10.1960   22.1790 C.2   330  ASN330      0.2597
      4  O        -36.8890   -9.6470   23.2720 O.2   330  ASN330     -0.2718
      5  CB       -38.9030  -11.7420   21.9720 C.3   330  ASN330      0.1169
      6  CG       -39.4040  -11.4660   20.5640 C.2   330  ASN330      0.2627
      7  OD1      -39.5300  -10.3110   20.1420 O.2   330  ASN330     -0.2716
      8  ND2      -39.6960  -12.5300   19.8260 N.am  330  ASN330     -0.0877
      9  N        -36.7000   -9.5560   21.0480 N.am  331  TRP331     -0.1976
     10  CA       -36.4540   -8.1120   21.0780 C.3   331  TRP331      0.1640
     11  C        -37.6400   -7.3510   21.6760 C.2   331  TRP331      0.2290
     12  O        -37.4470   -6.3450   22.3780 O.2   331  TRP331     -0.2864
     13  CB       -36.1640   -7.5600   19.6950 C.3   331  TRP331      0.0576
     14  CG       -34.7870   -7.8210   19.1710 C.ar  331  TRP331      0.0006
     15  CD1      -33.6760   -8.2400   19.8680 C.ar  331  TRP331      0.0946
     16  CD2      -34.3620   -7.6110   17.8350 C.ar  331  TRP331      0.0152
     17  NE1      -32.6000   -8.3290   19.0250 N.ar  331  TRP331     -0.2442
     18  CE2      -32.9980   -7.9580   17.7660 C.ar  331  TRP331      0.0810
     19  CE3      -35.0140   -7.1930   16.6690 C.ar  331  TRP331      0.0012
     20  CZ2      -32.2760   -7.8920   16.5840 C.ar  331  TRP331      0.0191
     21  CZ3      -34.2920   -7.1400   15.4920 C.ar  331  TRP331      0.0001
     22  CH2      -32.9400   -7.4850   15.4580 C.ar  331  TRP331      0.0015
     23  N        -40.6700   -6.2950   19.8580 N.3   333  TYR333     -0.1227
     24  CA       -41.4380   -5.4090   18.9720 C.3   333  TYR333      0.1736
     25  C        -42.8330   -5.9840   18.6450 C.2   333  TYR333      0.2595
     26  O        -43.2700   -5.9670   17.4910 O.2   333  TYR333     -0.2718
     27  CB       -40.6340   -5.0830   17.6960 C.3   333  TYR333      0.0548
     28  CG       -39.3760   -4.2840   17.9830 C.ar  333  TYR333     -0.0200
     29  CD1      -39.4110   -2.8930   18.0470 C.ar  333  TYR333     -0.0009
     30  CD2      -38.1590   -4.9180   18.2170 C.ar  333  TYR333     -0.0009
     31  CE1      -38.2730   -2.1590   18.3350 C.ar  333  TYR333      0.0417
     32  CE2      -37.0140   -4.1910   18.4950 C.ar  333  TYR333      0.0417
     33  CZ       -37.0710   -2.8120   18.5480 C.ar  333  TYR333      0.1957
     34  OH       -35.9230   -2.1010   18.8350 O.3   333  TYR333     -0.2866
     35  N        -43.5300   -6.4460   19.6890 N.am  334  ASN334     -0.1974
     36  CA       -44.8400   -7.0990   19.5850 C.3   334  ASN334      0.1688
     37  C        -45.8150   -6.5110   20.6100 C.2   334  ASN334      0.2292
     38  O        -46.1740   -7.1670   21.5880 O.2   334  ASN334     -0.2864
     39  CB       -44.6950   -8.5970   19.8330 C.3   334  ASN334      0.1181
     40  CG       -43.6400   -9.2410   18.9540 C.2   334  ASN334      0.2629
     41  OD1      -43.5560   -8.9700   17.7590 O.2   334  ASN334     -0.2716
     42  ND2      -42.8410  -10.1130   19.5430 N.am  334  ASN334     -0.0877
     43  N        -47.6690   -0.4720   15.4990 N.3   380  HIS380     -0.1241
     44  CA       -48.4140   -1.7030   15.2540 C.3   380  HIS380      0.1621
     45  C        -48.7090   -2.4620   16.5360 C.2   380  HIS380      0.2264
     46  O        -48.1720   -2.1420   17.6040 O.2   380  HIS380     -0.2867
     47  CB       -47.6880   -2.5990   14.2290 C.3   380  HIS380      0.0745
     48  CG       -46.6320   -3.4840   14.8160 C.ar  380  HIS380      0.0817
     49  ND1      -45.3410   -3.0560   15.0420 N.ar  380  HIS380     -0.2268
     50  CD2      -46.6730   -4.7790   15.2120 C.ar  380  HIS380      0.1154
     51  CE1      -44.6350   -4.0460   15.5590 C.ar  380  HIS380      0.1986
     52  NE2      -45.4220   -5.1010   15.6790 N.ar  380  HIS380     -0.2212
     53  N        -50.5680   -4.2790    7.1930 N.3   412  ASN412     -0.1240
     54  CA       -49.5370   -5.0370    7.9180 C.3   412  ASN412      0.1653
     55  C        -48.0870   -4.6420    7.5810 C.2   412  ASN412      0.2266
     56  O        -47.1510   -5.3590    7.9330 O.2   412  ASN412     -0.2867
     57  CB       -49.7250   -6.5370    7.6630 C.3   412  ASN412      0.1155
     58  CG       -51.0740   -7.0560    8.1390 C.2   412  ASN412      0.2627
     59  OD1      -51.4700   -6.8410    9.2850 O.2   412  ASN412     -0.2716
     60  ND2      -51.7790   -7.7660    7.2620 N.am  412  ASN412     -0.0877
     61  N        -45.2700   -4.8260   10.2030 N.3   415  ALA415     -0.1231
     62  CA       -44.9820   -6.2160   10.6100 C.3   415  ALA415      0.1694
     63  C        -46.3210   -6.9500   10.6110 C.2   415  ALA415      0.2591
     64  O        -46.5030   -7.9580    9.9210 O.2   415  ALA415     -0.2718
     65  CB       -44.3380   -6.2950   11.9940 C.3   415  ALA415      0.0304
     66  N        -47.2560   -6.4180   11.3910 N.am  416  MET416     -0.1979
     67  CA       -48.6420   -6.8950   11.4340 C.3   416  MET416      0.1605
     68  C        -49.4800   -5.8650   12.1820 C.2   416  MET416      0.2287
     69  O        -48.9660   -5.1890   13.0610 O.2   416  MET416     -0.2864
     70  CB       -48.7220   -8.2550   12.1470 C.3   416  MET416      0.0413
     71  CG       -48.4060   -8.2050   13.6430 C.3   416  MET416      0.0598
     72  SD       -47.3580   -9.5480   14.2230 S.3   416  MET416     -0.1393
     73  CE       -45.8360   -9.0740   13.4300 C.3   416  MET416      0.0692
     74  N        -39.9240    3.6030   16.9940 N.3   449  ASP449     -0.1239
     75  CA       -39.9120    2.5590   15.9780 C.3   449  ASP449      0.1674
     76  C        -40.8700    2.9580   14.8520 C.2   449  ASP449      0.2266
     77  O        -42.0070    3.3570   15.1200 O.2   449  ASP449     -0.2867
     78  CB       -40.3650    1.2440   16.6170 C.3   449  ASP449      0.1410
     79  CG       -40.2080    0.0590   15.7000 C.2   449  ASP449      0.3668
     80  OD1      -39.0540   -0.3160   15.4080 O.co2 449  ASP449     -0.2456
     81  OD2      -41.2500   -0.5150   15.3010 O.co2 449  ASP449     -0.2456
     82  N        -29.4060   -2.8080   16.3780 N.3   611  HIS611     -0.1226
     83  CA       -29.8920   -4.1690   16.6110 C.3   611  HIS611      0.1752
     84  C        -30.3250   -4.8280   15.2940 C.2   611  HIS611      0.2596
     85  O        -30.0950   -6.0230   15.1020 O.2   611  HIS611     -0.2718
     86  CB       -31.0220   -4.1820   17.6550 C.3   611  HIS611      0.0759
     87  CG       -32.3020   -3.5700   17.1800 C.ar  611  HIS611      0.0818
     88  ND1      -32.5170   -2.2100   17.1570 N.ar  611  HIS611     -0.2268
     89  CD2      -33.4370   -4.1370   16.7120 C.ar  611  HIS611      0.1154
     90  CE1      -33.7290   -1.9660   16.6900 C.ar  611  HIS611      0.1986
     91  NE2      -34.3050   -3.1190   16.4030 N.ar  611  HIS611     -0.2212
     92  N        -30.9250   -4.0440   14.3910 N.am  612  ASP612     -0.1974
     93  CA       -31.3500   -4.5380   13.0730 C.3   612  ASP612      0.1709
     94  C        -30.1410   -4.7910   12.1920 C.2   612  ASP612      0.2293
     95  O        -29.1450   -4.0670   12.2790 O.2   612  ASP612     -0.2864
     96  CB       -32.2320   -3.5120   12.3450 C.3   612  ASP612      0.1436
     97  CG       -33.6290   -3.4240   12.9070 C.2   612  ASP612      0.3671
     98  OD1      -34.2620   -4.4680   13.1560 O.co2 612  ASP612     -0.2456
     99  OD2      -34.1060   -2.2910   13.0840 O.co2 612  ASP612     -0.2456
    100  N        -31.0490  -10.7050   11.3910 N.3   668  ASP668     -0.1239
    101  CA       -32.2820  -10.2990   12.0810 C.3   668  ASP668      0.1674
    102  C        -32.5260  -11.2020   13.2770 C.2   668  ASP668      0.2266
    103  O        -33.3410  -12.1340   13.2220 O.2   668  ASP668     -0.2867
    104  CB       -33.4770  -10.3300   11.1080 C.3   668  ASP668      0.1410
    105  CG       -34.7550   -9.7330   11.7090 C.2   668  ASP668      0.3668
    106  OD1      -34.7150   -9.2110   12.8460 O.co2 668  ASP668     -0.2456
    107  OD2      -35.8090   -9.7880   11.0370 O.co2 668  ASP668     -0.2456
    108  N        -33.9230  -11.0860   16.2190 N.3   670  TYR670     -0.1241
    109  CA       -35.0450  -10.8200   17.1340 C.3   670  TYR670      0.1605
    110  C        -35.5520  -12.0090   17.9480 C.2   670  TYR670      0.2264
    111  O        -35.9940  -11.8450   19.0930 O.2   670  TYR670     -0.2867
    112  CB       -36.2280  -10.1970   16.3650 C.3   670  TYR670      0.0534
    113  CG       -37.0630  -11.1900   15.5730 C.ar  670  TYR670     -0.0201
    114  CD1      -36.5800  -11.7500   14.3940 C.ar  670  TYR670     -0.0009
    115  CD2      -38.3320  -11.5620   16.0030 C.ar  670  TYR670     -0.0009
    116  CE1      -37.3360  -12.6520   13.6670 C.ar  670  TYR670      0.0417
    117  CE2      -39.0990  -12.4720   15.2850 C.ar  670  TYR670      0.0417
    118  CZ       -38.5960  -13.0170   14.1200 C.ar  670  TYR670      0.1957
    119  OH       -39.3550  -13.9210   13.3960 O.3   670  TYR670     -0.2866
    120  N        -34.6290  -19.0150    8.8800 N.3   696  GLU696     -0.1231
    121  CA       -35.7400  -18.0990    8.5890 C.3   696  GLU696      0.1699
    122  C        -35.2690  -16.8320    7.8660 C.2   696  GLU696      0.2592
    123  O        -35.7930  -16.4810    6.8150 O.2   696  GLU696     -0.2718
    124  CB       -36.4760  -17.7310    9.8980 C.3   696  GLU696      0.0402
    125  CG       -37.5970  -16.6970    9.7700 C.3   696  GLU696      0.1161
    126  CD       -38.0210  -16.0930   11.1110 C.2   696  GLU696      0.3649
    127  OE1      -37.7930  -16.7180   12.1670 O.co2 696  GLU696     -0.2457
    128  OE2      -38.5880  -14.9810   11.1150 O.co2 696  GLU696     -0.2457
    129  N        -34.2750  -16.1540    8.4260 N.am  697  LYS697     -0.1980
    130  CA       -33.8270  -14.8670    7.8840 C.3   697  LYS697      0.1596
    131  C        -32.4850  -14.9300    7.1500 C.2   697  LYS697      0.2287
    132  O        -32.0750  -13.9510    6.5280 O.2   697  LYS697     -0.2864
    133  CB       -33.7460  -13.8410    9.0180 C.3   697  LYS697      0.0298
    134  CG       -35.0900  -13.5350    9.6640 C.3   697  LYS697      0.0038
    135  CD       -35.9840  -12.7380    8.7240 C.3   697  LYS697      0.0206
    136  CE       -37.2840  -12.3370    9.3980 C.3   697  LYS697      0.1093
    137  NZ       -38.0910  -11.4510    8.5240 N.3   697  LYS697     -0.1314
@<TRIPOS>BOND
     1   132   131    2
     2   123   122    2
     3   131   130    1
     4    53    54    1
     5    60    58   am
     6    55    54    1
     7    55    56    2
     8    57    54    1
     9    57    58    1
    10   122   129   am
    11   122   121    1
    12   130   129    1
    13   130   133    1
    14    58    59    2
    15   137   136    1
    16   121   120    1
    17   121   124    1
    18   135   136    1
    19   135   134    1
    20   133   134    1
    21   125   124    1
    22   125   126    1
    23    64    63    2
    24    61    62    1
    25    62    63    1
    26    62    65    1
    27    63    66   am
    28   107   105   ar
    29   104   105    1
    30   104   101    1
    31   126   128   ar
    32   126   127   ar
    33    66    67    1
    34   100   101    1
    35    67    70    1
    36    67    68    1
    37   105   106   ar
    38   101   102    1
    39    70    71    1
    40    68    69    2
    41    94    95    2
    42    94    93    1
    43    96    97    1
    44    96    93    1
    45    97    99   ar
    46    97    98   ar
    47    93    92    1
    48   103   102    2
    49   119   118    1
    50    73    72    1
    51    71    72    1
    52   116   118   ar
    53   116   114   ar
    54   118   117   ar
    55    47    48    1
    56    47    44    1
    57    92    84   am
    58   114   113   ar
    59    48    49   ar
    60    48    50   ar
    61    76    77    2
    62    76    75    1
    63    49    51   ar
    64    85    84    2
    65    50    52   ar
    66    44    43    1
    67    44    45    1
    68   117   115   ar
    69    84    83    1
    70    81    79   ar
    71    80    79   ar
    72    22    21   ar
    73    22    20   ar
    74    21    19   ar
    75    51    52   ar
    76   113   115   ar
    77   113   112    1
    78    79    78    1
    79    75    78    1
    80    75    74    1
    81   108   109    1
    82   112   109    1
    83    82    83    1
    84    91    90   ar
    85    91    89   ar
    86    45    46    2
    87    20    18   ar
    88    83    86    1
    89    19    16   ar
    90    90    88   ar
    91    89    87   ar
    92   109   110    1
    93    88    87   ar
    94    87    86    1
    95    26    25    2
    96    27    28    1
    97    27    24    1
    98    41    40    2
    99    18    16   ar
   100    18    17   ar
   101    16    14   ar
   102   110   111    2
   103    28    29   ar
   104    28    30   ar
   105    29    31   ar
   106    30    32   ar
   107    31    33   ar
   108    32    33   ar
   109    33    34    1
   110    25    24    1
   111    25    35   am
   112    40    42   am
   113    40    39    1
   114    24    23    1
   115    17    15   ar
   116    14    13    1
   117    14    15   ar
   118    36    35    1
   119    36    39    1
   120    36    37    1
   121    13    10    1
   122     8     6   am
   123     7     6    2
   124     6     5    1
   125    37    38    2
   126     9    10    1
   127     9     3   am
   128    10    11    1
   129    11    12    2
   130     5     2    1
   131     2     3    1
   132     2     1    1
   133     3     4    2
