@<TRIPOS>MOLECULE
tmp/4j3tA00.pdb
 208 203 0 0 0
SMALL
GASTEIGER

@<TRIPOS>ATOM
      1  N         34.9660  -14.1550  -21.7650 N.3   340  TRP340     -0.1241
      2  CA        34.7420  -12.7070  -21.8990 C.3   340  TRP340      0.1605
      3  C         35.9050  -11.9890  -22.6250 C.2   340  TRP340      0.2264
      4  O         35.6680  -11.0280  -23.3560 O.2   340  TRP340     -0.2867
      5  CB        34.5490  -12.0510  -20.5370 C.3   340  TRP340      0.0550
      6  CG        33.2240  -12.2280  -19.9080 C.ar  340  TRP340      0.0003
      7  CD1       32.0350  -12.6360  -20.4950 C.ar  340  TRP340      0.0946
      8  CD2       32.9130  -11.9180  -18.5600 C.ar  340  TRP340      0.0152
      9  NE1       31.0370  -12.6280  -19.5610 N.ar  340  TRP340     -0.2442
     10  CE2       31.5480  -12.2040  -18.3620 C.ar  340  TRP340      0.0810
     11  CE3       33.6760  -11.4840  -17.4680 C.ar  340  TRP340      0.0012
     12  CZ2       30.9240  -12.0460  -17.1230 C.ar  340  TRP340      0.0191
     13  CZ3       33.0570  -11.3390  -16.2480 C.ar  340  TRP340      0.0001
     14  CH2       31.6980  -11.6110  -16.0810 C.ar  340  TRP340      0.0015
     15  N         47.3440   -7.3660   -8.5520 N.3   422  SER422     -0.1202
     16  CA        46.0190   -6.9160   -8.0970 C.3   422  SER422      0.2020
     17  C         44.9610   -6.7250   -9.1930 C.2   422  SER422      0.2619
     18  O         43.7670   -6.7730   -8.9010 O.2   422  SER422     -0.2717
     19  CB        46.1240   -5.6150   -7.3090 C.3   422  SER422      0.2103
     20  OG        46.5930   -4.5720   -8.1320 O.3   422  SER422     -0.2182
     21  N         45.3990   -6.5040  -10.4290 N.am  423  ALA423     -0.1965
     22  CA        44.4900   -6.3190  -11.5760 C.3   423  ALA423      0.1728
     23  C         44.4030   -7.6010  -12.3920 C.2   423  ALA423      0.2616
     24  O         44.6650   -7.5970  -13.5970 O.2   423  ALA423     -0.2715
     25  CB        44.9740   -5.1820  -12.4680 C.3   423  ALA423      0.0334
     26  N         44.0740   -8.7010  -11.7350 N.am  424  ALA424     -0.1977
     27  CA        43.8610   -9.9880  -12.4130 C.3   424  ALA424      0.1597
     28  C         45.1430  -10.6140  -12.9810 C.2   424  ALA424      0.2287
     29  O         45.1030  -11.2930  -14.0110 O.2   424  ALA424     -0.2864
     30  CB        42.8160   -9.8330  -13.5120 C.3   424  ALA424      0.0319
     31  N         38.7940   -0.8580  -18.8080 N.3   458  ASP458     -0.1225
     32  CA        38.8600   -1.8310  -17.7300 C.3   458  ASP458      0.1805
     33  C         39.8830   -1.3500  -16.6910 C.2   458  ASP458      0.2597
     34  O         40.9880   -0.9140  -17.0610 O.2   458  ASP458     -0.2718
     35  CB        39.2930   -3.1700  -18.3300 C.3   458  ASP458      0.1424
     36  CG        39.1370   -4.3170  -17.3710 C.2   458  ASP458      0.3668
     37  OD1       37.9900   -4.6500  -17.0090 O.co2 458  ASP458     -0.2456
     38  OD2       40.1900   -4.8820  -16.9870 O.co2 458  ASP458     -0.2456
     39  N         39.5100   -1.4300  -15.4130 N.am  459  LEU459     -0.1979
     40  CA        40.3940   -1.0700  -14.2960 C.3   459  LEU459      0.1596
     41  C         41.2090    0.2010  -14.6060 C.2   459  LEU459      0.2287
     42  O         42.4490    0.2240  -14.5750 O.2   459  LEU459     -0.2864
     43  CB        41.2760   -2.2770  -13.9260 C.3   459  LEU459      0.0297
     44  CG        40.5160   -3.4740  -13.3220 C.3   459  LEU459      0.0022
     45  CD1       41.4310   -4.6660  -13.1570 C.3   459  LEU459      0.0001
     46  CD2       39.9010   -3.1370  -11.9770 C.3   459  LEU459      0.0001
     47  N         36.2640    2.0230  -15.4350 N.3   495  GLU495     -0.1245
     48  CA        36.1090    1.6100  -14.0480 C.3   495  GLU495      0.1567
     49  C         37.1400    2.3440  -13.2040 C.2   495  GLU495      0.2260
     50  O         38.3180    2.0150  -13.2430 O.2   495  GLU495     -0.2867
     51  CB        36.3920    0.1180  -13.9040 C.3   495  GLU495      0.0388
     52  CG        35.4610   -0.8750  -14.5900 C.3   495  GLU495      0.1160
     53  CD        35.9330   -2.2920  -14.2750 C.2   495  GLU495      0.3649
     54  OE1       37.0450   -2.6670  -14.7210 O.co2 495  GLU495     -0.2457
     55  OE2       35.2330   -3.0070  -13.5310 O.co2 495  GLU495     -0.2457
     56  N         37.9410    2.2670  -10.1540 N.3   497  TRP497     -0.1241
     57  CA        38.1550    1.6360   -8.8560 C.3   497  TRP497      0.1605
     58  C         39.5610    1.9250   -8.3230 C.2   497  TRP497      0.2264
     59  O         40.5460    1.8920   -9.0550 O.2   497  TRP497     -0.2867
     60  CB        37.9100    0.1290   -8.9150 C.3   497  TRP497      0.0550
     61  CG        36.6870   -0.3130   -9.6770 C.ar  497  TRP497      0.0003
     62  CD1       36.6270   -1.3490  -10.5640 C.ar  497  TRP497      0.0946
     63  CD2       35.3500    0.2360   -9.6140 C.ar  497  TRP497      0.0152
     64  NE1       35.3550   -1.4820  -11.0510 N.ar  497  TRP497     -0.2442
     65  CE2       34.5510   -0.5270  -10.4940 C.ar  497  TRP497      0.0810
     66  CE3       34.7500    1.2880   -8.8980 C.ar  497  TRP497      0.0012
     67  CZ2       33.1980   -0.2620  -10.6940 C.ar  497  TRP497      0.0191
     68  CZ3       33.3930    1.5410   -9.0920 C.ar  497  TRP497      0.0001
     69  CH2       32.6380    0.7680   -9.9920 C.ar  497  TRP497      0.0015
     70  N         42.2500    0.7680   -5.5380 N.3   499  PHE499     -0.1241
     71  CA        42.6390   -0.2540   -4.5650 C.3   499  PHE499      0.1605
     72  C         44.0670   -0.7600   -4.7420 C.2   499  PHE499      0.2264
     73  O         44.7470   -0.4240   -5.7070 O.2   499  PHE499     -0.2867
     74  CB        41.6240   -1.4090   -4.5560 C.3   499  PHE499      0.0534
     75  CG        41.5160   -2.1830   -5.8540 C.ar  499  PHE499     -0.0203
     76  CD1       40.6830   -1.7540   -6.8860 C.ar  499  PHE499     -0.0042
     77  CD2       42.2140   -3.3660   -6.0230 C.ar  499  PHE499     -0.0042
     78  CE1       40.5740   -2.4890   -8.0620 C.ar  499  PHE499     -0.0003
     79  CE2       42.1010   -4.1090   -7.1880 C.ar  499  PHE499     -0.0003
     80  CZ        41.2880   -3.6650   -8.2150 C.ar  499  PHE499     -0.0000
     81  N         28.9890    3.3110   -8.9480 N.3   526  ASP526     -0.1239
     82  CA        28.6190    2.2110   -8.0840 C.3   526  ASP526      0.1674
     83  C         27.6640    2.5930   -6.9430 C.2   526  ASP526      0.2266
     84  O         26.9720    1.7390   -6.3960 O.2   526  ASP526     -0.2867
     85  CB        29.8770    1.5040   -7.5470 C.3   526  ASP526      0.1410
     86  CG        30.8050    2.4200   -6.7430 C.2   526  ASP526      0.3668
     87  OD1       31.0210    3.6070   -7.0990 O.co2 526  ASP526     -0.2456
     88  OD2       31.3650    1.9090   -5.7510 O.co2 526  ASP526     -0.2456
     89  N         24.0580    2.1430   -8.2810 N.3   529  ARG529     -0.1231
     90  CA        23.8890    0.7130   -8.4430 C.3   529  ARG529      0.1694
     91  C         23.5240    0.0480   -7.1130 C.2   529  ARG529      0.2592
     92  O         22.5070   -0.6520   -6.9890 O.2   529  ARG529     -0.2718
     93  CB        25.1820    0.0980   -8.9730 C.3   529  ARG529      0.0321
     94  CG        25.1150   -1.4020   -9.1640 C.3   529  ARG529      0.0489
     95  CD        26.5080   -1.9640   -9.3400 C.3   529  ARG529      0.2205
     96  NE        27.2160   -1.9460   -8.0680 N.pl3 529  ARG529     -0.0865
     97  CZ        28.5380   -2.0420   -7.9340 C.cat 529  ARG529      0.5346
     98  NH1       29.3250   -2.1670   -8.9980 N.pl3 529  ARG529      0.1354
     99  NH2       29.0750   -1.9980   -6.7240 N.pl3 529  ARG529      0.1354
    100  N         24.3660    0.2860   -6.1210 N.am  530  ASP530     -0.1974
    101  CA        24.1940   -0.3460   -4.8230 C.3   530  ASP530      0.1709
    102  C         22.9780    0.1550   -4.0320 C.2   530  ASP530      0.2293
    103  O         22.3540   -0.6160   -3.3050 O.2   530  ASP530     -0.2864
    104  CB        25.4790   -0.2080   -4.0100 C.3   530  ASP530      0.1436
    105  CG        26.6020   -1.1290   -4.5210 C.2   530  ASP530      0.3671
    106  OD1       26.3320   -2.0490   -5.3280 O.co2 530  ASP530     -0.2456
    107  OD2       27.7650   -0.9420   -4.1010 O.co2 530  ASP530     -0.2456
    108  N         26.0140   -4.7480   -1.7790 N.3   536  ASN536     -0.1226
    109  CA        27.1350   -4.6350   -2.6900 C.3   536  ASN536      0.1770
    110  C         27.4660   -6.0240   -3.2390 C.2   536  ASN536      0.2439
    111  O         27.2990   -7.0210   -2.5470 O.2   536  ASN536     -0.2733
    112  CB        28.3360   -3.9880   -1.9850 C.3   536  ASN536      0.1168
    113  CG        28.8320   -4.7900   -0.7930 C.2   536  ASN536      0.2627
    114  OD1       29.5910   -5.7390   -0.9530 O.2   536  ASN536     -0.2716
    115  ND2       28.4320   -4.3870    0.4100 N.am  536  ASN536     -0.0877
    116  N         27.9210   -6.0950   -4.5020 N.am  537  PRO537     -0.2718
    117  CA        28.0850   -7.4300   -5.0900 C.3   537  PRO537      0.1535
    118  C         28.9000   -8.4080   -4.2370 C.2   537  PRO537      0.2598
    119  O         28.7810   -9.6180   -4.4270 O.2   537  PRO537     -0.2715
    120  CB        28.8030   -7.1500   -6.4150 C.3   537  PRO537      0.0310
    121  CG        28.4940   -5.7250   -6.7320 C.3   537  PRO537      0.0237
    122  CD        28.3410   -5.0210   -5.4260 C.3   537  PRO537      0.0939
    123  N         29.7180   -7.8890   -3.3220 N.am  538  PHE538     -0.1974
    124  CA        30.5470   -8.7300   -2.4670 C.3   538  PHE538      0.1639
    125  C         30.0780   -8.7410   -1.0140 C.2   538  PHE538      0.2290
    126  O         30.7670   -9.2640   -0.1350 O.2   538  PHE538     -0.2864
    127  CB        32.0060   -8.3040   -2.6280 C.3   538  PHE538      0.0560
    128  CG        32.4870   -8.4320   -4.0520 C.ar  538  PHE538     -0.0200
    129  CD1       32.8540   -9.6700   -4.5570 C.ar  538  PHE538     -0.0042
    130  CD2       32.5030   -7.3350   -4.9020 C.ar  538  PHE538     -0.0042
    131  CE1       33.2630   -9.8100   -5.8720 C.ar  538  PHE538     -0.0003
    132  CE2       32.9110   -7.4640   -6.2180 C.ar  538  PHE538     -0.0003
    133  CZ        33.2980   -8.7050   -6.7030 C.ar  538  PHE538     -0.0000
    134  N         29.9230    4.3950    2.8050 N.3   605  PHE605     -0.1227
    135  CA        30.2790    3.6920    4.0470 C.3   605  PHE605      0.1736
    136  C         31.7510    3.8560    4.4450 C.2   605  PHE605      0.2595
    137  O         32.1040    3.6120    5.5950 O.2   605  PHE605     -0.2718
    138  CB        29.9490    2.2040    3.9270 C.3   605  PHE605      0.0547
    139  CG        28.4970    1.8450    3.9890 C.ar  605  PHE605     -0.0202
    140  CD1       27.5870    2.5460    4.7880 C.ar  605  PHE605     -0.0042
    141  CD2       28.0390    0.7470    3.2360 C.ar  605  PHE605     -0.0042
    142  CE1       26.2660    2.1480    4.8640 C.ar  605  PHE605     -0.0003
    143  CE2       26.7070    0.3580    3.2970 C.ar  605  PHE605     -0.0003
    144  CZ        25.8220    1.0630    4.1280 C.ar  605  PHE605     -0.0000
    145  N         32.6010    4.2540    3.5000 N.am  606  ASP606     -0.1974
    146  CA        34.0250    4.4890    3.7620 C.3   606  ASP606      0.1709
    147  C         34.3790    5.9850    3.8990 C.2   606  ASP606      0.2293
    148  O         35.5600    6.3420    3.9460 O.2   606  ASP606     -0.2864
    149  CB        34.8710    3.8600    2.6470 C.3   606  ASP606      0.1436
    150  CG        34.4980    2.4060    2.3690 C.2   606  ASP606      0.3671
    151  OD1       33.2890    2.0930    2.2720 O.co2 606  ASP606     -0.2456
    152  OD2       35.4180    1.5760    2.2270 O.co2 606  ASP606     -0.2456
    153  N         24.4270    3.0370  -13.8060 N.3   622  TYR622     -0.1241
    154  CA        24.0960    1.6410  -14.0820 C.3   622  TYR622      0.1605
    155  C         23.5750    0.9130  -12.8570 C.2   622  TYR622      0.2264
    156  O         23.8500    1.3170  -11.7130 O.2   622  TYR622     -0.2867
    157  CB        25.2860    0.8810  -14.6630 C.3   622  TYR622      0.0534
    158  CG        26.4300    0.4700  -13.7470 C.ar  622  TYR622     -0.0201
    159  CD1       26.9640    1.3270  -12.7750 C.ar  622  TYR622     -0.0009
    160  CD2       27.0450   -0.7750  -13.9120 C.ar  622  TYR622     -0.0009
    161  CE1       28.0360    0.9380  -11.9800 C.ar  622  TYR622      0.0417
    162  CE2       28.1250   -1.1650  -13.1260 C.ar  622  TYR622      0.0417
    163  CZ        28.6190   -0.3120  -12.1720 C.ar  622  TYR622      0.1957
    164  OH        29.7090   -0.6890  -11.4130 O.3   622  TYR622     -0.2866
    165  N         29.7140   -7.9790  -15.2770 N.3   627  ASP627     -0.1225
    166  CA        30.2090   -8.4320  -13.9630 C.3   627  ASP627      0.1805
    167  C         29.0510   -8.5940  -12.9870 C.2   627  ASP627      0.2597
    168  O         28.0760   -7.8440  -13.0460 O.2   627  ASP627     -0.2718
    169  CB        31.1710   -7.4070  -13.3590 C.3   627  ASP627      0.1424
    170  CG        32.5480   -7.4270  -13.9890 C.2   627  ASP627      0.3668
    171  OD1       33.1420   -8.5210  -14.1280 O.co2 627  ASP627     -0.2456
    172  OD2       33.0550   -6.3270  -14.3160 O.co2 627  ASP627     -0.2456
    173  N         29.1900   -9.5360  -12.0530 N.am  628  ASN628     -0.1974
    174  CA        28.1690   -9.7820  -11.0340 C.3   628  ASN628      0.1688
    175  C         26.8520  -10.2950  -11.6270 C.2   628  ASN628      0.2292
    176  O         26.8150  -10.7590  -12.7800 O.2   628  ASN628     -0.2864
    177  CB        27.9910   -8.5340  -10.1640 C.3   628  ASN628      0.1181
    178  CG        29.3170   -7.9610   -9.7480 C.2   628  ASN628      0.2629
    179  OD1       30.1360   -8.6710   -9.1620 O.2   628  ASN628     -0.2716
    180  ND2       29.5790   -6.7290  -10.1180 N.am  628  ASN628     -0.0877
    181  N         27.3530  -15.3010  -10.5990 N.3   682  ARG682     -0.1231
    182  CA        27.8950  -13.9840  -10.2380 C.3   682  ARG682      0.1694
    183  C         29.1300  -13.5520  -11.0390 C.2   682  ARG682      0.2592
    184  O         29.5770  -12.4220  -10.8970 O.2   682  ARG682     -0.2718
    185  CB        28.2140  -13.8990   -8.7380 C.3   682  ARG682      0.0321
    186  CG        29.4450  -14.6580   -8.2760 C.3   682  ARG682      0.0489
    187  CD        29.8420  -14.2510   -6.8640 C.3   682  ARG682      0.2205
    188  NE        30.9430  -15.0660   -6.3570 N.pl3 682  ARG682     -0.0865
    189  CZ        32.2270  -14.7080   -6.3110 C.cat 682  ARG682      0.5346
    190  NH1       32.6390  -13.5170   -6.7440 N.pl3 682  ARG682      0.1354
    191  NH2       33.1180  -15.5630   -5.8180 N.pl3 682  ARG682      0.1354
    192  N         29.7090  -14.4490  -11.8340 N.am  683  ASP683     -0.1974
    193  CA        30.9570  -14.1570  -12.5290 C.3   683  ASP683      0.1709
    194  C         31.1080  -15.1180  -13.6990 C.2   683  ASP683      0.2293
    195  O         31.8570  -16.0890  -13.6290 O.2   683  ASP683     -0.2864
    196  CB        32.1320  -14.2640  -11.5490 C.3   683  ASP683      0.1436
    197  CG        33.4640  -13.8110  -12.1460 C.2   683  ASP683      0.3671
    198  OD1       33.4860  -13.2240  -13.2550 O.co2 683  ASP683     -0.2456
    199  OD2       34.5030  -14.0510  -11.4950 O.co2 683  ASP683     -0.2456
    200  N         32.9810  -19.9790   -8.4640 N.3   712  LYS712     -0.1245
    201  CA        32.5800  -18.6480   -7.9910 C.3   712  LYS712      0.1561
    202  C         31.2510  -18.5970   -7.2290 C.2   712  LYS712      0.2260
    203  O         30.9470  -17.5890   -6.6020 O.2   712  LYS712     -0.2867
    204  CB        32.5180  -17.6560   -9.1610 C.3   712  LYS712      0.0271
    205  CG        33.8260  -17.5010   -9.9190 C.3   712  LYS712      0.0035
    206  CD        34.9530  -16.9510   -9.0510 C.3   712  LYS712      0.0206
    207  CE        36.2360  -16.8770   -9.8650 C.3   712  LYS712      0.1093
    208  NZ        37.3260  -16.2030   -9.1190 N.3   712  LYS712     -0.1314
@<TRIPOS>BOND
     1     4     3    2
     2     3     2    1
     3     2     1    1
     4     2     5    1
     5     5     6    1
     6     7     6   ar
     7     7     9   ar
     8     6     8   ar
     9     9    10   ar
    10    31    32    1
    11     8    10   ar
    12     8    11   ar
    13    10    12   ar
    14    35    32    1
    15    35    36    1
    16    32    33    1
    17    11    13   ar
    18    36    37   ar
    19    36    38   ar
    20    12    14   ar
    21    34    33    2
    22    33    39   am
    23    13    14   ar
    24    47    48    1
    25    39    40    1
    26   165   166    1
    27    54    53   ar
    28   157   154    1
    29   157   158    1
    30    41    42    2
    31    41    40    1
    32    52    53    1
    33    52    51    1
    34   172   170   ar
    35    40    43    1
    36    53    55   ar
    37   171   170   ar
    38   154   153    1
    39   154   155    1
    40    48    51    1
    41    48    49    1
    42    29    28    2
    43   170   169    1
    44   166   169    1
    45   166   167    1
    46    43    44    1
    47   160   158   ar
    48   160   162   ar
    49   158   159   ar
    50   194   195    2
    51   194   193    1
    52    24    23    2
    53    30    27    1
    54    44    45    1
    55    44    46    1
    56   198   197   ar
    57    50    49    2
    58   162   163   ar
    59   168   167    2
    60   167   173   am
    61    28    27    1
    62   155   156    2
    63   176   175    2
    64   159   161   ar
    65   193   192    1
    66   193   196    1
    67    25    22    1
    68    27    26    1
    69    23    26   am
    70    23    22    1
    71   163   161   ar
    72   163   164    1
    73   197   196    1
    74   197   199   ar
    75   173   174    1
    76   192   183   am
    77   175   174    1
    78    22    21    1
    79    64    62   ar
    80    64    65   ar
    81   183   184    2
    82   183   182    1
    83   174   177    1
    84    67    65   ar
    85    67    69   ar
    86   181   182    1
    87    62    61   ar
    88    65    63   ar
    89    21    17   am
    90   182   185    1
    91   177   178    1
    92    56    57    1
    93   180   178   am
    94    69    68   ar
    95   205   204    1
    96   205   206    1
    97   207   208    1
    98   207   206    1
    99   178   179    2
   100    61    63   ar
   101    61    60    1
   102    63    66   ar
   103    95    94    1
   104    95    96    1
   105    17    18    2
   106    17    16    1
   107    94    93    1
   108   204   201    1
   109    68    66   ar
   110    59    58    2
   111    98    97    1
   112    93    90    1
   113    81    82    1
   114    60    57    1
   115    57    58    1
   116   185   186    1
   117    15    16    1
   118   200   201    1
   119    90    89    1
   120    90    91    1
   121   186   187    1
   122    80    78   ar
   123    80    79   ar
   124    20    19    1
   125    16    19    1
   126    82    85    1
   127    82    83    1
   128    96    97    2
   129    78    76   ar
   130   201   202    1
   131    97    99    1
   132    85    86    1
   133   202   203    2
   134    79    77   ar
   135    91    92    2
   136    91   100   am
   137    87    86   ar
   138    83    84    2
   139    76    75   ar
   140   187   188    1
   141   190   189    1
   142    86    88   ar
   143   121   120    1
   144   121   122    1
   145   133   132   ar
   146   133   131   ar
   147   120   117    1
   148   188   189    2
   149   189   191    1
   150   132   130   ar
   151   100   101    1
   152    77    75   ar
   153   131   129   ar
   154    75    74    1
   155    73    72    2
   156    70    71    1
   157   122   116    1
   158   106   105   ar
   159   117   116    1
   160   117   118    1
   161   130   128   ar
   162   101   102    1
   163   101   104    1
   164    72    71    1
   165    71    74    1
   166   129   128   ar
   167   105   107   ar
   168   105   104    1
   169   116   110   am
   170   119   118    2
   171   118   123   am
   172   128   127    1
   173   102   103    2
   174   123   124    1
   175   110   109    1
   176   110   111    2
   177   109   112    1
   178   109   108    1
   179   127   124    1
   180   124   125    1
   181   112   113    1
   182   125   126    2
   183   114   113    2
   184   113   115   am
   185   152   150   ar
   186   151   150   ar
   187   150   149    1
   188   149   146    1
   189   134   135    1
   190   141   143   ar
   191   141   139   ar
   192   143   144   ar
   193   145   146    1
   194   145   136   am
   195   146   147    1
   196   147   148    2
   197   138   139    1
   198   138   135    1
   199   139   140   ar
   200   135   136    1
   201   144   142   ar
   202   136   137    2
   203   140   142   ar
