@<TRIPOS>MOLECULE
tmp/4j3uA00.pdb
 187 182 0 0 0
SMALL
GASTEIGER

@<TRIPOS>ATOM
      1  N        143.2950    4.9330   10.2270 N.3   423  ALA423     -0.1245
      2  CA       141.8570    4.8240   10.5150 C.3   423  ALA423      0.1562
      3  C        141.1820    6.2000   10.5200 C.2   423  ALA423      0.2260
      4  O        140.0030    6.3200   10.1730 O.2   423  ALA423     -0.2867
      5  CB       141.6310    4.1180   11.8420 C.3   423  ALA423      0.0290
      6  N        135.6750   -0.0960   10.7680 N.3   459  LEU459     -0.1245
      7  CA       137.0100   -0.5500   10.3520 C.3   459  LEU459      0.1561
      8  C        137.4760   -1.8290   11.0590 C.2   459  LEU459      0.2260
      9  O        138.5010   -1.8540   11.7440 O.2   459  LEU459     -0.2867
     10  CB       138.0370    0.5770   10.4940 C.3   459  LEU459      0.0270
     11  CG       137.7630    1.8040    9.6220 C.3   459  LEU459      0.0019
     12  CD1      138.7490    2.9220    9.9150 C.3   459  LEU459      0.0001
     13  CD2      137.7910    1.4270    8.1470 C.3   459  LEU459      0.0001
     14  N        133.0540   -3.5290    8.8550 N.3   495  GLU495     -0.1245
     15  CA       133.7710   -3.0840    7.6640 C.3   495  GLU495      0.1567
     16  C        135.1040   -3.7970    7.5630 C.2   495  GLU495      0.2260
     17  O        136.0630   -3.4150    8.2380 O.2   495  GLU495     -0.2867
     18  CB       134.1080   -1.6100    7.7590 C.3   495  GLU495      0.0388
     19  CG       132.9680   -0.6360    7.6950 C.3   495  GLU495      0.1160
     20  CD       133.5100    0.7730    7.7080 C.2   495  GLU495      0.3649
     21  OE1      134.1440    1.1650    8.7190 O.co2 495  GLU495     -0.2457
     22  OE2      133.3430    1.4640    6.6870 O.co2 495  GLU495     -0.2457
     23  N        137.5090   -3.6830    5.4950 N.3   497  TRP497     -0.1227
     24  CA       138.4330   -3.0530    4.5450 C.3   497  TRP497      0.1737
     25  C        139.8690   -3.3170    4.9680 C.2   497  TRP497      0.2595
     26  O        140.1840   -3.3370    6.1600 O.2   497  TRP497     -0.2718
     27  CB       138.2200   -1.5420    4.4270 C.3   497  TRP497      0.0564
     28  CG       136.7910   -1.0890    4.3590 C.ar  497  TRP497      0.0003
     29  CD1      136.2350   -0.0690    5.0690 C.ar  497  TRP497      0.0946
     30  CD2      135.7370   -1.6410    3.5560 C.ar  497  TRP497      0.0152
     31  NE1      134.9010    0.0530    4.7600 N.ar  497  TRP497     -0.2442
     32  CE2      134.5690   -0.8990    3.8360 C.ar  497  TRP497      0.0810
     33  CE3      135.6630   -2.6890    2.6300 C.ar  497  TRP497      0.0012
     34  CZ2      133.3440   -1.1670    3.2210 C.ar  497  TRP497      0.0191
     35  CZ3      134.4390   -2.9570    2.0240 C.ar  497  TRP497      0.0001
     36  CH2      133.2990   -2.1930    2.3220 C.ar  497  TRP497      0.0015
     37  N        140.7320   -3.5070    3.9770 N.am  498  ASP498     -0.1960
     38  CA       142.0980   -3.9540    4.2060 C.3   498  ASP498      0.1840
     39  C        143.0660   -2.9800    3.5360 C.2   498  ASP498      0.2622
     40  O        143.2440   -3.0050    2.3180 O.2   498  ASP498     -0.2715
     41  CB       142.2480   -5.3750    3.6520 C.3   498  ASP498      0.1450
     42  CG       143.5960   -5.9970    3.9610 C.2   498  ASP498      0.3671
     43  OD1      144.0410   -5.9680    5.1290 O.co2 498  ASP498     -0.2456
     44  OD2      144.1980   -6.5430    3.0210 O.co2 498  ASP498     -0.2456
     45  N        143.6680   -2.1020    4.3340 N.am  499  PHE499     -0.1974
     46  CA       144.5960   -1.1000    3.8110 C.3   499  PHE499      0.1639
     47  C        145.6230   -0.6460    4.8530 C.2   499  PHE499      0.2290
     48  O        145.5760   -1.0580    6.0160 O.2   499  PHE499     -0.2864
     49  CB       143.8230    0.0980    3.2270 C.3   499  PHE499      0.0560
     50  CG       143.0050    0.8710    4.2360 C.ar  499  PHE499     -0.0200
     51  CD1      141.7080    0.4780    4.5540 C.ar  499  PHE499     -0.0042
     52  CD2      143.5180    2.0140    4.8400 C.ar  499  PHE499     -0.0042
     53  CE1      140.9480    1.1940    5.4690 C.ar  499  PHE499     -0.0003
     54  CE2      142.7590    2.7370    5.7550 C.ar  499  PHE499     -0.0003
     55  CZ       141.4710    2.3270    6.0650 C.ar  499  PHE499     -0.0000
     56  N        131.1910   -4.7060   -0.7400 N.3   526  ASP526     -0.1239
     57  CA       131.4430   -3.5580   -1.6200 C.3   526  ASP526      0.1674
     58  C        131.3280   -3.9010   -3.1090 C.2   526  ASP526      0.2266
     59  O        131.1430   -3.0070   -3.9380 O.2   526  ASP526     -0.2867
     60  CB       132.8140   -2.9120   -1.3270 C.3   526  ASP526      0.1410
     61  CG       133.9730   -3.8950   -1.4130 C.2   526  ASP526      0.3668
     62  OD1      133.8150   -5.0730   -1.0090 O.co2 526  ASP526     -0.2456
     63  OD2      135.0640   -3.4790   -1.8660 O.co2 526  ASP526     -0.2456
     64  N        127.6490   -3.4250   -4.1050 N.3   529  ARG529     -0.1231
     65  CA       127.3950   -1.9950   -3.9470 C.3   529  ARG529      0.1694
     66  C        127.8110   -1.2380   -5.2010 C.2   529  ARG529      0.2592
     67  O        127.0270   -0.4810   -5.7700 O.2   529  ARG529     -0.2718
     68  CB       128.1820   -1.4660   -2.7500 C.3   529  ARG529      0.0321
     69  CG       128.0680    0.0220   -2.4610 C.3   529  ARG529      0.0489
     70  CD       129.1910    0.4490   -1.5300 C.3   529  ARG529      0.2205
     71  NE       130.4800    0.5130   -2.2280 N.pl3 529  ARG529     -0.0865
     72  CZ       131.6800    0.4150   -1.6530 C.cat 529  ARG529      0.5346
     73  NH1      131.8080    0.2240   -0.3450 N.pl3 529  ARG529      0.1354
     74  NH2      132.7780    0.4990   -2.4030 N.pl3 529  ARG529      0.1354
     75  N        129.0540   -1.4530   -5.6180 N.am  530  ASP530     -0.1974
     76  CA       129.6210   -0.7190   -6.7430 C.3   530  ASP530      0.1709
     77  C        129.1510   -1.2430   -8.0980 C.2   530  ASP530      0.2293
     78  O        129.0290   -0.4750   -9.0530 O.2   530  ASP530     -0.2864
     79  CB       131.1460   -0.7150   -6.6560 C.3   530  ASP530      0.1436
     80  CG       131.6620    0.1910   -5.5440 C.2   530  ASP530      0.3671
     81  OD1      130.8700    0.9920   -4.9900 O.co2 530  ASP530     -0.2456
     82  OD2      132.8630    0.0990   -5.2110 O.co2 530  ASP530     -0.2456
     83  N        133.1700    3.7300   -7.9690 N.3   536  ASN536     -0.1226
     84  CA       133.6140    3.4460   -6.6140 C.3   536  ASN536      0.1770
     85  C        133.7050    4.7490   -5.8120 C.2   536  ASN536      0.2439
     86  O        133.5970    5.8330   -6.3890 O.2   536  ASN536     -0.2733
     87  CB       134.9520    2.6950   -6.6590 C.3   536  ASN536      0.1168
     88  CG       136.0860    3.5450   -7.1970 C.2   536  ASN536      0.2627
     89  OD1      136.6570    4.3600   -6.4760 O.2   536  ASN536     -0.2716
     90  ND2      136.4330    3.3450   -8.4620 N.am  536  ASN536     -0.0877
     91  N        133.8930    4.6560   -4.4800 N.am  537  PRO537     -0.2718
     92  CA       133.9290    5.8700   -3.6510 C.3   537  PRO537      0.1535
     93  C        135.0050    6.8860   -4.0420 C.2   537  PRO537      0.2599
     94  O        134.9030    8.0570   -3.6720 O.2   537  PRO537     -0.2715
     95  CB       134.2070    5.3260   -2.2420 C.3   537  PRO537      0.0310
     96  CG       133.7050    3.9230   -2.2730 C.3   537  PRO537      0.0237
     97  CD       134.0120    3.4360   -3.6590 C.3   537  PRO537      0.0939
     98  N        136.0170    6.4360   -4.7800 N.am  538  PHE538     -0.1960
     99  CA       137.1560    7.2670   -5.1510 C.3   538  PHE538      0.1771
    100  C        137.2330    7.5650   -6.6500 C.2   538  PHE538      0.2620
    101  O        138.1500    8.2550   -7.0960 O.2   538  PHE538     -0.2715
    102  CB       138.4330    6.5580   -4.7210 C.3   538  PHE538      0.0574
    103  CG       138.4040    6.0800   -3.3030 C.ar  538  PHE538     -0.0200
    104  CD1      138.6160    6.9630   -2.2520 C.ar  538  PHE538     -0.0042
    105  CD2      138.1480    4.7480   -3.0160 C.ar  538  PHE538     -0.0042
    106  CE1      138.5800    6.5220   -0.9400 C.ar  538  PHE538     -0.0003
    107  CE2      138.1100    4.3020   -1.7080 C.ar  538  PHE538     -0.0003
    108  CZ       138.3260    5.1890   -0.6680 C.ar  538  PHE538     -0.0000
    109  N        136.2820    7.0440   -7.4230 N.am  539  GLY539     -0.1954
    110  CA       136.2870    7.2020   -8.8790 C.3   539  GLY539      0.1869
    111  C        135.5260    8.4220   -9.3650 C.2   539  GLY539      0.2309
    112  O        135.0520    9.2300   -8.5670 O.2   539  GLY539     -0.2863
    113  N        139.1390   -5.5530   -8.1950 N.3   605  PHE605     -0.1227
    114  CA       140.3890   -4.8080   -7.9880 C.3   605  PHE605      0.1736
    115  C        141.4550   -5.6570   -7.2890 C.2   605  PHE605      0.2595
    116  O        141.1460   -6.4390   -6.3840 O.2   605  PHE605     -0.2718
    117  CB       140.1350   -3.5210   -7.1850 C.3   605  PHE605      0.0547
    118  CG       139.5030   -3.7570   -5.8380 C.ar  605  PHE605     -0.0202
    119  CD1      140.2840   -4.0520   -4.7310 C.ar  605  PHE605     -0.0042
    120  CD2      138.1240   -3.6850   -5.6800 C.ar  605  PHE605     -0.0042
    121  CE1      139.7060   -4.2760   -3.4940 C.ar  605  PHE605     -0.0003
    122  CE2      137.5400   -3.9050   -4.4450 C.ar  605  PHE605     -0.0003
    123  CZ       138.3320   -4.2010   -3.3510 C.ar  605  PHE605     -0.0000
    124  N        142.7030   -5.5040   -7.7280 N.am  606  ASP606     -0.1974
    125  CA       143.8470   -6.2440   -7.1750 C.3   606  ASP606      0.1709
    126  C        143.7130   -7.7720   -7.2960 C.2   606  ASP606      0.2293
    127  O        144.3490   -8.5170   -6.5490 O.2   606  ASP606     -0.2864
    128  CB       144.1040   -5.8300   -5.7150 C.3   606  ASP606      0.1436
    129  CG       144.5590   -4.3840   -5.5840 C.2   606  ASP606      0.3671
    130  OD1      145.4390   -3.9540   -6.3620 O.co2 606  ASP606     -0.2456
    131  OD2      144.0510   -3.6780   -4.6920 O.co2 606  ASP606     -0.2456
    132  N        124.6420   -4.3580    0.5360 N.3   622  TYR622     -0.1241
    133  CA       124.1870   -2.9760    0.5980 C.3   622  TYR622      0.1605
    134  C        124.5220   -2.1880   -0.6620 C.2   622  TYR622      0.2264
    135  O        125.4430   -2.5380   -1.4070 O.2   622  TYR622     -0.2867
    136  CB       124.7420   -2.2660    1.8490 C.3   622  TYR622      0.0534
    137  CG       126.1850   -1.7740    1.7970 C.ar  622  TYR622     -0.0201
    138  CD1      127.2130   -2.5510    1.2680 C.ar  622  TYR622     -0.0009
    139  CD2      126.5220   -0.5360    2.3380 C.ar  622  TYR622     -0.0009
    140  CE1      128.5230   -2.0880    1.2560 C.ar  622  TYR622      0.0417
    141  CE2      127.8210   -0.0690    2.3330 C.ar  622  TYR622      0.0417
    142  CZ       128.8220   -0.8500    1.7960 C.ar  622  TYR622      0.1957
    143  OH       130.1220   -0.3770    1.7990 O.3   622  TYR622     -0.2866
    144  N        128.0500    6.6190    5.0320 N.3   627  ASP627     -0.1225
    145  CA       129.2040    7.0640    4.2370 C.3   627  ASP627      0.1805
    146  C        128.8260    7.2400    2.7730 C.2   627  ASP627      0.2597
    147  O        128.0580    6.4550    2.2320 O.2   627  ASP627     -0.2718
    148  CB       130.3510    6.0450    4.3010 C.3   627  ASP627      0.1424
    149  CG       131.0880    6.0580    5.6200 C.2   627  ASP627      0.3668
    150  OD1      131.4650    7.1470    6.1000 O.co2 627  ASP627     -0.2456
    151  OD2      131.3240    4.9630    6.1650 O.co2 627  ASP627     -0.2456
    152  N        129.4020    8.2590    2.1380 N.am  628  ASN628     -0.1974
    153  CA       129.1940    8.5420    0.7140 C.3   628  ASN628      0.1688
    154  C        127.7650    9.0140    0.4000 C.2   628  ASN628      0.2292
    155  O        127.0130    9.3800    1.3090 O.2   628  ASN628     -0.2864
    156  CB       129.6440    7.3560   -0.1430 C.3   628  ASN628      0.1181
    157  CG       131.0740    6.9510    0.1540 C.2   628  ASN628      0.2629
    158  OD1      131.9940    7.7450   -0.0200 O.2   628  ASN628     -0.2716
    159  ND2      131.2660    5.7290    0.6310 N.am  628  ASN628     -0.0877
    160  N        128.7550   14.0220    0.0790 N.3   682  ARG682     -0.1231
    161  CA       129.4230   12.7120    0.0650 C.3   682  ARG682      0.1694
    162  C        129.9660   12.2930    1.4360 C.2   682  ARG682      0.2592
    163  O        130.3670   11.1490    1.6130 O.2   682  ARG682     -0.2718
    164  CB       130.5490   12.6790   -0.9780 C.3   682  ARG682      0.0321
    165  CG       131.8140   13.4320   -0.6010 C.3   682  ARG682      0.0489
    166  CD       132.8400   13.3880   -1.7280 C.3   682  ARG682      0.2205
    167  NE       133.5590   12.1160   -1.7890 N.pl3 682  ARG682     -0.0865
    168  CZ       134.5750   11.7750   -0.9990 C.cat 682  ARG682      0.5346
    169  NH1      135.0100   12.5990   -0.0460 N.pl3 682  ARG682      0.1354
    170  NH2      135.1560   10.5880   -1.1540 N.pl3 682  ARG682      0.1354
    171  N        129.9810   13.2090    2.3980 N.am  683  ASP683     -0.1974
    172  CA       130.5480   12.9220    3.7110 C.3   683  ASP683      0.1709
    173  C        129.9350   13.8740    4.7320 C.2   683  ASP683      0.2293
    174  O        130.5380   14.8760    5.1080 O.2   683  ASP683     -0.2864
    175  CB       132.0730   13.0640    3.6450 C.3   683  ASP683      0.1436
    176  CG       132.7690   12.6050    4.9060 C.2   683  ASP683      0.3671
    177  OD1      132.1350   11.9530    5.7560 O.co2 683  ASP683     -0.2456
    178  OD2      133.9740   12.8990    5.0400 O.co2 683  ASP683     -0.2456
    179  N        134.5110   18.8540    1.7310 N.3   712  LYS712     -0.1245
    180  CA       134.4910   17.5120    1.1440 C.3   712  LYS712      0.1561
    181  C        133.8270   17.4420   -0.2390 C.2   712  LYS712      0.2260
    182  O        133.8730   16.3910   -0.8770 O.2   712  LYS712     -0.2867
    183  CB       133.7920   16.5220    2.0930 C.3   712  LYS712      0.0271
    184  CG       134.3130   16.5100    3.5270 C.3   712  LYS712      0.0035
    185  CD       135.7500   16.0170    3.6310 C.3   712  LYS712      0.0206
    186  CE       136.2480   16.0940    5.0660 C.3   712  LYS712      0.1093
    187  NZ       137.5320   15.3720    5.2590 N.3   712  LYS712     -0.1314
@<TRIPOS>BOND
     1   111   110    1
     2   111   112    2
     3    78    77    2
     4   110   109    1
     5    90    88   am
     6   113   114    1
     7    77    76    1
     8   114   115    1
     9   114   117    1
    10    83    84    1
    11   124   115   am
    12   124   125    1
    13   109   100   am
    14   126   125    1
    15   126   127    2
    16   115   116    2
    17    88    87    1
    18    88    89    2
    19   117   118    1
    20   125   128    1
    21   101   100    2
    22    76    79    1
    23    76    75    1
    24    87    84    1
    25    79    80    1
    26   100    99    1
    27    84    85    1
    28    86    85    2
    29   130   129   ar
    30   118   120   ar
    31   118   119   ar
    32    85    91   am
    33    67    66    2
    34   128   129    1
    35   120   122   ar
    36    75    66   am
    37   129   131   ar
    38    80    82   ar
    39    80    81   ar
    40    66    65    1
    41    99    98    1
    42    99   102    1
    43    98    93   am
    44   119   121   ar
    45   102   103    1
    46    91    97    1
    47    91    92    1
    48   122   123   ar
    49    64    65    1
    50    93    94    2
    51    93    92    1
    52    65    68    1
    53    59    58    2
    54    97    96    1
    55    92    95    1
    56   121   123   ar
    57   103   105   ar
    58   103   104   ar
    59    58    57    1
    60   105   107   ar
    61    68    69    1
    62    69    70    1
    63    74    72    1
    64    96    95    1
    65   104   106   ar
    66    71    72    2
    67    71    70    1
    68    63    61   ar
    69   167   166    1
    70   167   168    2
    71   166   165    1
    72   107   108   ar
    73    72    73    1
    74    57    60    1
    75    57    56    1
    76    61    60    1
    77    61    62   ar
    78   135   134    2
    79   170   168    1
    80   168   169    1
    81   164   165    1
    82   164   161    1
    83   106   108   ar
    84   182   181    2
    85   134   133    1
    86   181   180    1
    87   156   157    1
    88   156   153    1
    89   158   157    2
    90   161   160    1
    91   161   162    1
    92   157   159   am
    93   154   153    1
    94   154   155    2
    95   132   133    1
    96   133   136    1
    97   153   152    1
    98   180   179    1
    99   180   183    1
   100   140   138   ar
   101   140   142   ar
   102   138   137   ar
   103   162   163    2
   104   162   171   am
   105   142   143    1
   106   142   141   ar
   107   137   136    1
   108   137   139   ar
   109    35    36   ar
   110    35    33   ar
   111   183   184    1
   112   152   146   am
   113   147   146    2
   114    40    39    2
   115    36    34   ar
   116   141   139   ar
   117   171   172    1
   118    33    30   ar
   119   146   145    1
   120    44    42   ar
   121    34    32   ar
   122    49    46    1
   123    49    50    1
   124   184   185    1
   125    39    38    1
   126    39    45   am
   127    30    32   ar
   128    30    28   ar
   129   185   186    1
   130   175   172    1
   131   175   176    1
   132    41    42    1
   133    41    38    1
   134   172   173    1
   135    46    45    1
   136    46    47    1
   137    32    31   ar
   138    42    43   ar
   139    37    38    1
   140    37    25   am
   141    50    51   ar
   142    50    52   ar
   143   145   148    1
   144   145   144    1
   145   148   149    1
   146    28    27    1
   147    28    29   ar
   148    27    24    1
   149    24    25    1
   150    24    23    1
   151    51    53   ar
   152   173   174    2
   153    31    29   ar
   154    52    54   ar
   155    47    48    2
   156   176   178   ar
   157   176   177   ar
   158    25    26    2
   159   186   187    1
   160    53    55   ar
   161   149   150   ar
   162   149   151   ar
   163    54    55   ar
   164    22    20   ar
   165    16    15    1
   166    16    17    2
   167    15    18    1
   168    15    14    1
   169    19    20    1
   170    19    18    1
   171    20    21   ar
   172    13    11    1
   173    11    12    1
   174    11    10    1
   175     4     3    2
   176     1     2    1
   177     7    10    1
   178     7     6    1
   179     7     8    1
   180     2     3    1
   181     2     5    1
   182     8     9    2
