@<TRIPOS>MOLECULE
tmp/4j3vA01.pdb
 225 219 0 0 0
SMALL
GASTEIGER

@<TRIPOS>ATOM
      1  N         42.7320  -17.4840  -23.8440 N.3   302  GLY302     -0.1225
      2  CA        41.6650  -18.2150  -23.1640 C.3   302  GLY302      0.1811
      3  C         40.6310  -18.8030  -24.1150 C.2   302  GLY302      0.2280
      4  O         39.7280  -19.5230  -23.7090 O.2   302  GLY302     -0.2866
      5  N         37.8910  -24.8140  -20.4920 N.3   337  GLU337     -0.1245
      6  CA        39.1770  -24.3330  -21.0190 C.3   337  GLU337      0.1567
      7  C         39.3760  -24.6630  -22.5040 C.2   337  GLU337      0.2260
      8  O         40.3610  -24.2440  -23.1050 O.2   337  GLU337     -0.2867
      9  CB        40.3460  -24.8840  -20.1960 C.3   337  GLU337      0.0388
     10  CG        40.2780  -24.5460  -18.7160 C.3   337  GLU337      0.1160
     11  CD        40.2970  -23.0510  -18.4510 C.2   337  GLU337      0.3649
     12  OE1       41.2130  -22.3620  -18.9490 O.co2 337  GLU337     -0.2457
     13  OE2       39.3960  -22.5620  -17.7480 O.co2 337  GLU337     -0.2457
     14  N         35.0470  -16.9870  -23.8270 N.3   342  ASN342     -0.1225
     15  CA        35.6000  -16.2250  -22.7130 C.3   342  ASN342      0.1785
     16  C         35.2160  -14.7660  -22.8750 C.2   342  ASN342      0.2597
     17  O         35.1270  -14.2830  -24.0030 O.2   342  ASN342     -0.2718
     18  CB        37.1320  -16.3480  -22.6500 C.3   342  ASN342      0.1169
     19  CG        37.7060  -15.9490  -21.2830 C.2   342  ASN342      0.2627
     20  OD1       37.8720  -14.7560  -20.9840 O.2   342  ASN342     -0.2716
     21  ND2       38.0210  -16.9430  -20.4450 N.am  342  ASN342     -0.0877
     22  N         35.0100  -14.0510  -21.7730 N.am  343  TRP343     -0.1976
     23  CA        34.7930  -12.6120  -21.8900 C.3   343  TRP343      0.1640
     24  C         35.9720  -11.9160  -22.5840 C.2   343  TRP343      0.2290
     25  O         35.7660  -10.9530  -23.3270 O.2   343  TRP343     -0.2864
     26  CB        34.5720  -11.9880  -20.5270 C.3   343  TRP343      0.0576
     27  CG        33.2150  -12.1720  -19.9680 C.ar  343  TRP343      0.0006
     28  CD1       32.0820  -12.6010  -20.6170 C.ar  343  TRP343      0.0946
     29  CD2       32.8160  -11.8760  -18.6370 C.ar  343  TRP343      0.0152
     30  NE1       31.0150  -12.6060  -19.7640 N.ar  343  TRP343     -0.2442
     31  CE2       31.4380  -12.1780  -18.5270 C.ar  343  TRP343      0.0810
     32  CE3       33.5110  -11.4270  -17.5050 C.ar  343  TRP343      0.0012
     33  CZ2       30.7350  -12.0320  -17.3280 C.ar  343  TRP343      0.0191
     34  CZ3       32.8200  -11.2900  -16.3110 C.ar  343  TRP343      0.0001
     35  CH2       31.4330  -11.5760  -16.2360 C.ar  343  TRP343      0.0015
     36  N         39.1490  -10.8210  -20.9530 N.3   345  TYR345     -0.1227
     37  CA        39.9630   -9.8900  -20.1480 C.3   345  TYR345      0.1736
     38  C         41.3830  -10.4410  -19.8540 C.2   345  TYR345      0.2595
     39  O         41.8870  -10.3200  -18.7370 O.2   345  TYR345     -0.2718
     40  CB        39.1990   -9.4910  -18.8700 C.3   345  TYR345      0.0548
     41  CG        37.9430   -8.6880  -19.1680 C.ar  345  TYR345     -0.0200
     42  CD1       38.0120   -7.3210  -19.4130 C.ar  345  TYR345     -0.0009
     43  CD2       36.6820   -9.2990  -19.2240 C.ar  345  TYR345     -0.0009
     44  CE1       36.8700   -6.5870  -19.7230 C.ar  345  TYR345      0.0417
     45  CE2       35.5350   -8.5680  -19.5200 C.ar  345  TYR345      0.0417
     46  CZ        35.6340   -7.2080  -19.7770 C.ar  345  TYR345      0.1957
     47  OH        34.4860   -6.5170  -20.0660 O.3   345  TYR345     -0.2866
     48  N         42.0280  -10.9820  -20.8880 N.am  346  ASN346     -0.1974
     49  CA        43.3250  -11.6800  -20.8030 C.3   346  ASN346      0.1688
     50  C         44.2530  -11.2050  -21.9310 C.2   346  ASN346      0.2292
     51  O         44.4850  -11.9100  -22.9040 O.2   346  ASN346     -0.2864
     52  CB        43.1340  -13.1990  -20.9190 C.3   346  ASN346      0.1181
     53  CG        42.1010  -13.7410  -19.9650 C.2   346  ASN346      0.2629
     54  OD1       42.1130  -13.4370  -18.7810 O.2   346  ASN346     -0.2716
     55  ND2       41.1820  -14.5530  -20.4890 N.am  346  ASN346     -0.0877
     56  N         46.5790   -4.8780  -17.4500 N.3   392  HIS392     -0.1226
     57  CA        47.2890   -6.1100  -17.1440 C.3   392  HIS392      0.1752
     58  C         47.4580   -6.9620  -18.3730 C.2   392  HIS392      0.2596
     59  O         46.7980   -6.7040  -19.3930 O.2   392  HIS392     -0.2718
     60  CB        46.5790   -6.8860  -16.0240 C.3   392  HIS392      0.0759
     61  CG        45.4870   -7.7980  -16.4890 C.ar  392  HIS392      0.0818
     62  ND1       44.1830   -7.3750  -16.6310 N.ar  392  HIS392     -0.2268
     63  CD2       45.4880   -9.1190  -16.7890 C.ar  392  HIS392      0.1154
     64  CE1       43.4330   -8.3860  -17.0350 C.ar  392  HIS392      0.1986
     65  NE2       44.2030   -9.4550  -17.1400 N.ar  392  HIS392     -0.2212
     66  N         48.3560   -7.9420  -18.2840 N.am  393  LEU393     -0.1966
     67  CA        48.6200   -8.8970  -19.3620 C.3   393  LEU393      0.1728
     68  C         48.2410  -10.3010  -18.9410 C.2   393  LEU393      0.2616
     69  O         48.3430  -10.6710  -17.7910 O.2   393  LEU393     -0.2715
     70  CB        50.0960   -8.8780  -19.7580 C.3   393  LEU393      0.0311
     71  CG        50.6870   -7.5120  -20.1150 C.3   393  LEU393      0.0022
     72  CD1       52.1870   -7.6020  -20.3400 C.3   393  LEU393      0.0001
     73  CD2       49.9680   -6.9240  -21.3300 C.3   393  LEU393      0.0001
     74  N         47.8300  -11.1160  -19.8960 N.am  394  ASP394     -0.1957
     75  CA        47.5480  -12.5110  -19.6120 C.3   394  ASP394      0.1840
     76  C         48.7430  -13.2360  -18.9940 C.2   394  ASP394      0.2622
     77  O         48.5980  -13.9910  -18.0340 O.2   394  ASP394     -0.2715
     78  CB        47.1390  -13.2570  -20.8820 C.3   394  ASP394      0.1450
     79  CG        46.8790  -14.7280  -20.6180 C.2   394  ASP394      0.3671
     80  OD1       45.8100  -15.0310  -20.0380 O.co2 394  ASP394     -0.2456
     81  OD2       47.7770  -15.5570  -20.9450 O.co2 394  ASP394     -0.2456
     82  N         49.9150  -13.0040  -19.5690 N.am  395  SER395     -0.1950
     83  CA        51.1200  -13.7420  -19.2320 C.3   395  SER395      0.1924
     84  C         52.3340  -12.8350  -19.2030 C.2   395  SER395      0.2314
     85  O         52.3360  -11.7370  -19.7460 O.2   395  SER395     -0.2863
     86  CB        51.3520  -14.8730  -20.2410 C.3   395  SER395      0.2116
     87  OG        50.3120  -15.8450  -20.1990 O.3   395  SER395     -0.2180
     88  N         49.9480   -8.3090   -9.1770 N.3   424  ASN424     -0.1225
     89  CA        48.8710   -9.1060   -9.7730 C.3   424  ASN424      0.1785
     90  C         47.4580   -8.6580   -9.3980 C.2   424  ASN424      0.2598
     91  O         46.4900   -9.3620   -9.7030 O.2   424  ASN424     -0.2718
     92  CB        49.0580  -10.5780   -9.3980 C.3   424  ASN424      0.1169
     93  CG        50.3690  -11.1510   -9.9110 C.2   424  ASN424      0.2627
     94  OD1       50.7130  -11.0020  -11.0770 O.2   424  ASN424     -0.2716
     95  ND2       51.1090  -11.8210   -9.0330 N.am  424  ASN424     -0.0877
     96  N         47.3140   -7.4850   -8.7800 N.am  425  SER425     -0.1938
     97  CA        45.9950   -7.0500   -8.2760 C.3   425  SER425      0.2055
     98  C         44.8970   -6.9030   -9.3370 C.2   425  SER425      0.2643
     99  O         43.7130   -7.0320   -9.0100 O.2   425  SER425     -0.2714
    100  CB        46.1010   -5.7560   -7.4490 C.3   425  SER425      0.2130
    101  OG        46.5560   -4.6620   -8.2150 O.3   425  SER425     -0.2179
    102  N         45.3020   -6.6090  -10.5710 N.am  426  ALA426     -0.1963
    103  CA        44.3810   -6.5390  -11.7040 C.3   426  ALA426      0.1728
    104  C         44.4420   -7.8500  -12.4790 C.2   426  ALA426      0.2616
    105  O         44.7840   -7.8620  -13.6540 O.2   426  ALA426     -0.2715
    106  CB        44.7390   -5.3670  -12.6070 C.3   426  ALA426      0.0334
    107  N         44.2640   -8.9520  -11.7600 N.am  427  ALA427     -0.1963
    108  CA        44.0680  -10.3130  -12.3150 C.3   427  ALA427      0.1728
    109  C         45.4270  -11.0210  -12.2650 C.2   427  ALA427      0.2616
    110  O         45.5910  -12.0210  -11.5770 O.2   427  ALA427     -0.2715
    111  CB        43.4470  -10.3770  -13.7230 C.3   427  ALA427      0.0334
    112  N         46.3950  -10.4680  -12.9730 N.am  428  MET428     -0.1977
    113  CA        47.7570  -10.9880  -13.0350 C.3   428  MET428      0.1605
    114  C         48.5540  -10.0600  -13.9300 C.2   428  MET428      0.2287
    115  O         47.9930   -9.5030  -14.8710 O.2   428  MET428     -0.2864
    116  CB        47.7840  -12.3900  -13.6570 C.3   428  MET428      0.0413
    117  CG        49.0360  -13.1730  -13.3360 C.3   428  MET428      0.0598
    118  SD        48.9070  -13.8640  -11.6830 S.3   428  MET428     -0.1393
    119  CE        47.8970  -15.3110  -11.9720 C.3   428  MET428      0.0692
    120  N         35.7500    2.0130  -23.4190 N.3   459  ARG459     -0.1245
    121  CA        35.5350    1.7090  -22.0110 C.3   459  ARG459      0.1563
    122  C         36.8090    1.1260  -21.4470 C.2   459  ARG459      0.2260
    123  O         37.2770    0.0690  -21.8930 O.2   459  ARG459     -0.2867
    124  CB        34.3970    0.7090  -21.8420 C.3   459  ARG459      0.0307
    125  CG        34.1430    0.2510  -20.4070 C.3   459  ARG459      0.0489
    126  CD        34.7460   -1.1080  -20.1200 C.3   459  ARG459      0.2205
    127  NE        34.2350   -1.6870  -18.8790 N.pl3 459  ARG459     -0.0865
    128  CZ        34.8460   -2.6630  -18.1980 C.cat 459  ARG459      0.5346
    129  NH1       35.9740   -3.2000  -18.6480 N.pl3 459  ARG459      0.1354
    130  NH2       34.3250   -3.1080  -17.0610 N.pl3 459  ARG459      0.1354
    131  N         38.7210   -0.7560  -18.8610 N.3   461  ASP461     -0.1225
    132  CA        38.7880   -1.7600  -17.7990 C.3   461  ASP461      0.1805
    133  C         39.8050   -1.3100  -16.7600 C.2   461  ASP461      0.2597
    134  O         40.8920   -0.9150  -17.1190 O.2   461  ASP461     -0.2718
    135  CB        39.2350   -3.0900  -18.4020 C.3   461  ASP461      0.1424
    136  CG        39.1320   -4.2380  -17.4420 C.2   461  ASP461      0.3668
    137  OD1       38.0000   -4.6000  -17.0940 O.co2 461  ASP461     -0.2456
    138  OD2       40.1940   -4.7900  -17.0700 O.co2 461  ASP461     -0.2456
    139  N         39.4290   -1.3920  -15.4890 N.am  462  LEU462     -0.1979
    140  CA        40.2940   -1.0170  -14.3570 C.3   462  LEU462      0.1596
    141  C         41.1340    0.2370  -14.6410 C.2   462  LEU462      0.2287
    142  O         42.3770    0.2440  -14.5670 O.2   462  LEU462     -0.2864
    143  CB        41.1640   -2.2030  -13.8840 C.3   462  LEU462      0.0297
    144  CG        40.3850   -3.4610  -13.4980 C.3   462  LEU462      0.0022
    145  CD1       41.3300   -4.5780  -13.0950 C.3   462  LEU462      0.0001
    146  CD2       39.4020   -3.1850  -12.3760 C.3   462  LEU462      0.0001
    147  N         36.1760    2.0780  -15.5050 N.3   498  GLU498     -0.1245
    148  CA        36.0100    1.6530  -14.1180 C.3   498  GLU498      0.1567
    149  C         37.0640    2.3230  -13.2540 C.2   498  GLU498      0.2260
    150  O         38.2260    1.9350  -13.3060 O.2   498  GLU498     -0.2867
    151  CB        36.2450    0.1590  -13.9620 C.3   498  GLU498      0.0388
    152  CG        35.3040   -0.8010  -14.6340 C.3   498  GLU498      0.1160
    153  CD        35.8020   -2.2170  -14.3760 C.2   498  GLU498      0.3649
    154  OE1       36.9010   -2.5440  -14.8920 O.co2 498  GLU498     -0.2457
    155  OE2       35.1420   -2.9800  -13.6220 O.co2 498  GLU498     -0.2457
    156  N         37.8390    2.1670  -10.1120 N.3   500  TRP500     -0.1241
    157  CA        38.0120    1.5500   -8.8110 C.3   500  TRP500      0.1605
    158  C         39.4310    1.8130   -8.3160 C.2   500  TRP500      0.2264
    159  O         40.3850    1.7870   -9.0780 O.2   500  TRP500     -0.2867
    160  CB        37.7430    0.0390   -8.8330 C.3   500  TRP500      0.0550
    161  CG        36.5650   -0.4060   -9.6650 C.ar  500  TRP500      0.0003
    162  CD1       36.5650   -1.4260  -10.5620 C.ar  500  TRP500      0.0946
    163  CD2       35.2250    0.1330   -9.6690 C.ar  500  TRP500      0.0152
    164  NE1       35.3270   -1.5730  -11.1080 N.ar  500  TRP500     -0.2442
    165  CE2       34.4860   -0.6220  -10.6040 C.ar  500  TRP500      0.0810
    166  CE3       34.5860    1.1870   -8.9930 C.ar  500  TRP500      0.0012
    167  CZ2       33.1340   -0.3740  -10.8700 C.ar  500  TRP500      0.0191
    168  CZ3       33.2390    1.4260   -9.2500 C.ar  500  TRP500      0.0001
    169  CH2       32.5310    0.6480  -10.1920 C.ar  500  TRP500      0.0015
    170  N         28.1390   -6.8060  -17.3130 N.3   629  HIS629     -0.1226
    171  CA        28.5340   -8.1950  -17.4970 C.3   629  HIS629      0.1752
    172  C         29.0120   -8.8160  -16.1750 C.2   629  HIS629      0.2596
    173  O         28.7380   -9.9930  -15.9190 O.2   629  HIS629     -0.2718
    174  CB        29.5940   -8.3130  -18.5900 C.3   629  HIS629      0.0759
    175  CG        30.9240   -7.7470  -18.1970 C.ar  629  HIS629      0.0818
    176  ND1       31.2340   -6.4080  -18.2970 N.ar  629  HIS629     -0.2268
    177  CD2       32.0190   -8.3430  -17.6810 C.ar  629  HIS629      0.1154
    178  CE1       32.4710   -6.2090  -17.8750 C.ar  629  HIS629      0.1986
    179  NE2       32.9660   -7.3700  -17.4890 N.ar  629  HIS629     -0.2212
    180  N         29.6960   -8.0300  -15.3350 N.am  630  ASP630     -0.1974
    181  CA        30.1020   -8.5040  -14.0090 C.3   630  ASP630      0.1709
    182  C         28.9290   -8.6270  -13.0550 C.2   630  ASP630      0.2293
    183  O         28.0050   -7.8160  -13.0970 O.2   630  ASP630     -0.2864
    184  CB        31.0760   -7.5180  -13.3600 C.3   630  ASP630      0.1436
    185  CG        32.4490   -7.5160  -14.0050 C.2   630  ASP630      0.3671
    186  OD1       33.0420   -8.6040  -14.1990 O.co2 630  ASP630     -0.2456
    187  OD2       32.9540   -6.4200  -14.3230 O.co2 630  ASP630     -0.2456
    188  N         29.6070  -14.5070  -11.8800 N.3   686  ASP686     -0.1239
    189  CA        30.8210  -14.1970  -12.6370 C.3   686  ASP686      0.1674
    190  C         30.9580  -15.1810  -13.7830 C.2   686  ASP686      0.2266
    191  O         31.6890  -16.1570  -13.7180 O.2   686  ASP686     -0.2867
    192  CB        32.0520  -14.2230  -11.7220 C.3   686  ASP686      0.1410
    193  CG        33.3250  -13.7970  -12.4260 C.2   686  ASP686      0.3668
    194  OD1       33.2580  -13.3130  -13.5870 O.co2 686  ASP686     -0.2456
    195  OD2       34.4070  -13.9250  -11.8160 O.co2 686  ASP686     -0.2456
    196  N         32.2810  -15.2470  -16.7470 N.3   688  TYR688     -0.1241
    197  CA        33.3650  -15.0710  -17.7180 C.3   688  TYR688      0.1605
    198  C         33.8080  -16.3210  -18.4600 C.2   688  TYR688      0.2264
    199  O         34.3050  -16.2280  -19.5750 O.2   688  TYR688     -0.2867
    200  CB        34.5960  -14.4490  -17.0360 C.3   688  TYR688      0.0534
    201  CG        35.4470  -15.4200  -16.2040 C.ar  688  TYR688     -0.0201
    202  CD1       35.0090  -15.9120  -14.9630 C.ar  688  TYR688     -0.0009
    203  CD2       36.6790  -15.8490  -16.6700 C.ar  688  TYR688     -0.0009
    204  CE1       35.7850  -16.8000  -14.2280 C.ar  688  TYR688      0.0417
    205  CE2       37.4640  -16.7310  -15.9350 C.ar  688  TYR688      0.0417
    206  CZ        37.0140  -17.2030  -14.7200 C.ar  688  TYR688      0.1957
    207  OH        37.7980  -18.0760  -13.9990 O.3   688  TYR688     -0.2866
    208  N         32.9490  -22.7550   -8.8420 N.3   714  GLU714     -0.1231
    209  CA        34.1290  -21.9560   -8.4430 C.3   714  GLU714      0.1699
    210  C         33.7310  -20.5980   -7.8470 C.2   714  GLU714      0.2592
    211  O         34.2210  -20.2130   -6.7820 O.2   714  GLU714     -0.2718
    212  CB        35.1110  -21.8130   -9.6220 C.3   714  GLU714      0.0402
    213  CG        36.0270  -20.5920   -9.6340 C.3   714  GLU714      0.1161
    214  CD        36.7810  -20.4670  -10.9510 C.2   714  GLU714      0.3649
    215  OE1       37.4760  -21.4450  -11.3070 O.co2 714  GLU714     -0.2457
    216  OE2       36.6750  -19.4120  -11.6350 O.co2 714  GLU714     -0.2457
    217  N         32.8160  -19.8960   -8.5150 N.am  715  LYS715     -0.1980
    218  CA        32.4050  -18.5540   -8.0850 C.3   715  LYS715      0.1596
    219  C         31.0920  -18.5150   -7.3060 C.2   715  LYS715      0.2287
    220  O         30.7910  -17.5030   -6.6780 O.2   715  LYS715     -0.2864
    221  CB        32.2840  -17.6280   -9.3080 C.3   715  LYS715      0.0298
    222  CG        33.5690  -17.4510  -10.1050 C.3   715  LYS715      0.0038
    223  CD        34.6230  -16.7340   -9.2710 C.3   715  LYS715      0.0206
    224  CE        35.8800  -16.4500  -10.0670 C.3   715  LYS715      0.1093
    225  NZ        36.8960  -15.7310   -9.2650 N.3   715  LYS715     -0.1314
@<TRIPOS>BOND
     1     3     4    2
     2     3     2    1
     3    17    16    2
     4     1     2    1
     5    14    15    1
     6   120   121    1
     7    25    24    2
     8     8     7    2
     9    51    50    2
    10    16    15    1
    11    16    22   am
    12    15    18    1
    13    18    19    1
    14    24    23    1
    15     7     6    1
    16   121   124    1
    17   121   122    1
    18    50    49    1
    19   123   122    2
    20    23    22    1
    21    23    26    1
    22   124   125    1
    23    73    71    1
    24    19    20    2
    25    19    21   am
    26     6     5    1
    27     6     9    1
    28    36    37    1
    29    81    79   ar
    30    52    49    1
    31    52    53    1
    32    48    49    1
    33    48    38   am
    34    78    79    1
    35    78    75    1
    36    79    80   ar
    37    28    27   ar
    38    28    30   ar
    39    26    27    1
    40    55    53   am
    41   125   126    1
    42    72    71    1
    43    86    87    1
    44    86    83    1
    45     9    10    1
    46    37    38    1
    47    37    40    1
    48   126   127    1
    49    71    70    1
    50    47    46    1
    51    27    29   ar
    52    53    54    2
    53    74    75    1
    54    74    68   am
    55    38    39    2
    56    46    44   ar
    57    46    45   ar
    58    30    31   ar
    59    70    67    1
    60    85    84    2
    61    44    42   ar
    62    75    76    1
    63   199   198    2
    64    82    83    1
    65    82    76   am
    66    45    43   ar
    67    42    41   ar
    68    59    58    2
    69    67    68    1
    70    67    66    1
    71    83    84    1
    72    43    41   ar
    73    41    40    1
    74    76    77    2
    75    12    11   ar
    76    68    69    2
    77   127   128    2
    78   131   132    1
    79    10    11    1
    80   129   128    1
    81    29    31   ar
    82    29    32   ar
    83   174   175    1
    84   174   171    1
    85    31    33   ar
    86   198   197    1
    87    11    13   ar
    88   135   132    1
    89   135   136    1
    90    58    66   am
    91    58    57    1
    92   176   175   ar
    93   176   178   ar
    94   128   130    1
    95   175   177   ar
    96   178   179   ar
    97   132   133    1
    98   197   200    1
    99   197   196    1
   100   177   179   ar
   101    32    34   ar
   102   171   170    1
   103   171   172    1
   104    56    57    1
   105   136   137   ar
   106   136   138   ar
   107    33    35   ar
   108    57    60    1
   109    65    64   ar
   110    65    63   ar
   111   134   133    2
   112   200   201    1
   113    64    62   ar
   114    63    61   ar
   115   133   139   am
   116   203   201   ar
   117   203   205   ar
   118    62    61   ar
   119    61    60    1
   120    34    35   ar
   121   201   202   ar
   122   172   173    2
   123   172   180   am
   124   205   206   ar
   125   147   148    1
   126   139   140    1
   127   180   181    1
   128   202   204   ar
   129   154   153   ar
   130   115   114    2
   131   206   204   ar
   132   206   207    1
   133   141   142    2
   134   141   140    1
   135   152   153    1
   136   152   151    1
   137   153   155   ar
   138   140   143    1
   139   187   185   ar
   140   186   185   ar
   141   148   151    1
   142   148   149    1
   143   181   184    1
   144   181   182    1
   145   185   184    1
   146   114   113    1
   147   143   144    1
   148   190   191    2
   149   190   189    1
   150   111   108    1
   151   116   117    1
   152   116   113    1
   153   105   104    2
   154   194   193   ar
   155   144   145    1
   156   144   146    1
   157   117   118    1
   158   150   149    2
   159   183   182    2
   160   113   112    1
   161   112   109   am
   162   189   188    1
   163   189   192    1
   164   106   103    1
   165   104   107   am
   166   104   103    1
   167   193   195   ar
   168   193   192    1
   169   108   109    1
   170   108   107    1
   171   109   110    2
   172   119   118    1
   173   103   102    1
   174   216   214   ar
   175   215   214   ar
   176   164   165   ar
   177   164   162   ar
   178    94    93    2
   179   214   213    1
   180   167   165   ar
   181   167   169   ar
   182   165   163   ar
   183   102    98   am
   184   162   161   ar
   185   169   168   ar
   186   156   157    1
   187   222   221    1
   188   222   223    1
   189   224   223    1
   190   224   225    1
   191    93    92    1
   192    93    95   am
   193    89    90    1
   194    89    92    1
   195    89    88    1
   196    91    90    2
   197   163   161   ar
   198   163   166   ar
   199   161   160    1
   200   213   212    1
   201   212   209    1
   202    90    96   am
   203    98    99    2
   204    98    97    1
   205   221   218    1
   206   168   166   ar
   207   159   158    2
   208   208   209    1
   209   160   157    1
   210   157   158    1
   211    96    97    1
   212   217   218    1
   213   217   210   am
   214   209   210    1
   215    97   100    1
   216   101   100    1
   217   218   219    1
   218   210   211    2
   219   219   220    2
