@<TRIPOS>MOLECULE
tmp/4j48A00.pdb
 115 114 0 0 0
SMALL
GASTEIGER

@<TRIPOS>ATOM
      1  N        -40.7420  -24.8690  -18.0100 N.3    47  GLN47      -0.1245
      2  CA       -39.3320  -24.9690  -18.0220 C.3    47  GLN47       0.1566
      3  C        -38.6940  -23.6840  -18.5970 C.2    47  GLN47       0.2260
      4  O        -38.9680  -23.2710  -19.7320 O.2    47  GLN47      -0.2867
      5  CB       -38.9150  -26.1700  -18.8440 C.3    47  GLN47       0.0367
      6  CG       -37.4130  -26.3300  -18.9770 C.3    47  GLN47       0.0905
      7  CD       -37.0890  -27.4860  -19.8840 C.2    47  GLN47       0.2608
      8  OE1      -37.9830  -28.1530  -20.3800 O.2    47  GLN47      -0.2717
      9  NE2      -35.8240  -27.7450  -20.0770 N.am   47  GLN47      -0.0878
     10  N        -31.1780  -24.7820  -16.4850 N.3    56  LYS56      -0.1231
     11  CA       -32.6050  -24.9760  -16.7280 C.3    56  LYS56       0.1693
     12  C        -33.3500  -25.4040  -15.4840 C.2    56  LYS56       0.2592
     13  O        -32.8530  -26.1820  -14.6690 O.2    56  LYS56      -0.2718
     14  CB       -32.8320  -26.0320  -17.7940 C.3    56  LYS56       0.0285
     15  CG       -32.4830  -25.5830  -19.1980 C.3    56  LYS56       0.0035
     16  CD       -32.9960  -26.5640  -20.2200 C.3    56  LYS56       0.0206
     17  CE       -31.9260  -26.9340  -21.2040 C.3    56  LYS56       0.1093
     18  NZ       -32.5470  -27.4630  -22.4530 N.3    56  LYS56      -0.1314
     19  N        -34.5670  -24.8710  -15.3420 N.am   57  LEU57      -0.1966
     20  CA       -35.3550  -25.1250  -14.1530 C.3    57  LEU57       0.1728
     21  C        -36.7970  -25.3500  -14.5410 C.2    57  LEU57       0.2616
     22  O        -37.2640  -24.7170  -15.4930 O.2    57  LEU57      -0.2715
     23  CB       -35.2770  -23.9340  -13.2240 C.3    57  LEU57       0.0311
     24  CG       -33.9260  -23.7110  -12.5220 C.3    57  LEU57       0.0022
     25  CD1      -34.0560  -22.3490  -11.8340 C.3    57  LEU57       0.0001
     26  CD2      -33.5710  -24.8110  -11.5350 C.3    57  LEU57       0.0001
     27  N        -37.4900  -26.2190  -13.7870 N.am   58  LYS58      -0.1963
     28  CA       -38.9340  -26.5010  -14.0330 C.3    58  LYS58       0.1728
     29  C        -39.5980  -26.8270  -12.6990 C.2    58  LYS58       0.2616
     30  O        -38.9600  -26.7800  -11.6310 O.2    58  LYS58      -0.2715
     31  CB       -39.1240  -27.6680  -15.0120 C.3    58  LYS58       0.0311
     32  CG       -38.4880  -28.9810  -14.5110 C.3    58  LYS58       0.0038
     33  CD       -38.9170  -30.2080  -15.2940 C.3    58  LYS58       0.0206
     34  CE       -38.5410  -31.4330  -14.4820 C.3    58  LYS58       0.1093
     35  NZ       -38.8620  -32.7160  -15.1550 N.3    58  LYS58      -0.1314
     36  N        -40.8900  -27.1290  -12.7900 N.am   59  ASN59      -0.1958
     37  CA       -41.6940  -27.5470  -11.6790 C.3    59  ASN59       0.1819
     38  C        -41.5570  -26.5170  -10.5550 C.2    59  ASN59       0.2621
     39  O        -41.1670  -26.8010   -9.4520 O.2    59  ASN59      -0.2715
     40  CB       -41.3270  -28.9740  -11.2690 C.3    59  ASN59       0.1195
     41  CG       -41.7690  -30.0370  -12.2960 C.2    59  ASN59       0.2630
     42  OD1      -42.6730  -29.8680  -13.0920 O.2    59  ASN59      -0.2716
     43  ND2      -41.1200  -31.1460  -12.2350 N.am   59  ASN59      -0.0877
     44  N        -41.8920  -25.2820  -10.8740 N.am   60  TRP60      -0.1960
     45  CA       -41.8360  -24.2200   -9.8920 C.3    60  TRP60       0.1771
     46  C        -42.8430  -24.5140   -8.7480 C.2    60  TRP60       0.2619
     47  O        -43.7720  -25.2440   -8.9150 O.2    60  TRP60      -0.2715
     48  CB       -42.1070  -22.8950  -10.5670 C.3    60  TRP60       0.0590
     49  CG       -41.0400  -22.5860  -11.5210 C.ar   60  TRP60       0.0006
     50  CD1      -40.9540  -22.9700  -12.8200 C.ar   60  TRP60       0.0946
     51  CD2      -39.8650  -21.8110  -11.2500 C.ar   60  TRP60       0.0152
     52  NE1      -39.8070  -22.4720  -13.3810 N.ar   60  TRP60      -0.2442
     53  CE2      -39.1180  -21.7600  -12.4320 C.ar   60  TRP60       0.0810
     54  CE3      -39.4060  -21.1090  -10.1330 C.ar   60  TRP60       0.0012
     55  CZ2      -37.9090  -21.0620  -12.5280 C.ar   60  TRP60       0.0191
     56  CZ3      -38.1530  -20.4110  -10.2310 C.ar   60  TRP60       0.0001
     57  CH2      -37.4540  -20.3970  -11.4170 C.ar   60  TRP60       0.0015
     58  N        -42.5450  -24.0050   -7.5700 N.am   61  GLU61      -0.1977
     59  CA       -43.1700  -24.4120   -6.3190 C.3    61  GLU61       0.1602
     60  C        -43.7600  -23.1400   -5.7230 C.2    61  GLU61       0.2287
     61  O        -43.2060  -22.0630   -5.9380 O.2    61  GLU61      -0.2864
     62  CB       -42.1000  -24.9690   -5.3860 C.3    61  GLU61       0.0415
     63  CG       -42.5630  -26.1320   -4.5460 C.3    61  GLU61       0.1163
     64  CD       -42.6770  -27.4150   -5.3350 C.2    61  GLU61       0.3649
     65  OE1      -41.6570  -27.8430   -5.9260 O.co2  61  GLU61      -0.2457
     66  OE2      -43.7640  -27.9940   -5.3390 O.co2  61  GLU61      -0.2457
     67  N        -41.5970  -19.9670   -4.5030 N.3    64  ASP64      -0.1239
     68  CA       -40.2710  -19.9750   -5.1530 C.3    64  ASP64       0.1674
     69  C        -40.1280  -18.5510   -5.6670 C.2    64  ASP64       0.2266
     70  O        -41.1160  -17.9430   -6.1030 O.2    64  ASP64      -0.2867
     71  CB       -40.1990  -20.8790   -6.3900 C.3    64  ASP64       0.1410
     72  CG       -39.9830  -22.4070   -6.0530 C.2    64  ASP64       0.3668
     73  OD1      -39.7070  -22.7880   -4.9090 O.co2  64  ASP64      -0.2456
     74  OD2      -40.0540  -23.2400   -6.9900 O.co2  64  ASP64      -0.2456
     75  N        -34.0610  -19.4450   -6.6640 N.3    69  GLU69      -0.1245
     76  CA       -33.9370  -20.7360   -7.3650 C.3    69  GLU69       0.1567
     77  C        -32.7980  -20.7830   -8.3680 C.2    69  GLU69       0.2260
     78  O        -32.1500  -21.7940   -8.4930 O.2    69  GLU69      -0.2867
     79  CB       -35.2200  -21.0850   -8.0590 C.3    69  GLU69       0.0388
     80  CG       -36.3370  -21.3610   -7.0630 C.3    69  GLU69       0.1160
     81  CD       -35.9650  -22.4710   -6.1050 C.2    69  GLU69       0.3649
     82  OE1      -35.8300  -23.6420   -6.5260 O.co2  69  GLU69      -0.2457
     83  OE2      -35.8400  -22.1710   -4.9080 O.co2  69  GLU69      -0.2457
     84  N        -29.4840  -20.7530   -6.0960 N.3    72  ARG72      -0.1231
     85  CA       -29.2390  -21.9640   -5.3120 C.3    72  ARG72       0.1694
     86  C        -28.9310  -23.1960   -6.1930 C.2    72  ARG72       0.2592
     87  O        -28.1960  -24.0740   -5.7850 O.2    72  ARG72      -0.2718
     88  CB       -30.3630  -22.2150   -4.2620 C.3    72  ARG72       0.0321
     89  CG       -31.6400  -22.8810   -4.7780 C.3    72  ARG72       0.0489
     90  CD       -32.6800  -23.0780   -3.6560 C.3    72  ARG72       0.2205
     91  NE       -33.7930  -23.9620   -4.0570 N.pl3  72  ARG72      -0.0865
     92  CZ       -33.7050  -25.2880   -4.1540 C.cat  72  ARG72       0.5346
     93  NH1      -32.5730  -25.9070   -3.8500 N.pl3  72  ARG72       0.1354
     94  NH2      -34.7590  -25.9970   -4.5430 N.pl3  72  ARG72       0.1354
     95  N        -29.4370  -23.2250   -7.4110 N.am   73  HIS73      -0.1962
     96  CA       -29.1320  -24.3150   -8.3400 C.3    73  HIS73       0.1787
     97  C        -27.8740  -24.0650   -9.1520 C.2    73  HIS73       0.2620
     98  O        -27.1210  -25.0080   -9.4350 O.2    73  HIS73      -0.2715
     99  CB       -30.2840  -24.5390   -9.2780 C.3    73  HIS73       0.0785
    100  CG       -31.4120  -25.2740   -8.6530 C.ar   73  HIS73       0.0821
    101  ND1      -32.5840  -24.6520   -8.2930 N.ar   73  HIS73      -0.2267
    102  CD2      -31.5590  -26.5820   -8.3350 C.ar   73  HIS73       0.1154
    103  CE1      -33.4150  -25.5420   -7.7870 C.ar   73  HIS73       0.1986
    104  NE2      -32.8200  -26.7160   -7.7990 N.ar   73  HIS73      -0.2212
    105  N        -27.6630  -22.8150   -9.5580 N.am   74  PHE74      -0.1974
    106  CA       -26.4910  -22.4200  -10.3830 C.3    74  PHE74       0.1639
    107  C        -25.7350  -21.2410   -9.7620 C.2    74  PHE74       0.2290
    108  O        -25.6750  -20.1700  -10.3400 O.2    74  PHE74      -0.2864
    109  CB       -26.9450  -22.1180  -11.8340 C.3    74  PHE74       0.0560
    110  CG       -27.9630  -23.0970  -12.3570 C.ar   74  PHE74      -0.0200
    111  CD1      -27.6240  -24.4370  -12.5660 C.ar   74  PHE74      -0.0042
    112  CD2      -29.2320  -22.7000  -12.6140 C.ar   74  PHE74      -0.0042
    113  CE1      -28.5470  -25.3440  -13.0160 C.ar   74  PHE74      -0.0003
    114  CE2      -30.1880  -23.5940  -13.0680 C.ar   74  PHE74      -0.0003
    115  CZ       -29.8510  -24.9230  -13.2700 C.ar   74  PHE74      -0.0000
@<TRIPOS>BOND
     1    18    17    1
     2    17    16    1
     3     8     7    2
     4    16    15    1
     5     9     7   am
     6     7     6    1
     7     4     3    2
     8    15    14    1
     9     6     5    1
    10     5     2    1
    11     3     2    1
    12     2     1    1
    13    14    11    1
    14    11    10    1
    15    11    12    1
    16    22    21    2
    17    12    19   am
    18    12    13    2
    19    19    20    1
    20    33    32    1
    21    33    34    1
    22    35    34    1
    23    31    32    1
    24    31    28    1
    25    21    20    1
    26    21    27   am
    27    20    23    1
    28    28    27    1
    29    28    29    1
    30    52    50   ar
    31    52    53   ar
    32   115   114   ar
    33   115   113   ar
    34    23    24    1
    35    42    41    2
    36   114   112   ar
    37   113   111   ar
    38    50    49   ar
    39    36    29   am
    40    36    37    1
    41    29    30    2
    42   112   110   ar
    43   111   110   ar
    44    55    53   ar
    45    55    57   ar
    46    24    25    1
    47    24    26    1
    48    53    51   ar
    49   110   109    1
    50    41    43   am
    51    41    40    1
    52   109   106    1
    53    37    40    1
    54    37    38    1
    55    49    51   ar
    56    49    48    1
    57    57    56   ar
    58    51    54   ar
    59    44    38   am
    60    44    45    1
    61    48    45    1
    62    38    39    2
    63   106   107    1
    64   106   105    1
    65   108   107    2
    66    56    54   ar
    67    45    46    1
    68   105    97   am
    69    98    97    2
    70    99   100    1
    71    99    96    1
    72    97    96    1
    73    47    46    2
    74    46    58   am
    75   100   102   ar
    76   100   101   ar
    77    78    77    2
    78    77    76    1
    79    96    95    1
    80   102   104   ar
    81   101   103   ar
    82    79    76    1
    83    79    80    1
    84   104   103   ar
    85    58    59    1
    86    95    86   am
    87    76    75    1
    88    80    81    1
    89    74    72   ar
    90    82    81   ar
    91    71    72    1
    92    71    68    1
    93    59    60    1
    94    59    62    1
    95    86    87    2
    96    86    85    1
    97    81    83   ar
    98    70    69    2
    99    84    85    1
   100    72    73   ar
   101    61    60    2
   102    65    64   ar
   103    69    68    1
   104    62    63    1
   105    66    64   ar
   106    64    63    1
   107    85    88    1
   108    68    67    1
   109    89    88    1
   110    89    90    1
   111    94    92    1
   112    92    91    2
   113    92    93    1
   114    91    90    1
