@<TRIPOS>MOLECULE
tmp/4j4bB00.pdb
 148 142 0 0 0
SMALL
GASTEIGER

@<TRIPOS>ATOM
      1  N        -14.6110   15.9290  -26.3110 N.3     2  ALA2       -0.1231
      2  CA       -13.8060   14.7150  -26.1440 C.3     2  ALA2        0.1694
      3  C        -13.7310   13.8490  -27.4130 C.2     2  ALA2        0.2592
      4  O        -13.6000   12.6240  -27.3360 O.2     2  ALA2       -0.2718
      5  CB       -14.2690   13.9000  -24.9380 C.3     2  ALA2        0.0304
      6  N        -13.8110   14.4990  -28.5740 N.am    3  LEU3       -0.1966
      7  CA       -13.5660   13.8420  -29.8570 C.3     3  LEU3        0.1728
      8  C        -12.1090   14.0150  -30.2620 C.2     3  LEU3        0.2616
      9  O        -11.4610   14.9840  -29.8660 O.2     3  LEU3       -0.2715
     10  CB       -14.4720   14.4140  -30.9530 C.3     3  LEU3        0.0311
     11  CG       -15.9940   14.2730  -30.8410 C.3     3  LEU3        0.0022
     12  CD1      -16.6310   14.6780  -32.1630 C.3     3  LEU3        0.0001
     13  CD2      -16.4160   12.8580  -30.4610 C.3     3  LEU3        0.0001
     14  N        -11.5990   13.0710  -31.0470 N.am    4  LEU4       -0.1977
     15  CA       -10.2480   13.1620  -31.5960 C.3     4  LEU4        0.1596
     16  C        -10.0790   14.3770  -32.4990 C.2     4  LEU4        0.2287
     17  O        -11.0320   14.8300  -33.1410 O.2     4  LEU4       -0.2864
     18  CB        -9.9120   11.9050  -32.3950 C.3     4  LEU4        0.0297
     19  CG        -9.5890   10.6150  -31.6470 C.3     4  LEU4        0.0022
     20  CD1       -9.5560    9.4690  -32.6430 C.3     4  LEU4        0.0001
     21  CD2       -8.2590   10.7330  -30.9140 C.3     4  LEU4        0.0001
     22  N        -15.4080    2.9510  -43.1900 N.3    51  VAL51      -0.1231
     23  CA       -16.3380    3.8840  -43.8220 C.3    51  VAL51       0.1678
     24  C        -16.3150    5.2930  -43.2210 C.2    51  VAL51       0.2434
     25  O        -16.7450    5.5100  -42.0770 O.2    51  VAL51      -0.2733
     26  CB       -17.7900    3.3520  -43.8320 C.3    51  VAL51       0.0265
     27  CG1      -18.6620    4.3170  -44.6120 C.3    51  VAL51       0.0020
     28  CG2      -17.8640    1.9570  -44.4500 C.3    51  VAL51       0.0020
     29  N        -15.8340    6.2710  -44.0010 N.am   52  PRO52      -0.2718
     30  CA       -15.8090    7.6370  -43.5010 C.3    52  PRO52       0.1535
     31  C        -17.2350    8.1310  -43.2990 C.2    52  PRO52       0.2598
     32  O        -18.1370    7.7520  -44.0660 O.2    52  PRO52      -0.2715
     33  CB       -15.0990    8.4070  -44.6200 C.3    52  PRO52       0.0310
     34  CG       -14.3260    7.3610  -45.3710 C.3    52  PRO52       0.0237
     35  CD       -15.2540    6.1780  -45.3520 C.3    52  PRO52       0.0939
     36  N        -17.4400    8.9080  -42.2370 N.am   53  VAL53      -0.1978
     37  CA       -18.7770    9.3750  -41.8620 C.3    53  VAL53       0.1596
     38  C        -18.8180   10.9080  -41.6810 C.2    53  VAL53       0.2287
     39  O        -17.9740   11.4920  -40.9880 O.2    53  VAL53      -0.2864
     40  CB       -19.3120    8.5930  -40.6300 C.3    53  VAL53       0.0276
     41  CG1      -20.4550    9.3300  -39.9460 C.3    53  VAL53       0.0022
     42  CG2      -19.7790    7.1950  -41.0440 C.3    53  VAL53       0.0022
     43  N        -21.5560   12.6650  -40.6030 N.3    55  SER55      -0.1217
     44  CA       -22.5090   13.0040  -39.5400 C.3    55  SER55       0.1889
     45  C        -21.9070   13.9160  -38.4740 C.2    55  SER55       0.2288
     46  O        -20.6970   13.8860  -38.2330 O.2    55  SER55      -0.2866
     47  CB       -23.0080   11.7140  -38.8690 C.3    55  SER55       0.2089
     48  OG       -23.6970   11.9810  -37.6520 O.3    55  SER55      -0.2183
     49  N        -18.6400   15.8340  -38.3650 N.3    58  GLY58      -0.1210
     50  CA       -18.1560   15.4480  -39.6810 C.3    58  GLY58       0.1956
     51  C        -16.8940   14.6050  -39.6630 C.2    58  GLY58       0.2612
     52  O        -16.4670   14.1090  -38.6180 O.2    58  GLY58      -0.2717
     53  N        -16.3080   14.4500  -40.8440 N.am   59  ILE59      -0.1965
     54  CA       -15.0760   13.7050  -41.0200 C.3    59  ILE59       0.1727
     55  C        -13.9480   14.3640  -40.2360 C.2    59  ILE59       0.2616
     56  O        -13.7700   15.5810  -40.3000 O.2    59  ILE59      -0.2715
     57  CB       -14.7240   13.5880  -42.5180 C.3    59  ILE59       0.0290
     58  CG1      -15.6840   12.5960  -43.1900 C.3    59  ILE59       0.0022
     59  CG2      -13.2690   13.1690  -42.7110 C.3    59  ILE59       0.0023
     60  CD1      -15.5600   12.4870  -44.6950 C.3    59  ILE59       0.0001
     61  N        -13.2110   13.5590  -39.4760 N.am   60  ILE60      -0.1977
     62  CA       -12.0550   14.0550  -38.7270 C.3    60  ILE60       0.1596
     63  C        -10.7730   13.7080  -39.4850 C.2    60  ILE60       0.2287
     64  O        -10.5260   12.5410  -39.7950 O.2    60  ILE60      -0.2864
     65  CB       -11.9950   13.4670  -37.2960 C.3    60  ILE60       0.0276
     66  CG1      -13.2060   13.9160  -36.4700 C.3    60  ILE60       0.0022
     67  CG2      -10.6980   13.8680  -36.5890 C.3    60  ILE60       0.0022
     68  CD1      -13.2980   13.2640  -35.1000 C.3    60  ILE60       0.0001
     69  N         -8.4630   10.4040  -39.3440 N.3    63  PHE63      -0.1227
     70  CA        -9.2230    9.3130  -38.7160 C.3    63  PHE63       0.1736
     71  C         -9.2760    8.0200  -39.5250 C.2    63  PHE63       0.2596
     72  O         -8.8510    6.9790  -39.0280 O.2    63  PHE63      -0.2718
     73  CB       -10.6370    9.7590  -38.2930 C.3    63  PHE63       0.0547
     74  CG       -11.4020    8.7220  -37.4990 C.ar   63  PHE63      -0.0202
     75  CD1      -11.1030    8.4790  -36.1570 C.ar   63  PHE63      -0.0042
     76  CD2      -12.4390    8.0000  -38.0910 C.ar   63  PHE63      -0.0042
     77  CE1      -11.8150    7.5260  -35.4280 C.ar   63  PHE63      -0.0003
     78  CE2      -13.1540    7.0490  -37.3740 C.ar   63  PHE63      -0.0003
     79  CZ       -12.8450    6.8140  -36.0380 C.ar   63  PHE63      -0.0000
     80  N         -9.8110    8.0600  -40.7480 N.am   64  SER64      -0.1952
     81  CA        -9.8500    6.8430  -41.5580 C.3    64  SER64       0.1924
     82  C         -8.4430    6.3710  -41.9320 C.2    64  SER64       0.2314
     83  O         -8.1730    5.1720  -41.9290 O.2    64  SER64      -0.2863
     84  CB       -10.6960    7.0270  -42.8150 C.3    64  SER64       0.2116
     85  OG       -10.0190    7.8300  -43.7520 O.3    64  SER64      -0.2180
     86  N        -17.6320    5.2280  -37.4680 N.3   103  ALA103     -0.1231
     87  CA       -17.9280    6.0300  -36.2880 C.3   103  ALA103      0.1694
     88  C        -18.6760    7.3170  -36.6170 C.2   103  ALA103      0.2592
     89  O        -18.2760    8.0470  -37.5210 O.2   103  ALA103     -0.2718
     90  CB       -16.6280    6.3830  -35.5580 C.3   103  ALA103      0.0304
     91  N        -19.7450    7.5990  -35.8680 N.am  104  ASP104     -0.1960
     92  CA       -20.2610    8.9710  -35.7850 C.3   104  ASP104      0.1840
     93  C        -19.7490    9.6390  -34.4880 C.2   104  ASP104      0.2622
     94  O        -18.7790    9.1450  -33.8920 O.2   104  ASP104     -0.2715
     95  CB       -21.7920    9.0820  -36.0390 C.3   104  ASP104      0.1450
     96  CG       -22.6690    8.4780  -34.9300 C.2   104  ASP104      0.3671
     97  OD1      -22.2410    8.3200  -33.7680 O.co2 104  ASP104     -0.2456
     98  OD2      -23.8500    8.1880  -35.2310 O.co2 104  ASP104     -0.2456
     99  N        -20.3420   10.7640  -34.0840 N.am  105  ASP105     -0.1971
    100  CA       -19.8420   11.5060  -32.9090 C.3   105  ASP105      0.1709
    101  C        -20.1310   10.8150  -31.5870 C.2   105  ASP105      0.2293
    102  O        -19.4820   11.1040  -30.5730 O.2   105  ASP105     -0.2864
    103  CB       -20.3950   12.9340  -32.8680 C.3   105  ASP105      0.1436
    104  CG       -19.7970   13.8220  -33.9350 C.2   105  ASP105      0.3671
    105  OD1      -18.8050   13.4150  -34.5710 O.co2 105  ASP105     -0.2456
    106  OD2      -20.3220   14.9330  -34.1350 O.co2 105  ASP105     -0.2456
    107  N        -18.5950    4.7010  -32.1150 N.3   108  PHE108     -0.1241
    108  CA       -17.5860    4.1260  -33.0020 C.3   108  PHE108      0.1605
    109  C        -17.7530    2.6010  -32.9160 C.2   108  PHE108      0.2264
    110  O        -17.6060    2.0240  -31.8350 O.2   108  PHE108     -0.2867
    111  CB       -16.1810    4.5900  -32.5600 C.3   108  PHE108      0.0534
    112  CG       -15.0480    3.9220  -33.2880 C.ar  108  PHE108     -0.0203
    113  CD1      -15.2190    3.3980  -34.5700 C.ar  108  PHE108     -0.0042
    114  CD2      -13.7900    3.8370  -32.6930 C.ar  108  PHE108     -0.0042
    115  CE1      -14.1690    2.7910  -35.2300 C.ar  108  PHE108     -0.0003
    116  CE2      -12.7360    3.2280  -33.3550 C.ar  108  PHE108     -0.0003
    117  CZ       -12.9290    2.7050  -34.6250 C.ar  108  PHE108     -0.0000
    118  N        -16.8390    0.9250  -29.2340 N.3   121  ASN121     -0.1240
    119  CA       -15.5240    1.4490  -28.8110 C.3   121  ASN121      0.1653
    120  C        -15.3760    1.7800  -27.3210 C.2   121  ASN121      0.2266
    121  O        -14.2970    1.6100  -26.7440 O.2   121  ASN121     -0.2867
    122  CB       -15.1770    2.6860  -29.6350 C.3   121  ASN121      0.1155
    123  CG       -13.8130    3.2570  -29.3010 C.2   121  ASN121      0.2627
    124  OD1      -13.7130    4.3490  -28.7480 O.2   121  ASN121     -0.2716
    125  ND2      -12.7550    2.5270  -29.6530 N.am  121  ASN121     -0.0877
    126  N         -7.3950   11.6330  -23.2760 N.3   226  ILE226     -0.1245
    127  CA        -6.7380   12.6760  -24.0650 C.3   226  ILE226      0.1561
    128  C         -7.2380   14.0360  -23.5620 C.2   226  ILE226      0.2260
    129  O         -8.4380   14.3110  -23.6270 O.2   226  ILE226     -0.2867
    130  CB        -7.0490   12.5400  -25.5780 C.3   226  ILE226      0.0252
    131  CG1       -6.6770   11.1440  -26.0940 C.3   226  ILE226      0.0019
    132  CG2       -6.3280   13.6200  -26.3790 C.3   226  ILE226      0.0019
    133  CD1       -7.5440   10.6520  -27.2360 C.3   226  ILE226      0.0001
    134  N         -3.9190    7.0290  -28.8320 N.3   246  PRO246     -0.2102
    135  CA        -5.2160    7.6820  -29.0650 C.3   246  PRO246      0.1504
    136  C         -6.3170    6.9030  -29.8000 C.2   246  PRO246      0.2575
    137  O         -7.4570    7.3730  -29.8090 O.2   246  PRO246     -0.2718
    138  CB        -4.8310    8.9230  -29.8650 C.3   246  PRO246      0.0282
    139  CG        -3.6340    8.4740  -30.6460 C.3   246  PRO246      0.0208
    140  CD        -2.8930    7.5000  -29.7780 C.3   246  PRO246      0.0893
    141  N         -6.0150    5.7520  -30.4040 N.am  247  LEU247     -0.1980
    142  CA        -7.0350    5.0460  -31.2210 C.3   247  LEU247      0.1596
    143  C         -6.8290    3.5360  -31.3490 C.2   247  LEU247      0.2287
    144  O         -7.7810    2.7550  -31.2970 O.2   247  LEU247     -0.2864
    145  CB        -7.1170    5.6790  -32.6260 C.3   247  LEU247      0.0297
    146  CG        -8.2470    5.2840  -33.5850 C.3   247  LEU247      0.0022
    147  CD1       -9.6340    5.4420  -32.9620 C.3   247  LEU247      0.0001
    148  CD2       -8.1250    6.0870  -34.8780 C.3   247  LEU247      0.0001
@<TRIPOS>BOND
     1    34    35    1
     2    34    33    1
     3    35    29    1
     4    60    58    1
     5    33    30    1
     6    27    26    1
     7    28    26    1
     8    32    31    2
     9    29    30    1
    10    29    24   am
    11    26    23    1
    12    23    24    1
    13    23    22    1
    14    85    84    1
    15    30    31    1
    16    31    36   am
    17    24    25    2
    18    58    57    1
    19    84    81    1
    20    59    57    1
    21    57    54    1
    22    36    37    1
    23    82    83    2
    24    82    81    1
    25    37    38    1
    26    37    40    1
    27    38    39    2
    28    81    80    1
    29    42    40    1
    30    54    53    1
    31    54    55    1
    32    53    51   am
    33    80    71   am
    34    40    41    1
    35    43    44    1
    36    56    55    2
    37    55    61   am
    38    64    63    2
    39    50    51    1
    40    50    49    1
    41    51    52    2
    42    44    47    1
    43    44    45    1
    44    71    72    2
    45    71    70    1
    46    63    62    1
    47    61    62    1
    48    69    70    1
    49    47    48    1
    50    62    65    1
    51    70    73    1
    52    45    46    2
    53    73    74    1
    54    76    74   ar
    55    76    78   ar
    56    89    88    2
    57    74    75   ar
    58    86    87    1
    59    78    79   ar
    60    65    67    1
    61    65    66    1
    62    88    87    1
    63    88    91   am
    64    66    68    1
    65    87    90    1
    66    75    77   ar
    67    95    92    1
    68    95    96    1
    69    79    77   ar
    70    91    92    1
    71    92    93    1
    72    98    96   ar
    73   115   117   ar
    74   115   113   ar
    75    96    97   ar
    76   148   146    1
    77   117   116   ar
    78   105   104   ar
    79   113   112   ar
    80    93    99   am
    81    93    94    2
    82   106   104   ar
    83    99   100    1
    84   104   103    1
    85   146   147    1
    86   146   145    1
    87   116   114   ar
    88   112   114   ar
    89   112   111    1
    90    17    16    2
    91   108   109    1
    92   108   111    1
    93   108   107    1
    94   109   110    2
    95   100   103    1
    96   100   101    1
    97    20    19    1
    98   145   142    1
    99    16    15    1
   100    18    19    1
   101    18    15    1
   102    12    11    1
   103    19    21    1
   104    15    14    1
   105   101   102    2
   106   143   144    2
   107   143   142    1
   108   142   141    1
   109    14     8   am
   110    10    11    1
   111    10     7    1
   112    11    13    1
   113   139   138    1
   114   139   140    1
   115   141   136   am
   116     8     9    2
   117     8     7    1
   118   138   135    1
   119     7     6    1
   120   137   136    2
   121   136   135    1
   122   140   134    1
   123   125   123   am
   124   122   123    1
   125   122   119    1
   126   123   124    2
   127   118   119    1
   128   135   134    1
   129   119   120    1
   130     6     3   am
   131     3     4    2
   132     3     2    1
   133   120   121    2
   134   133   131    1
   135   132   130    1
   136     1     2    1
   137     2     5    1
   138   131   130    1
   139   130   127    1
   140   127   128    1
   141   127   126    1
   142   129   128    2
