@<TRIPOS>MOLECULE
tmp/4j4kA01.pdb
 139 132 0 0 0
SMALL
GASTEIGER

@<TRIPOS>ATOM
      1  N         36.1320   24.0030   39.5550 N.3    14  TRP14      -0.1241
      2  CA        37.2240   23.7940   40.5070 C.3    14  TRP14       0.1605
      3  C         38.3130   22.8290   40.0240 C.2    14  TRP14       0.2264
      4  O         39.3360   22.6670   40.7030 O.2    14  TRP14      -0.2867
      5  CB        36.6500   23.2730   41.8300 C.3    14  TRP14       0.0550
      6  CG        36.1390   21.8590   41.7460 C.ar   14  TRP14       0.0003
      7  CD1       36.8490   20.7220   41.9980 C.ar   14  TRP14       0.0946
      8  CD2       34.8210   21.4280   41.3680 C.ar   14  TRP14       0.0152
      9  NE1       36.0620   19.6170   41.8110 N.ar   14  TRP14      -0.2442
     10  CE2       34.8130   20.0180   41.4220 C.ar   14  TRP14       0.0810
     11  CE3       33.6460   22.0940   41.0040 C.ar   14  TRP14       0.0012
     12  CZ2       33.6760   19.2610   41.1230 C.ar   14  TRP14       0.0191
     13  CZ3       32.5190   21.3410   40.7000 C.ar   14  TRP14       0.0001
     14  CH2       32.5400   19.9450   40.7620 C.ar   14  TRP14       0.0015
     15  N         30.5470   24.5290   42.5970 N.3    52  HIS52      -0.1241
     16  CA        30.1640   24.8010   43.9810 C.3    52  HIS52       0.1621
     17  C         29.6840   26.2340   44.0290 C.2    52  HIS52       0.2264
     18  O         30.2110   27.0820   43.3030 O.2    52  HIS52      -0.2867
     19  CB        31.3490   24.7320   44.9440 C.3    52  HIS52       0.0745
     20  CG        32.0060   23.3960   45.0190 C.ar   52  HIS52       0.0817
     21  ND1       32.9970   23.0090   44.1500 N.ar   52  HIS52      -0.2268
     22  CD2       31.8300   22.3620   45.8760 C.ar   52  HIS52       0.1154
     23  CE1       33.3950   21.7870   44.4550 C.ar   52  HIS52       0.1986
     24  NE2       32.7010   21.3710   45.4980 N.ar   52  HIS52      -0.2212
     25  N         24.8690   20.0050   36.6460 N.3    86  MET86      -0.1245
     26  CA        25.0330   19.6420   38.0480 C.3    86  MET86       0.1570
     27  C         25.6440   20.7940   38.8320 C.2    86  MET86       0.2261
     28  O         26.4680   21.5510   38.3100 O.2    86  MET86      -0.2867
     29  CB        25.9110   18.3880   38.1680 C.3    86  MET86       0.0387
     30  CG        26.1370   17.8780   39.5900 C.3    86  MET86       0.0595
     31  SD        27.5520   18.6130   40.4370 S.3    86  MET86      -0.1393
     32  CE        28.8880   17.6070   39.7930 C.3    86  MET86       0.0692
     33  N         26.6270   21.9510   43.2810 N.3    88  THR88      -0.1203
     34  CA        26.8810   21.4400   44.6130 C.3    88  THR88       0.1994
     35  C         27.2210   22.6110   45.5280 C.2    88  THR88       0.2618
     36  O         27.3570   23.7540   45.0770 O.2    88  THR88      -0.2717
     37  CB        28.0280   20.4030   44.5780 C.3    88  THR88       0.1784
     38  OG1       28.2070   19.8100   45.8710 O.3    88  THR88      -0.2211
     39  CG2       29.3270   21.0400   44.1100 C.3    88  THR88       0.0376
     40  N         27.3630   22.3280   46.8130 N.am   89  THR89      -0.1952
     41  CA        27.6710   23.3810   47.7720 C.3    89  THR89       0.1897
     42  C         29.0170   23.0770   48.4370 C.2    89  THR89       0.2313
     43  O         29.3910   21.9120   48.6330 O.2    89  THR89      -0.2863
     44  CB        26.4530   23.7120   48.7060 C.3    89  THR89       0.1794
     45  OG1       26.8590   24.2810   49.9640 O.3    89  THR89      -0.2208
     46  CG2       25.5710   22.5640   48.9280 C.3    89  THR89       0.0378
     47  N         33.0280   22.5640   53.0310 N.3    92  PHE92      -0.1241
     48  CA        34.3180   22.0400   53.5010 C.3    92  PHE92       0.1605
     49  C         35.4800   23.0280   53.6140 C.2    92  PHE92       0.2264
     50  O         36.3750   22.8130   54.4260 O.2    92  PHE92      -0.2867
     51  CB        34.7460   20.8340   52.6440 C.3    92  PHE92       0.0534
     52  CG        34.6730   21.0750   51.1580 C.ar   92  PHE92      -0.0203
     53  CD1       33.5400   20.7160   50.4410 C.ar   92  PHE92      -0.0042
     54  CD2       35.7390   21.6370   50.4780 C.ar   92  PHE92      -0.0042
     55  CE1       33.4690   20.9340   49.0720 C.ar   92  PHE92      -0.0003
     56  CE2       35.6770   21.8570   49.1150 C.ar   92  PHE92      -0.0003
     57  CZ        34.5450   21.4970   48.4090 C.ar   92  PHE92      -0.0000
     58  N         24.7780   17.5870   43.7940 N.3   133  VAL133     -0.1245
     59  CA        25.6940   16.6650   44.4710 C.3   133  VAL133      0.1561
     60  C         25.9900   17.1350   45.8870 C.2   133  VAL133      0.2260
     61  O         26.0560   18.3370   46.1560 O.2   133  VAL133     -0.2867
     62  CB        27.0100   16.5010   43.6740 C.3   133  VAL133      0.0252
     63  CG1       28.1020   15.8190   44.5030 C.3   133  VAL133      0.0019
     64  CG2       26.7410   15.7250   42.3920 C.3   133  VAL133      0.0019
     65  N         29.0260   16.1800   48.6490 N.3   135  TRP135     -0.1241
     66  CA        30.2170   15.4880   49.1340 C.3   135  TRP135      0.1605
     67  C         30.4490   15.9080   50.5750 C.2   135  TRP135      0.2264
     68  O         30.8710   17.0360   50.8300 O.2   135  TRP135     -0.2867
     69  CB        31.4420   15.8500   48.2970 C.3   135  TRP135      0.0550
     70  CG        32.7360   15.3110   48.8500 C.ar  135  TRP135      0.0003
     71  CD1       33.0720   14.0010   49.0100 C.ar  135  TRP135      0.0946
     72  CD2       33.8650   16.0700   49.3060 C.ar  135  TRP135      0.0152
     73  NE1       34.3340   13.8940   49.5340 N.ar  135  TRP135     -0.2442
     74  CE2       34.8480   15.1470   49.7200 C.ar  135  TRP135      0.0810
     75  CE3       34.1480   17.4350   49.3870 C.ar  135  TRP135      0.0012
     76  CZ2       36.0870   15.5430   50.2230 C.ar  135  TRP135      0.0191
     77  CZ3       35.3830   17.8310   49.8970 C.ar  135  TRP135      0.0001
     78  CH2       36.3380   16.8880   50.3020 C.ar  135  TRP135      0.0015
     79  N         28.1770   11.8720   46.7900 N.3   179  GLU179     -0.1245
     80  CA        29.5060   11.5070   46.3020 C.3   179  GLU179      0.1567
     81  C         30.3320   10.9490   47.4580 C.2   179  GLU179      0.2260
     82  O         30.7880   11.7110   48.3120 O.2   179  GLU179     -0.2867
     83  CB        30.2120   12.7190   45.6910 C.3   179  GLU179      0.0388
     84  CG        31.6520   12.4430   45.2680 C.3   179  GLU179      0.1160
     85  CD        32.2170   13.4800   44.3200 C.2   179  GLU179      0.3649
     86  OE1       31.4300   14.2520   43.7180 O.co2 179  GLU179     -0.2457
     87  OE2       33.4610   13.5130   44.1710 O.co2 179  GLU179     -0.2457
     88  N         32.9460    8.5090   42.5120 N.3   215  GLU215     -0.1245
     89  CA        34.1910    8.9720   41.9020 C.3   215  GLU215      0.1567
     90  C         35.1900    7.8380   41.8430 C.2   215  GLU215      0.2260
     91  O         35.4120    7.1500   42.8430 O.2   215  GLU215     -0.2867
     92  CB        34.8010   10.1420   42.6770 C.3   215  GLU215      0.0388
     93  CG        36.0150   10.7500   41.9840 C.3   215  GLU215      0.1160
     94  CD        36.6950   11.8320   42.7970 C.2   215  GLU215      0.3649
     95  OE1       37.8860   11.6570   43.1370 O.co2 215  GLU215     -0.2457
     96  OE2       36.0540   12.8540   43.0940 O.co2 215  GLU215     -0.2457
     97  N         37.9420    7.7120   44.5730 N.3   218  HIS218     -0.1241
     98  CA        37.4750    7.5510   45.9500 C.3   218  HIS218      0.1621
     99  C         37.2370    6.1040   46.3360 C.2   218  HIS218      0.2264
    100  O         37.6780    5.6690   47.3940 O.2   218  HIS218     -0.2867
    101  CB        36.2160    8.3830   46.1880 C.3   218  HIS218      0.0745
    102  CG        36.4620    9.8560   46.1240 C.ar  218  HIS218      0.0817
    103  ND1       35.4550   10.7870   46.2400 N.ar  218  HIS218     -0.2268
    104  CD2       37.6070   10.5570   45.9500 C.ar  218  HIS218      0.1154
    105  CE1       35.9690   12.0010   46.1390 C.ar  218  HIS218      0.1986
    106  NE2       37.2740   11.8880   45.9690 N.ar  218  HIS218     -0.2212
    107  N         43.9690   11.3820   47.8070 N.3   253  ASP253     -0.1239
    108  CA        43.1130   11.5380   46.6330 C.3   253  ASP253      0.1674
    109  C         43.8760   12.3050   45.5350 C.2   253  ASP253      0.2266
    110  O         44.0860   13.5090   45.6460 O.2   253  ASP253     -0.2867
    111  CB        41.8640   12.2980   47.0770 C.3   253  ASP253      0.1410
    112  CG        40.8070   12.4150   46.0100 C.2   253  ASP253      0.3668
    113  OD1       40.5870   11.4680   45.2300 O.co2 253  ASP253     -0.2456
    114  OD2       40.1540   13.4790   45.9860 O.co2 253  ASP253     -0.2456
    115  N         43.1600   12.5720   42.0760 N.3   255  ASP255     -0.1239
    116  CA        42.3350   13.2310   41.0570 C.3   255  ASP255      0.1674
    117  C         43.1100   13.4140   39.7420 C.2   255  ASP255      0.2266
    118  O         43.1100   14.4950   39.1480 O.2   255  ASP255     -0.2867
    119  CB        41.8050   14.5870   41.5650 C.3   255  ASP255      0.1410
    120  CG        40.6950   14.4530   42.6060 C.2   255  ASP255      0.3668
    121  OD1       40.2800   15.5120   43.1300 O.co2 255  ASP255     -0.2456
    122  OD2       40.2280   13.3270   42.9050 O.co2 255  ASP255     -0.2456
    123  N         36.1500   15.0860   37.5650 N.3   285  ASP285     -0.1239
    124  CA        36.6010   15.7540   38.7740 C.3   285  ASP285      0.1674
    125  C         38.0800   15.4250   38.9110 C.2   285  ASP285      0.2266
    126  O         38.4510   14.4250   39.5210 O.2   285  ASP285     -0.2867
    127  CB        35.8030   15.2650   39.9850 C.3   285  ASP285      0.1410
    128  CG        36.2070   15.9540   41.2630 C.2   285  ASP285      0.3668
    129  OD1       36.9270   16.9680   41.1910 O.co2 285  ASP285     -0.2456
    130  OD2       35.7900   15.4860   42.3510 O.co2 285  ASP285     -0.2456
    131  N         42.3870   17.0640   38.9410 N.3   287  LYS287     -0.1245
    132  CA        43.3120   18.1550   39.1950 C.3   287  LYS287      0.1561
    133  C         44.4130   18.0750   38.1590 C.2   287  LYS287      0.2260
    134  O         45.1440   17.0850   38.1250 O.2   287  LYS287     -0.2867
    135  CB        43.9260   18.0200   40.5870 C.3   287  LYS287      0.0271
    136  CG        42.9630   18.3020   41.7220 C.3   287  LYS287      0.0035
    137  CD        43.6140   18.1190   43.0810 C.3   287  LYS287      0.0206
    138  CE        42.7310   18.6900   44.1790 C.3   287  LYS287      0.1093
    139  NZ        43.1940   18.3370   45.5470 N.3   287  LYS287     -0.1314
@<TRIPOS>BOND
     1    25    26    1
     2   123   124    1
     3    26    29    1
     4    26    27    1
     5   134   133    2
     6   133   132    1
     7    29    30    1
     8    28    27    2
     9   124   125    1
    10   124   127    1
    11   125   126    2
    12   131   132    1
    13   118   117    2
    14   132   135    1
    15     1     2    1
    16    30    31    1
    17   117   116    1
    18    32    31    1
    19   127   128    1
    20     3     2    1
    21     3     4    2
    22     2     5    1
    23   135   136    1
    24    13    14   ar
    25    13    11   ar
    26    14    12   ar
    27    11     8   ar
    28   116   119    1
    29   116   115    1
    30    12    10   ar
    31   129   128   ar
    32   128   130   ar
    33     8    10   ar
    34     8     6   ar
    35    10     9   ar
    36   119   120    1
    37   136   137    1
    38     6     5    1
    39     6     7   ar
    40     9     7   ar
    41    90    89    1
    42    90    91    2
    43    89    88    1
    44    89    92    1
    45    93    92    1
    46    93    94    1
    47    64    62    1
    48    15    16    1
    49   120   122   ar
    50   120   121   ar
    51    94    96   ar
    52    94    95   ar
    53   137   138    1
    54    33    34    1
    55    18    17    2
    56    62    59    1
    57    62    63    1
    58    86    85   ar
    59    58    59    1
    60    16    17    1
    61    16    19    1
    62    39    37    1
    63    21    23   ar
    64    21    20   ar
    65    87    85   ar
    66   138   139    1
    67    85    84    1
    68    23    24   ar
    69    59    60    1
    70    97    98    1
    71    37    34    1
    72    37    38    1
    73    34    35    1
    74    19    20    1
    75    20    22   ar
    76    36    35    2
    77   113   112   ar
    78    84    83    1
    79    24    22   ar
    80    35    40   am
    81   109   110    2
    82   109   108    1
    83    83    80    1
    84    60    61    2
    85   104   106   ar
    86   104   102   ar
    87    98   101    1
    88    98    99    1
    89   106   105   ar
    90   114   112   ar
    91   112   111    1
    92   102   101    1
    93   102   103   ar
    94   105   103   ar
    95    80    79    1
    96    80    81    1
    97    99   100    2
    98   108   111    1
    99   108   107    1
   100    40    41    1
   101    81    82    2
   102    41    42    1
   103    41    44    1
   104    69    70    1
   105    69    66    1
   106    57    55   ar
   107    57    56   ar
   108    42    43    2
   109    65    66    1
   110    44    46    1
   111    44    45    1
   112    70    71   ar
   113    70    72   ar
   114    71    73   ar
   115    55    53   ar
   116    56    54   ar
   117    66    67    1
   118    72    75   ar
   119    72    74   ar
   120    75    77   ar
   121    73    74   ar
   122    74    76   ar
   123    77    78   ar
   124    76    78   ar
   125    53    52   ar
   126    54    52   ar
   127    67    68    2
   128    52    51    1
   129    51    48    1
   130    47    48    1
   131    48    49    1
   132    49    50    2
