@<TRIPOS>MOLECULE
tmp/4j4nB01.pdb
 134 131 0 0 0
SMALL
GASTEIGER

@<TRIPOS>ATOM
      1  N         -5.1430   -0.2650  -40.8600 N.3    38  TYR38      -0.1241
      2  CA        -6.5520   -0.4010  -41.1810 C.3    38  TYR38       0.1605
      3  C         -7.1400    0.7910  -41.9110 C.2    38  TYR38       0.2264
      4  O         -6.6770    1.9270  -41.7740 O.2    38  TYR38      -0.2867
      5  CB        -7.3370   -0.6420  -39.8980 C.3    38  TYR38       0.0534
      6  CG        -7.3050    0.5570  -39.0170 C.ar   38  TYR38      -0.0201
      7  CD1       -8.3280    1.5070  -39.0680 C.ar   38  TYR38      -0.0009
      8  CD2       -6.2260    0.7850  -38.1710 C.ar   38  TYR38      -0.0009
      9  CE1       -8.2880    2.6290  -38.2700 C.ar   38  TYR38       0.0417
     10  CE2       -6.1760    1.9070  -37.3740 C.ar   38  TYR38       0.0417
     11  CZ        -7.2060    2.8230  -37.4310 C.ar   38  TYR38       0.1957
     12  OH        -7.1600    3.9340  -36.6380 O.3    38  TYR38      -0.2866
     13  N        -13.4970    7.2020  -42.7540 N.3    49  PHE49      -0.1227
     14  CA       -13.4610    8.0230  -41.5410 C.3    49  PHE49       0.1736
     15  C        -12.1590    7.8910  -40.7660 C.2    49  PHE49       0.2595
     16  O        -11.9080    8.6330  -39.8190 O.2    49  PHE49      -0.2718
     17  CB       -14.6550    7.7340  -40.6250 C.3    49  PHE49       0.0547
     18  CG       -14.7340    6.3140  -40.1210 C.ar   49  PHE49      -0.0202
     19  CD1      -13.9470    5.8830  -39.0570 C.ar   49  PHE49      -0.0042
     20  CD2      -15.6280    5.4130  -40.6850 C.ar   49  PHE49      -0.0042
     21  CE1      -14.0290    4.5760  -38.5850 C.ar   49  PHE49      -0.0003
     22  CE2      -15.7110    4.1170  -40.2210 C.ar   49  PHE49      -0.0003
     23  CZ       -14.9100    3.6950  -39.1710 C.ar   49  PHE49      -0.0000
     24  N        -11.3400    6.9230  -41.1650 N.am   50  ASP50      -0.1974
     25  CA       -10.0700    6.6320  -40.5020 C.3    50  ASP50       0.1709
     26  C         -9.2330    5.6940  -41.3580 C.2    50  ASP50       0.2293
     27  O         -9.7480    4.7570  -41.9780 O.2    50  ASP50      -0.2864
     28  CB       -10.3010    6.0070  -39.1360 C.3    50  ASP50       0.1436
     29  CG        -9.0850    6.0640  -38.2770 C.2    50  ASP50       0.3671
     30  OD1       -8.0550    6.4610  -38.7930 O.co2  50  ASP50      -0.2456
     31  OD2       -9.1360    5.7310  -37.0810 O.co2  50  ASP50      -0.2456
     32  N         -2.1030    8.0610  -42.3180 N.3    55  ARG55      -0.1245
     33  CA        -1.3870    8.7230  -41.2330 C.3    55  ARG55       0.1563
     34  C          0.0280    8.1550  -41.1200 C.2    55  ARG55       0.2260
     35  O          0.9300    8.7830  -40.5490 O.2    55  ARG55      -0.2867
     36  CB        -2.1200    8.5190  -39.9070 C.3    55  ARG55       0.0307
     37  CG        -3.4450    9.2810  -39.7610 C.3    55  ARG55       0.0489
     38  CD        -3.8850    9.3040  -38.2930 C.3    55  ARG55       0.2205
     39  NE        -3.8400    7.9690  -37.6990 N.pl3  55  ARG55      -0.0865
     40  CZ        -4.8950    7.1670  -37.5820 C.cat  55  ARG55       0.5346
     41  NH1       -6.0940    7.5610  -37.9990 N.pl3  55  ARG55       0.1354
     42  NH2       -4.7550    5.9750  -37.0250 N.pl3  55  ARG55       0.1354
     43  N         -1.2030    0.6060  -35.8380 N.3    59  PHE59      -0.1241
     44  CA        -1.9490    0.6980  -34.5900 C.3    59  PHE59       0.1605
     45  C         -1.7550   -0.4860  -33.6400 C.2    59  PHE59       0.2264
     46  O         -2.0230   -1.6290  -34.0080 O.2    59  PHE59      -0.2867
     47  CB        -3.4370    0.9000  -34.8810 C.3    59  PHE59       0.0534
     48  CG        -4.2210    1.2780  -33.6700 C.ar   59  PHE59      -0.0203
     49  CD1       -3.9960    2.4910  -33.0430 C.ar   59  PHE59      -0.0042
     50  CD2       -5.1600    0.4030  -33.1360 C.ar   59  PHE59      -0.0042
     51  CE1       -4.7000    2.8250  -31.9060 C.ar   59  PHE59      -0.0003
     52  CE2       -5.8840    0.7310  -31.9940 C.ar   59  PHE59      -0.0003
     53  CZ        -5.6560    1.9350  -31.3790 C.ar   59  PHE59      -0.0000
     54  N         -9.8590   -2.7240  -25.3030 N.3    67  GLU67      -0.1231
     55  CA        -9.1400   -1.5130  -25.6780 C.3    67  GLU67       0.1699
     56  C         -9.6730   -0.8580  -26.9340 C.2    67  GLU67       0.2592
     57  O         -9.3990    0.3200  -27.1710 O.2    67  GLU67      -0.2718
     58  CB        -7.6620   -1.8130  -25.8820 C.3    67  GLU67       0.0402
     59  CG        -6.9290   -2.1550  -24.6060 C.3    67  GLU67       0.1161
     60  CD        -5.4100   -2.2030  -24.7670 C.2    67  GLU67       0.3649
     61  OE1       -4.8780   -1.8600  -25.8440 O.co2  67  GLU67      -0.2457
     62  OE2       -4.7420   -2.5850  -23.7920 O.co2  67  GLU67      -0.2457
     63  N        -10.4150   -1.6210  -27.7370 N.am   68  VAL68      -0.1966
     64  CA       -10.9630   -1.1560  -29.0150 C.3    68  VAL68       0.1727
     65  C        -12.4020   -1.6780  -29.1670 C.2    68  VAL68       0.2616
     66  O        -12.8740   -2.4400  -28.3210 O.2    68  VAL68      -0.2715
     67  CB       -10.0980   -1.6560  -30.1980 C.3    68  VAL68       0.0290
     68  CG1       -8.6700   -1.1120  -30.1140 C.3    68  VAL68       0.0023
     69  CG2      -10.0850   -3.1780  -30.2390 C.3    68  VAL68       0.0023
     70  N        -13.0870   -1.2880  -30.2440 N.am   69  ILE69      -0.1977
     71  CA       -14.4430   -1.7850  -30.5170 C.3    69  ILE69       0.1596
     72  C        -14.4640   -3.3010  -30.5340 C.2    69  ILE69       0.2287
     73  O        -13.4840   -3.9350  -30.9460 O.2    69  ILE69      -0.2864
     74  CB       -15.0060   -1.2350  -31.8420 C.3    69  ILE69       0.0276
     75  CG1      -13.9970   -1.4050  -32.9890 C.3    69  ILE69       0.0022
     76  CG2      -15.3860    0.2430  -31.6730 C.3    69  ILE69       0.0022
     77  CD1      -14.5410   -1.1030  -34.3990 C.3    69  ILE69       0.0001
     78  N        -13.3880   -5.2340  -33.5260 N.3    72  TRP72      -0.1241
     79  CA       -11.9620   -5.2720  -33.7650 C.3    72  TRP72       0.1605
     80  C        -11.3020   -6.4100  -33.0020 C.2    72  TRP72       0.2264
     81  O        -10.3760   -7.0510  -33.5000 O.2    72  TRP72      -0.2867
     82  CB       -11.3410   -3.9350  -33.4170 C.3    72  TRP72       0.0550
     83  CG       -11.1920   -3.0490  -34.6020 C.ar   72  TRP72       0.0003
     84  CD1      -11.9470   -3.0640  -35.7360 C.ar   72  TRP72       0.0946
     85  CD2      -10.2310   -2.0020  -34.7710 C.ar   72  TRP72       0.0152
     86  NE1      -11.5040   -2.0980  -36.6080 N.ar   72  TRP72      -0.2442
     87  CE2      -10.4560   -1.4310  -36.0340 C.ar   72  TRP72       0.0810
     88  CE3       -9.1980   -1.4920  -33.9720 C.ar   72  TRP72       0.0012
     89  CZ2       -9.6870   -0.3870  -36.5230 C.ar   72  TRP72       0.0191
     90  CZ3       -8.4370   -0.4450  -34.4580 C.ar   72  TRP72       0.0001
     91  CH2       -8.6850    0.0950  -35.7230 C.ar   72  TRP72       0.0015
     92  N        -20.0990    1.2210  -32.5450 N.3    95  TYR95      -0.1241
     93  CA       -20.3290    2.3170  -31.6040 C.3    95  TYR95       0.1605
     94  C        -21.8010    2.5320  -31.2000 C.2    95  TYR95       0.2264
     95  O        -22.1840    3.6180  -30.7390 O.2    95  TYR95      -0.2867
     96  CB       -19.7210    3.5940  -32.1490 C.3    95  TYR95       0.0534
     97  CG       -18.2080    3.6270  -32.1670 C.ar   95  TYR95      -0.0201
     98  CD1      -17.4780    3.8710  -31.0070 C.ar   95  TYR95      -0.0009
     99  CD2      -17.5050    3.4730  -33.3550 C.ar   95  TYR95      -0.0009
    100  CE1      -16.0900    3.9430  -31.0370 C.ar   95  TYR95       0.0417
    101  CE2      -16.1140    3.5420  -33.3900 C.ar   95  TYR95       0.0417
    102  CZ       -15.4180    3.7730  -32.2310 C.ar   95  TYR95       0.1957
    103  OH       -14.0470    3.8350  -32.2640 O.3    95  TYR95      -0.2866
    104  N        -19.9660    7.7700  -32.7440 N.3   100  CYS100     -0.1235
    105  CA       -18.8010    8.4280  -32.1970 C.3   100  CYS100      0.1677
    106  C        -18.4670    9.6920  -32.9690 C.2   100  CYS100      0.2270
    107  O        -17.8090    9.6570  -34.0070 O.2   100  CYS100     -0.2867
    108  CB       -17.6170    7.4640  -32.1560 C.3   100  CYS100      0.0956
    109  SG       -16.1460    8.1500  -31.4090 S.3   100  CYS100     -0.0801
    110  N        -18.0430   12.0730  -37.2420 N.3   103  SER103     -0.1202
    111  CA       -17.4750   11.0650  -38.1340 C.3   103  SER103      0.2020
    112  C        -18.3190    9.7910  -38.2610 C.2   103  SER103      0.2618
    113  O        -18.4190    9.2310  -39.3420 O.2   103  SER103     -0.2717
    114  CB       -16.0760   10.7000  -37.6220 C.3   103  SER103      0.2103
    115  OG       -15.1810   10.4440  -38.6920 O.3   103  SER103     -0.2182
    116  N        -18.9040    9.3330  -37.1530 N.am  104  ILE104     -0.1979
    117  CA       -19.6590    8.0670  -37.1130 C.3   104  ILE104      0.1595
    118  C        -21.0550    8.2490  -36.5090 C.2   104  ILE104      0.2287
    119  O        -21.1930    8.4300  -35.2870 O.2   104  ILE104     -0.2864
    120  CB       -18.9240    6.9600  -36.3020 C.3   104  ILE104      0.0276
    121  CG1      -17.5200    6.7060  -36.8680 C.3   104  ILE104      0.0022
    122  CG2      -19.7650    5.6870  -36.2450 C.3   104  ILE104      0.0022
    123  CD1      -16.7130    5.6440  -36.1430 C.3   104  ILE104      0.0001
    124  N        -14.1230   -2.3140  -42.3500 N.3   112  PHE112     -0.1241
    125  CA       -12.6940   -2.1140  -42.2410 C.3   112  PHE112      0.1605
    126  C        -11.9310   -3.0370  -43.1530 C.2   112  PHE112      0.2264
    127  O        -12.3410   -4.1750  -43.3820 O.2   112  PHE112     -0.2867
    128  CB       -12.2040   -2.3960  -40.8370 C.3   112  PHE112      0.0534
    129  CG       -12.6420   -1.4040  -39.8260 C.ar  112  PHE112     -0.0203
    130  CD1      -11.8000   -0.3480  -39.4660 C.ar  112  PHE112     -0.0042
    131  CD2      -13.8790   -1.5350  -39.2000 C.ar  112  PHE112     -0.0042
    132  CE1      -12.1900    0.5770  -38.5100 C.ar  112  PHE112     -0.0003
    133  CE2      -14.2780   -0.6270  -38.2470 C.ar  112  PHE112     -0.0003
    134  CZ       -13.4290    0.4410  -37.9000 C.ar  112  PHE112     -0.0000
@<TRIPOS>BOND
     1   127   126    2
     2   126   125    1
     3    13    14    1
     4   124   125    1
     5    32    33    1
     6   125   128    1
     7    27    26    2
     8     3     4    2
     9     3     2    1
    10    14    15    1
    11    14    17    1
    12    26    25    1
    13    33    34    1
    14    33    36    1
    15     2     1    1
    16     2     5    1
    17    24    15   am
    18    24    25    1
    19    34    35    2
    20   128   129    1
    21    15    16    2
    22    20    22   ar
    23    20    18   ar
    24    17    18    1
    25    25    28    1
    26    22    23   ar
    27    18    19   ar
    28    36    37    1
    29     5     6    1
    30   129   130   ar
    31   129   131   ar
    32    37    38    1
    33   130   132   ar
    34   113   112    2
    35   131   133   ar
    36    23    21   ar
    37    28    29    1
    38     7     6   ar
    39     7     9   ar
    40    19    21   ar
    41     6     8   ar
    42    30    29   ar
    43   115   114    1
    44   132   134   ar
    45    38    39    1
    46    29    31   ar
    47     9    11   ar
    48   112   111    1
    49   112   116   am
    50   133   134   ar
    51     8    10   ar
    52   111   114    1
    53   111   110    1
    54    41    40    1
    55    39    40    2
    56    40    42    1
    57    11    10   ar
    58    11    12    1
    59   116   117    1
    60   117   118    1
    61   117   120    1
    62   121   120    1
    63   121   123    1
    64    86    87   ar
    65    86    84   ar
    66    89    87   ar
    67    89    91   ar
    68   118   119    2
    69   120   122    1
    70    87    85   ar
    71    43    44    1
    72    84    83   ar
    73    91    90   ar
    74    47    44    1
    75    47    48    1
    76    85    83   ar
    77    85    88   ar
    78    83    82    1
    79    44    45    1
    80    90    88   ar
    81    77    75    1
    82    46    45    2
    83   107   106    2
    84    79    78    1
    85    79    82    1
    86    79    80    1
    87    48    50   ar
    88    48    49   ar
    89    81    80    2
    90   101    99   ar
    91   101   102   ar
    92    99    97   ar
    93    50    52   ar
    94    49    51   ar
    95    75    74    1
    96   106   105    1
    97   104   105    1
    98    92    93    1
    99   103   102    1
   100   102   100   ar
   101   105   108    1
   102    97    96    1
   103    97    98   ar
   104   108   109    1
   105    96    93    1
   106    52    53   ar
   107    51    53   ar
   108    74    76    1
   109    74    71    1
   110    93    94    1
   111    94    95    2
   112   100    98   ar
   113    73    72    2
   114    72    71    1
   115    71    70    1
   116    70    65   am
   117    69    67    1
   118    67    68    1
   119    67    64    1
   120    65    64    1
   121    65    66    2
   122    64    63    1
   123    63    56   am
   124    57    56    2
   125    56    55    1
   126    58    55    1
   127    58    59    1
   128    61    60   ar
   129    55    54    1
   130    60    59    1
   131    60    62   ar
