@<TRIPOS>MOLECULE
tmp/4j4tF01.pdb
 154 148 0 0 0
SMALL
GASTEIGER

@<TRIPOS>ATOM
      1  N         20.3360   22.7550  -23.4640 N.3    91  ALA91      -0.1231
      2  CA        19.1270   21.9880  -23.1830 C.3    91  ALA91       0.1694
      3  C         18.1920   22.7940  -22.2900 C.2    91  ALA91       0.2592
      4  O         18.6350   23.6570  -21.5400 O.2    91  ALA91      -0.2718
      5  CB        19.4570   20.6180  -22.5640 C.3    91  ALA91       0.0304
      6  N         16.8990   22.5060  -22.3910 N.am   92  PHE92      -0.1962
      7  CA        15.8870   23.0640  -21.5130 C.3    92  PHE92       0.1771
      8  C         14.6070   22.2520  -21.5150 C.2    92  PHE92       0.2619
      9  O         14.1020   21.8470  -22.5750 O.2    92  PHE92      -0.2715
     10  CB        15.5840   24.5440  -21.8020 C.3    92  PHE92       0.0574
     11  CG        14.6400   25.1580  -20.7900 C.ar   92  PHE92      -0.0200
     12  CD1       15.0710   25.4520  -19.4930 C.ar   92  PHE92      -0.0042
     13  CD2       13.3010   25.3950  -21.1190 C.ar   92  PHE92      -0.0042
     14  CE1       14.1900   25.9870  -18.5460 C.ar   92  PHE92      -0.0003
     15  CE2       12.4150   25.9430  -20.1930 C.ar   92  PHE92      -0.0003
     16  CZ        12.8520   26.2380  -18.8940 C.ar   92  PHE92      -0.0000
     17  N         14.1040   21.9860  -20.3140 N.am   93  ALA93      -0.1977
     18  CA        12.7340   21.5620  -20.1270 C.3    93  ALA93       0.1597
     19  C         12.2370   22.3270  -18.9010 C.2    93  ALA93       0.2287
     20  O         13.0320   22.5860  -17.9850 O.2    93  ALA93      -0.2864
     21  CB        12.6430   20.0480  -19.9120 C.3    93  ALA93       0.0319
     22  N         10.8680   23.0430  -15.3270 N.3    95  ARG95      -0.1245
     23  CA        11.1240   22.3840  -14.0500 C.3    95  ARG95       0.1563
     24  C         10.1440   21.2430  -13.7190 C.2    95  ARG95       0.2260
     25  O         10.5540   20.1960  -13.2530 O.2    95  ARG95      -0.2867
     26  CB        11.0970   23.4700  -12.9720 C.3    95  ARG95       0.0307
     27  CG        11.3260   23.0750  -11.5190 C.3    95  ARG95       0.0489
     28  CD        11.5740   24.3350  -10.6660 C.3    95  ARG95       0.2205
     29  NE        10.7590   25.4810  -11.0960 N.pl3  95  ARG95      -0.0865
     30  CZ        11.1890   26.6490  -11.5890 C.cat  95  ARG95       0.5346
     31  NH1       12.4810   26.9390  -11.7200 N.pl3  95  ARG95       0.1354
     32  NH2       10.2860   27.5540  -11.9440 N.pl3  95  ARG95       0.1354
     33  N         10.5620   17.4280  -14.7900 N.3    98  LEU98      -0.1245
     34  CA        11.8380   16.8280  -14.4080 C.3    98  LEU98       0.1561
     35  C         11.9360   16.1580  -13.0660 C.2    98  LEU98       0.2260
     36  O         13.0180   15.7340  -12.6890 O.2    98  LEU98      -0.2867
     37  CB        12.9940   17.8260  -14.5340 C.3    98  LEU98       0.0270
     38  CG        13.6430   18.0050  -15.9090 C.3    98  LEU98       0.0019
     39  CD1       15.0900   18.4440  -15.7980 C.3    98  LEU98       0.0001
     40  CD2       13.5080   16.8130  -16.8450 C.3    98  LEU98       0.0001
     41  N         22.8340   12.6490  -23.3940 N.3   145  TYR145     -0.1241
     42  CA        22.8920   11.9300  -22.1090 C.3   145  TYR145      0.1605
     43  C         22.1890   10.6000  -22.2790 C.2   145  TYR145      0.2264
     44  O         21.3380   10.4700  -23.1550 O.2   145  TYR145     -0.2867
     45  CB        22.2370   12.7340  -20.9820 C.3   145  TYR145      0.0534
     46  CG        22.2650   12.0570  -19.6290 C.ar  145  TYR145     -0.0201
     47  CD1       23.4580   11.8360  -18.9670 C.ar  145  TYR145     -0.0009
     48  CD2       21.0930   11.6710  -18.9940 C.ar  145  TYR145     -0.0009
     49  CE1       23.4900   11.2110  -17.7420 C.ar  145  TYR145      0.0417
     50  CE2       21.1100   11.0530  -17.7520 C.ar  145  TYR145      0.0417
     51  CZ        22.3200   10.8320  -17.1230 C.ar  145  TYR145      0.1957
     52  OH        22.3930   10.2230  -15.8810 O.3   145  TYR145     -0.2866
     53  N         15.0650    6.4330  -17.1180 N.3   152  MET152     -0.1231
     54  CA        15.7070    6.7470  -15.8600 C.3   152  MET152      0.1687
     55  C         14.7500    7.5410  -14.9770 C.2   152  MET152      0.2434
     56  O         13.8500    8.2120  -15.4830 O.2   152  MET152     -0.2733
     57  CB        16.9700    7.5700  -16.1070 C.3   152  MET152      0.0400
     58  CG        17.9620    6.8770  -17.0230 C.3   152  MET152      0.0596
     59  SD        19.4210    7.8900  -17.2390 S.3   152  MET152     -0.1393
     60  CE        20.3840    7.4660  -15.7780 C.3   152  MET152      0.0692
     61  N         14.9370    7.4740  -13.6410 N.am  153  PRO153     -0.2718
     62  CA        14.0970    8.3110  -12.7880 C.3   153  PRO153      0.1535
     63  C         14.4080    9.7770  -13.0510 C.2   153  PRO153      0.2599
     64  O         15.5410   10.1210  -13.4240 O.2   153  PRO153     -0.2715
     65  CB        14.5390    7.9310  -11.3720 C.3   153  PRO153      0.0310
     66  CG        15.9560    7.4700  -11.5430 C.3   153  PRO153      0.0237
     67  CD        15.9810    6.7640  -12.8770 C.3   153  PRO153      0.0939
     68  N         13.4060   10.6320  -12.8810 N.am  154  SER154     -0.1936
     69  CA        13.5350   12.0900  -12.9490 C.3   154  SER154      0.2055
     70  C         13.8260   12.7050  -14.2980 C.2   154  SER154      0.2643
     71  O         13.2880   13.7520  -14.6000 O.2   154  SER154     -0.2714
     72  CB        14.5540   12.6290  -11.9520 C.3   154  SER154      0.2130
     73  OG        14.2510   12.2370  -10.6350 O.3   154  SER154     -0.2179
     74  N         14.6930   12.0970  -15.0950 N.am  155  TYR155     -0.1973
     75  CA        15.1150   12.7060  -16.3360 C.3   155  TYR155      0.1639
     76  C         13.9370   12.9050  -17.3090 C.2   155  TYR155      0.2290
     77  O         13.8700   13.9150  -18.0080 O.2   155  TYR155     -0.2864
     78  CB        16.2790   11.9220  -16.9580 C.3   155  TYR155      0.0560
     79  CG        17.1140   12.7680  -17.8660 C.ar  155  TYR155     -0.0198
     80  CD1       17.7930   13.9180  -17.3730 C.ar  155  TYR155     -0.0009
     81  CD2       17.2240   12.4550  -19.2200 C.ar  155  TYR155     -0.0009
     82  CE1       18.5650   14.7060  -18.2250 C.ar  155  TYR155      0.0417
     83  CE2       17.9980   13.2330  -20.0750 C.ar  155  TYR155      0.0417
     84  CZ        18.6510   14.3450  -19.5960 C.ar  155  TYR155      0.1957
     85  OH        19.4030   15.0720  -20.4750 O.3   155  TYR155     -0.2866
     86  N         13.1620   15.2130  -20.5200 N.3   158  MET158     -0.1245
     87  CA        14.4750   15.4550  -21.0940 C.3   158  MET158      0.1570
     88  C         15.0490   14.2270  -21.7650 C.2   158  MET158      0.2261
     89  O         15.8160   14.3460  -22.7310 O.2   158  MET158     -0.2867
     90  CB        15.4530   16.0160  -20.0710 C.3   158  MET158      0.0387
     91  CG        15.4960   17.5520  -20.0020 C.3   158  MET158      0.0595
     92  SD        15.5810   18.4540  -21.5980 S.3   158  MET158     -0.1393
     93  CE        17.0350   17.7210  -22.3280 C.3   158  MET158      0.0692
     94  N         16.2580   14.2040  -25.4990 N.3   162  LYS162     -0.1245
     95  CA        17.5720   13.7180  -25.8990 C.3   162  LYS162      0.1561
     96  C         17.5160   12.6350  -26.9850 C.2   162  LYS162      0.2260
     97  O         18.3960   12.6190  -27.8580 O.2   162  LYS162     -0.2867
     98  CB        18.3940   13.2160  -24.7010 C.3   162  LYS162      0.0271
     99  CG        18.8900   14.3320  -23.7820 C.3   162  LYS162      0.0035
    100  CD        19.7020   15.3940  -24.5370 C.3   162  LYS162      0.0206
    101  CE        20.5150   16.2560  -23.5700 C.3   162  LYS162      0.1093
    102  NZ        21.1400   17.4730  -24.1820 N.3   162  LYS162     -0.1314
    103  N         26.9690   12.2790  -15.8320 N.3   190  PRO190     -0.2102
    104  CA        26.4840   13.4350  -15.0620 C.3   190  PRO190      0.1504
    105  C         27.6420   14.2770  -14.5100 C.2   190  PRO190      0.2575
    106  O         28.6720   13.7270  -14.1420 O.2   190  PRO190     -0.2718
    107  CB        25.7040   12.7840  -13.9040 C.3   190  PRO190      0.0282
    108  CG        26.3640   11.4520  -13.7340 C.3   190  PRO190      0.0208
    109  CD        26.7090   11.0140  -15.1250 C.3   190  PRO190      0.0893
    110  N         27.4710   15.6010  -14.5030 N.am  191  ILE191     -0.1980
    111  CA        28.4800   16.5700  -14.0340 C.3   191  ILE191      0.1595
    112  C         27.7160   17.6650  -13.3010 C.2   191  ILE191      0.2287
    113  O         26.6440   18.0750  -13.7480 O.2   191  ILE191     -0.2864
    114  CB        29.2820   17.2110  -15.1970 C.3   191  ILE191      0.0276
    115  CG1       30.0220   16.1320  -16.0060 C.3   191  ILE191      0.0022
    116  CG2       30.2970   18.2120  -14.6620 C.3   191  ILE191      0.0022
    117  CD1       30.5680   16.6000  -17.3470 C.3   191  ILE191      0.0001
    118  N         22.9060   22.9830  -14.8250 N.3   195  ALA195     -0.1231
    119  CA        21.8280   22.0480  -15.1970 C.3   195  ALA195      0.1694
    120  C         21.4220   21.1310  -14.0340 C.2   195  ALA195      0.2591
    121  O         20.2840   20.6800  -13.9660 O.2   195  ALA195     -0.2718
    122  CB        22.2180   21.2230  -16.4120 C.3   195  ALA195      0.0304
    123  N         22.3560   20.8650  -13.1330 N.am  196  ALA196     -0.1980
    124  CA        22.1010   20.0590  -11.9360 C.3   196  ALA196      0.1597
    125  C         21.3930   20.7890  -10.8120 C.2   196  ALA196      0.2287
    126  O         20.9360   20.1610   -9.8610 O.2   196  ALA196     -0.2864
    127  CB        23.4020   19.5030  -11.3990 C.3   196  ALA196      0.0319
    128  N         17.9680   19.7730   -9.3750 N.3   199  ILE199     -0.1245
    129  CA        17.7950   18.3560   -9.1140 C.3   199  ILE199      0.1561
    130  C         18.1830   17.9510   -7.6840 C.2   199  ILE199      0.2260
    131  O         19.3380   18.0960   -7.2660 O.2   199  ILE199     -0.2867
    132  CB        18.5830   17.5090  -10.1480 C.3   199  ILE199      0.0252
    133  CG1       18.5850   18.1650  -11.5540 C.3   199  ILE199      0.0019
    134  CG2       18.0820   16.0640  -10.1610 C.3   199  ILE199      0.0019
    135  CD1       17.2180   18.3920  -12.1770 C.3   199  ILE199      0.0001
    136  N         21.4250   15.1360   -6.6180 N.3   202  PHE202     -0.1241
    137  CA        22.2580   15.0050   -7.8070 C.3   202  PHE202      0.1605
    138  C         23.5780   14.3940   -7.3680 C.2   202  PHE202      0.2264
    139  O         24.1280   13.4980   -8.0290 O.2   202  PHE202     -0.2867
    140  CB        22.4600   16.3580   -8.4990 C.3   202  PHE202      0.0534
    141  CG        23.1340   16.2590   -9.8370 C.ar  202  PHE202     -0.0203
    142  CD1       22.3880   16.0790  -10.9980 C.ar  202  PHE202     -0.0042
    143  CD2       24.5200   16.3580   -9.9450 C.ar  202  PHE202     -0.0042
    144  CE1       23.0110   16.0050  -12.2440 C.ar  202  PHE202     -0.0003
    145  CE2       25.1500   16.2710  -11.1870 C.ar  202  PHE202     -0.0003
    146  CZ        24.3960   16.0980  -12.3440 C.ar  202  PHE202     -0.0000
    147  N         23.2220   10.6040   -7.2860 N.3   205  MET205     -0.1245
    148  CA        23.3010   10.0630   -8.6440 C.3   205  MET205      0.1570
    149  C         24.7780    9.9800   -9.0160 C.2   205  MET205      0.2261
    150  O         25.2620    8.9510   -9.5100 O.2   205  MET205     -0.2867
    151  CB        22.5650   10.9480   -9.6650 C.3   205  MET205      0.0387
    152  CG        21.0810   11.2260   -9.4040 C.3   205  MET205      0.0595
    153  SD        20.2470   12.1970  -10.6930 S.3   205  MET205     -0.1393
    154  CE        18.5450   12.0310  -10.1670 C.3   205  MET205      0.0692
@<TRIPOS>BOND
     1    97    96    2
     2    96    95    1
     3    95    94    1
     4    95    98    1
     5    98    99    1
     6   100    99    1
     7   100   101    1
     8   102   101    1
     9     1     2    1
    10    41    42    1
    11     2     5    1
    12     2     3    1
    13    44    43    2
    14    89    88    2
    15     9     8    2
    16     6     3   am
    17     6     7    1
    18    93    92    1
    19     3     4    2
    20    43    42    1
    21    42    45    1
    22    10     7    1
    23    10    11    1
    24    88    87    1
    25    92    91    1
    26     8     7    1
    27     8    17   am
    28    13    11   ar
    29    13    15   ar
    30    87    86    1
    31    87    90    1
    32    45    46    1
    33    11    12   ar
    34    85    84    1
    35    17    18    1
    36    15    16   ar
    37    18    21    1
    38    18    19    1
    39    83    84   ar
    40    83    81   ar
    41    90    91    1
    42    46    48   ar
    43    46    47   ar
    44    84    82   ar
    45    12    14   ar
    46    81    79   ar
    47    48    50   ar
    48    47    49   ar
    49    19    20    2
    50    16    14   ar
    51    82    80   ar
    52    77    76    2
    53    79    80   ar
    54    79    78    1
    55    50    51   ar
    56    49    51   ar
    57   117   115    1
    58    76    75    1
    59    59    58    1
    60    59    60    1
    61    51    52    1
    62    53    54    1
    63    58    57    1
    64    78    75    1
    65    40    38    1
    66   122   119    1
    67    75    74    1
    68    57    54    1
    69   115   114    1
    70    38    39    1
    71    38    37    1
    72    54    55    1
    73   103   109    1
    74   103   104    1
    75    56    55    2
    76    22    23    1
    77   114   116    1
    78   114   111    1
    79   119   118    1
    80   119   120    1
    81   109   108    1
    82    74    70   am
    83   104   105    1
    84   104   107    1
    85    55    61   am
    86    33    34    1
    87    71    70    2
    88    37    34    1
    89   105   110   am
    90   105   106    2
    91   110   111    1
    92    34    35    1
    93    70    69    1
    94    23    24    1
    95    23    26    1
    96   120   121    2
    97   120   123   am
    98   111   112    1
    99   107   108    1
   100   113   112    2
   101    24    25    2
   102    61    67    1
   103    61    62    1
   104    64    63    2
   105   123   124    1
   106    35    36    2
   107    63    68   am
   108    63    62    1
   109    26    27    1
   110    69    68    1
   111    69    72    1
   112    67    66    1
   113    62    65    1
   114   146   144   ar
   115   146   145   ar
   116   144   142   ar
   117   135   133    1
   118    72    73    1
   119    32    30    1
   120   124   127    1
   121   124   125    1
   122    31    30    1
   123    30    29    2
   124   133   132    1
   125    66    65    1
   126    27    28    1
   127   145   143   ar
   128    29    28    1
   129   142   141   ar
   130   125   126    2
   131   153   154    1
   132   153   152    1
   133   134   132    1
   134   132   129    1
   135   143   141   ar
   136   141   140    1
   137   151   152    1
   138   151   148    1
   139   150   149    2
   140   128   129    1
   141   129   130    1
   142   149   148    1
   143   148   147    1
   144   140   137    1
   145   139   138    2
   146   137   138    1
   147   137   136    1
   148   130   131    2
