@<TRIPOS>MOLECULE
tmp/4j4vE00.pdb
 161 154 0 0 0
SMALL
GASTEIGER

@<TRIPOS>ATOM
      1  N         11.5900   -0.1210   19.5720 N.3    31  TYR31      -0.1241
      2  CA        12.7800   -0.9010   19.2460 C.3    31  TYR31       0.1605
      3  C         12.4500   -2.3670   18.9800 C.2    31  TYR31       0.2264
      4  O         11.7250   -3.0030   19.7450 O.2    31  TYR31      -0.2867
      5  CB        13.8350   -0.7900   20.3560 C.3    31  TYR31       0.0534
      6  CG        15.1460   -1.4820   20.0260 C.ar   31  TYR31      -0.0201
      7  CD1       16.1680   -0.8000   19.3770 C.ar   31  TYR31      -0.0009
      8  CD2       15.3600   -2.8140   20.3590 C.ar   31  TYR31      -0.0009
      9  CE1       17.3640   -1.4230   19.0700 C.ar   31  TYR31       0.0417
     10  CE2       16.5530   -3.4460   20.0540 C.ar   31  TYR31       0.0417
     11  CZ        17.5510   -2.7460   19.4110 C.ar   31  TYR31       0.1957
     12  OH        18.7390   -3.3700   19.1070 O.3    31  TYR31      -0.2866
     13  N         14.8110   -5.7600   17.7990 N.3    33  GLY33      -0.1225
     14  CA        16.1440   -6.2470   17.5080 C.3    33  GLY33       0.1811
     15  C         16.2270   -6.9750   16.1840 C.2    33  GLY33       0.2280
     16  O         17.1830   -6.7970   15.4290 O.2    33  GLY33      -0.2866
     17  N         28.7270  -17.3240   16.2970 N.3    62  ALA62      -0.1231
     18  CA        28.1490  -16.1650   16.9720 C.3    62  ALA62       0.1694
     19  C         28.4370  -16.1890   18.4700 C.2    62  ALA62       0.2592
     20  O         28.8030  -15.1710   19.0560 O.2    62  ALA62      -0.2718
     21  CB        26.6500  -16.0900   16.7190 C.3    62  ALA62       0.0304
     22  N         28.2610  -17.3580   19.0770 N.am   63  LEU63      -0.1966
     23  CA        28.4990  -17.5420   20.5030 C.3    63  LEU63       0.1728
     24  C         29.9450  -17.2880   20.9010 C.2    63  LEU63       0.2617
     25  O         30.2060  -16.6910   21.9470 O.2    63  LEU63      -0.2715
     26  CB        28.1050  -18.9570   20.9360 C.3    63  LEU63       0.0311
     27  CG        26.6180  -19.2790   21.0820 C.3    63  LEU63       0.0022
     28  CD1       26.3970  -20.7630   21.3370 C.3    63  LEU63       0.0001
     29  CD2       26.0280  -18.4560   22.2080 C.3    63  LEU63       0.0001
     30  N         30.8880  -17.7350   20.0730 N.am   64  THR64      -0.1937
     31  CA        32.2920  -17.6840   20.4850 C.3    64  THR64       0.2028
     32  C         33.0940  -16.4880   19.9570 C.2    64  THR64       0.2642
     33  O         34.1190  -16.1280   20.5340 O.2    64  THR64      -0.2714
     34  CB        33.0320  -18.9870   20.1230 C.3    64  THR64       0.1808
     35  OG1       33.0190  -19.1720   18.7020 O.3    64  THR64      -0.2208
     36  CG2       32.3690  -20.1820   20.7960 C.3    64  THR64       0.0379
     37  N         32.6250  -15.8660   18.8790 N.am   65  ARG65      -0.1963
     38  CA        33.4100  -14.8400   18.1940 C.3    65  ARG65       0.1729
     39  C         32.6060  -13.5820   17.8600 C.2    65  ARG65       0.2617
     40  O         33.1810  -12.5250   17.6010 O.2    65  ARG65      -0.2715
     41  CB        34.0070  -15.4100   16.9050 C.3    65  ARG65       0.0348
     42  CG        34.9340  -16.6000   17.0980 C.3    65  ARG65       0.0492
     43  CD        36.1300  -16.2450   17.9680 C.3    65  ARG65       0.2205
     44  NE        37.0020  -15.2690   17.3210 N.pl3  65  ARG65      -0.0865
     45  CZ        38.0580  -15.5860   16.5810 C.cat  65  ARG65       0.5346
     46  NH1       38.3750  -16.8580   16.3830 N.pl3  65  ARG65       0.1354
     47  NH2       38.7970  -14.6320   16.0340 N.pl3  65  ARG65       0.1354
     48  N         31.2810  -13.6940   17.8620 N.am   66  GLY66      -0.1940
     49  CA        30.4330  -12.5480   17.5820 C.3    66  GLY66       0.2014
     50  C         30.0480  -12.3730   16.1230 C.2    66  GLY66       0.2639
     51  O         29.8020  -13.3510   15.4160 O.2    66  GLY66      -0.2714
     52  N         29.9900  -11.1190   15.6770 N.am   67  ASN67      -0.1958
     53  CA        29.5350  -10.7960   14.3270 C.3    67  ASN67       0.1819
     54  C         30.6430  -10.4800   13.3210 C.2    67  ASN67       0.2621
     55  O         30.4060  -10.5090   12.1140 O.2    67  ASN67      -0.2715
     56  CB        28.5620   -9.6130   14.3730 C.3    67  ASN67       0.1195
     57  CG        27.1280  -10.0390   14.6190 C.2    67  ASN67       0.2630
     58  OD1       26.7910  -11.2170   14.5200 O.2    67  ASN67      -0.2716
     59  ND2       26.2740   -9.0750   14.9430 N.am   67  ASN67      -0.0877
     60  N         31.8510  -10.2040   13.8020 N.am   68  LYS68      -0.1977
     61  CA        32.9160   -9.7310   12.9150 C.3    68  LYS68       0.1596
     62  C         33.5610  -10.8650   12.1310 C.2    68  LYS68       0.2287
     63  O         34.6150  -11.3830   12.4970 O.2    68  LYS68      -0.2864
     64  CB        33.9620   -8.9260   13.6880 C.3    68  LYS68       0.0298
     65  CG        33.4740   -7.5450   14.1080 C.3    68  LYS68       0.0038
     66  CD        34.5310   -6.8060   14.9100 C.3    68  LYS68       0.0206
     67  CE        34.0740   -5.4120   15.3170 C.3    68  LYS68       0.1093
     68  NZ        34.6470   -4.3570   14.4310 N.3    68  LYS68      -0.1314
     69  N         28.0570   -8.3860    8.8200 N.3    95  GLU95      -0.1231
     70  CA        28.6470   -8.1760   10.1350 C.3    95  GLU95       0.1699
     71  C         27.8730   -7.1540   10.9600 C.2    95  GLU95       0.2592
     72  O         28.0640   -7.0490   12.1710 O.2    95  GLU95      -0.2718
     73  CB        30.1040   -7.7550    9.9780 C.3    95  GLU95       0.0402
     74  CG        30.9450   -8.8110    9.2780 C.3    95  GLU95       0.1161
     75  CD        32.4260   -8.5210    9.3500 C.2    95  GLU95       0.3649
     76  OE1       32.8220   -7.6540   10.1560 O.co2  95  GLU95      -0.2457
     77  OE2       33.1930   -9.1590    8.5990 O.co2  95  GLU95      -0.2457
     78  N         26.9920   -6.4070   10.3010 N.am   96  ARG96      -0.1966
     79  CA        26.2320   -5.3680   10.9820 C.3    96  ARG96       0.1729
     80  C         24.7570   -5.4550   10.6260 C.2    96  ARG96       0.2616
     81  O         24.3990   -5.5940    9.4550 O.2    96  ARG96      -0.2715
     82  CB        26.7290   -3.9720   10.5860 C.3    96  ARG96       0.0348
     83  CG        28.1500   -3.6050   10.9710 C.3    96  ARG96       0.0492
     84  CD        28.3740   -2.1210   10.6760 C.3    96  ARG96       0.2205
     85  NE        29.7780   -1.7200   10.7400 N.pl3  96  ARG96      -0.0865
     86  CZ        30.4320   -1.4280   11.8590 C.cat  96  ARG96       0.5346
     87  NH1       29.8190   -1.5050   13.0320 N.pl3  96  ARG96       0.1354
     88  NH2       31.7090   -1.0720   11.8030 N.pl3  96  ARG96       0.1354
     89  N         23.9030   -5.3670   11.6380 N.am   97  ALA97      -0.1977
     90  CA        22.4730   -5.3150   11.3970 C.3    97  ALA97       0.1597
     91  C         22.1480   -3.8510   11.1450 C.2    97  ALA97       0.2287
     92  O         22.0820   -3.0530   12.0790 O.2    97  ALA97      -0.2864
     93  CB        21.7010   -5.8570   12.5840 C.3    97  ALA97       0.0319
     94  N         24.7170  -13.3160   15.0800 N.3   106  VAL106     -0.1231
     95  CA        24.0430  -13.0980   16.3560 C.3   106  VAL106      0.1692
     96  C         22.5210  -13.0680   16.1940 C.2   106  VAL106      0.2591
     97  O         21.7950  -13.5930   17.0380 O.2   106  VAL106     -0.2718
     98  CB        24.5480  -11.8140   17.0650 C.3   106  VAL106      0.0266
     99  CG1       23.6770  -11.4730   18.2640 C.3   106  VAL106      0.0020
    100  CG2       25.9990  -11.9800   17.4950 C.3   106  VAL106      0.0020
    101  N         22.0390  -12.4760   15.1060 N.am  107  ARG107     -0.1980
    102  CA        20.6040  -12.4780   14.8240 C.3   107  ARG107      0.1597
    103  C         20.0880  -13.8970   14.5770 C.2   107  ARG107      0.2287
    104  O         18.9840  -14.2540   15.0010 O.2   107  ARG107     -0.2864
    105  CB        20.2710  -11.5630   13.6430 C.3   107  ARG107      0.0334
    106  CG        20.0840  -10.1050   14.0390 C.3   107  ARG107      0.0492
    107  CD        19.8000   -9.2180   12.8380 C.3   107  ARG107      0.2205
    108  NE        19.0780   -8.0110   13.2350 N.pl3 107  ARG107     -0.0865
    109  CZ        18.5600   -7.1310   12.3840 C.cat 107  ARG107      0.5346
    110  NH1       18.6850   -7.3140   11.0770 N.pl3 107  ARG107      0.1354
    111  NH2       17.9190   -6.0640   12.8410 N.pl3 107  ARG107      0.1354
    112  N         19.8990  -15.5700   17.9640 N.3   110  GLN110     -0.1245
    113  CA        18.7410  -15.0420   18.6750 C.3   110  GLN110      0.1566
    114  C         17.4210  -15.5400   18.0870 C.2   110  GLN110      0.2260
    115  O         16.3940  -15.5400   18.7650 O.2   110  GLN110     -0.2867
    116  CB        18.7760  -13.5090   18.7040 C.3   110  GLN110      0.0367
    117  CG        19.9460  -12.9210   19.4930 C.3   110  GLN110      0.0905
    118  CD        20.0420  -11.4110   19.3650 C.2   110  GLN110      0.2608
    119  OE1       20.2280  -10.8780   18.2700 O.2   110  GLN110     -0.2717
    120  NE2       19.9210  -10.7140   20.4870 N.am  110  GLN110     -0.0878
    121  N         33.3360  -16.1340   25.3390 N.3   128  PRO128     -0.2116
    122  CA        34.1310  -14.9430   25.6570 C.3   128  PRO128      0.1372
    123  C         33.9050  -14.4840   27.0920 C.2   128  PRO128      0.2244
    124  O         34.8640  -14.1160   27.7710 O.2   128  PRO128     -0.2868
    125  CB        33.5960  -13.8910   24.6780 C.3   128  PRO128      0.0268
    126  CG        32.2650  -14.4020   24.2390 C.3   128  PRO128      0.0207
    127  CD        32.3760  -15.8860   24.2520 C.3   128  PRO128      0.0892
    128  N         23.7160  -14.0620   24.2850 N.3   148  MET148     -0.1245
    129  CA        22.8290  -12.9920   23.8550 C.3   148  MET148      0.1570
    130  C         21.3960  -13.4670   23.6280 C.2   148  MET148      0.2261
    131  O         20.4790  -12.6540   23.5070 O.2   148  MET148     -0.2867
    132  CB        23.3650  -12.3590   22.5700 C.3   148  MET148      0.0387
    133  CG        24.5270  -11.4040   22.7870 C.3   148  MET148      0.0595
    134  SD        24.1450  -10.1490   24.0180 S.3   148  MET148     -0.1393
    135  CE        22.6900   -9.4110   23.2870 C.3   148  MET148      0.0692
    136  N         29.5280   -8.8090   30.0510 N.3   178  PHE178     -0.1241
    137  CA        29.7500   -8.9850   28.6180 C.3   178  PHE178      0.1605
    138  C         29.9780   -7.6470   27.9270 C.2   178  PHE178      0.2264
    139  O         30.9560   -7.4840   27.1950 O.2   178  PHE178     -0.2867
    140  CB        28.5390   -9.6860   27.9910 C.3   178  PHE178      0.0534
    141  CG        28.6770   -9.9490   26.5150 C.ar  178  PHE178     -0.0203
    142  CD1       29.6180  -10.8460   26.0330 C.ar  178  PHE178     -0.0042
    143  CD2       27.8510   -9.3020   25.6080 C.ar  178  PHE178     -0.0042
    144  CE1       29.7370  -11.0860   24.6730 C.ar  178  PHE178     -0.0003
    145  CE2       27.9650   -9.5380   24.2490 C.ar  178  PHE178     -0.0003
    146  CZ        28.9100  -10.4310   23.7810 C.ar  178  PHE178     -0.0000
    147  N         33.5140   -6.6760   26.0800 N.3   182  ILE182     -0.1245
    148  CA        33.6660   -6.6070   24.6220 C.3   182  ILE182      0.1561
    149  C         33.4920   -5.2130   24.0030 C.2   182  ILE182      0.2260
    150  O         34.0790   -4.9160   22.9630 O.2   182  ILE182     -0.2867
    151  CB        32.7510   -7.6350   23.8860 C.3   182  ILE182      0.0252
    152  CG1       31.2690   -7.2700   24.0230 C.3   182  ILE182      0.0019
    153  CG2       33.0050   -9.0490   24.3940 C.3   182  ILE182      0.0019
    154  CD1       30.6830   -6.5570   22.8150 C.3   182  ILE182      0.0001
    155  N         17.2860   -3.9070   23.6560 N.3   201  PRO201     -0.2116
    156  CA        17.2490   -5.2580   23.0810 C.3   201  PRO201      0.1372
    157  C         16.7070   -6.2630   24.0890 C.2   201  PRO201      0.2244
    158  O         15.9620   -7.1690   23.7180 O.2   201  PRO201     -0.2868
    159  CB        18.7200   -5.5480   22.7530 C.3   201  PRO201      0.0268
    160  CG        19.3560   -4.2120   22.6190 C.3   201  PRO201      0.0207
    161  CD        18.6450   -3.3340   23.6120 C.3   201  PRO201      0.0892
@<TRIPOS>BOND
     1    77    75   ar
     2    69    70    1
     3    74    75    1
     4    74    73    1
     5    75    76   ar
     6    81    80    2
     7    73    70    1
     8    70    71    1
     9    78    71   am
    10    78    79    1
    11    82    83    1
    12    82    79    1
    13    80    79    1
    14    80    89   am
    15    84    85    1
    16    84    83    1
    17    85    86    2
    18    71    72    2
    19   110   109    1
    20    91    90    1
    21    91    92    2
    22    90    89    1
    23    90    93    1
    24    88    86    1
    25    86    87    1
    26    55    54    2
    27    62    63    2
    28    62    61    1
    29   109   111    1
    30   109   108    2
    31   107   108    1
    32   107   106    1
    33    61    64    1
    34    61    60    1
    35    54    60   am
    36    54    53    1
    37   105   106    1
    38   105   102    1
    39    64    65    1
    40    65    66    1
    41    53    56    1
    42    53    52    1
    43    56    57    1
    44    68    67    1
    45    58    57    2
    46   103   102    1
    47   103   104    2
    48    57    59   am
    49   102   101    1
    50    66    67    1
    51    94    95    1
    52   101    96   am
    53    51    50    2
    54    16    15    2
    55    52    50   am
    56    47    45    1
    57    50    49    1
    58    15    14    1
    59    96    95    1
    60    96    97    2
    61    17    18    1
    62    95    98    1
    63    46    45    1
    64    45    44    2
    65    21    18    1
    66    41    42    1
    67    41    38    1
    68    18    19    1
    69    98   100    1
    70    98    99    1
    71    42    43    1
    72    44    43    1
    73    14    13    1
    74    49    48    1
    75    40    39    2
    76    39    48   am
    77    39    38    1
    78   112   113    1
    79   114   113    1
    80   114   115    2
    81    38    37    1
    82   119   118    2
    83    19    20    2
    84    19    22   am
    85   113   116    1
    86    35    34    1
    87   116   117    1
    88    37    32   am
    89     3     2    1
    90     3     4    2
    91     9     7   ar
    92     9    11   ar
    93    22    23    1
    94    12    11    1
    95     2     1    1
    96     2     5    1
    97   118   117    1
    98   118   120   am
    99     7     6   ar
   100    11    10   ar
   101    32    31    1
   102    32    33    2
   103     6     5    1
   104     6     8   ar
   105    10     8   ar
   106    30    31    1
   107    30    24   am
   108    34    31    1
   109    34    36    1
   110    23    24    1
   111    23    26    1
   112    24    25    2
   113    26    27    1
   114    27    28    1
   115    27    29    1
   116   132   133    1
   117   132   129    1
   118   160   159    1
   119   160   161    1
   120   159   156    1
   121   133   134    1
   122   154   152    1
   123   150   149    2
   124   156   155    1
   125   156   157    1
   126   135   134    1
   127   131   130    2
   128   161   155    1
   129   130   129    1
   130   158   157    2
   131   146   145   ar
   132   146   144   ar
   133   129   128    1
   134   151   152    1
   135   151   153    1
   136   151   148    1
   137   149   148    1
   138   126   127    1
   139   126   125    1
   140   145   143   ar
   141   127   121    1
   142   148   147    1
   143   144   142   ar
   144   125   122    1
   145   121   122    1
   146   143   141   ar
   147   122   123    1
   148   142   141   ar
   149   141   140    1
   150   123   124    2
   151   139   138    2
   152   138   137    1
   153   140   137    1
   154   137   136    1
