@<TRIPOS>MOLECULE
tmp/4j4zA00.pdb
 79 76 0 0 0
SMALL
GASTEIGER

@<TRIPOS>ATOM
      1  N         10.7300   57.5720   35.2870 N.3     6  VAL6       -0.1231
      2  CA        11.0450   58.3570   36.4620 C.3     6  VAL6        0.1692
      3  C         12.5330   58.3270   36.7260 C.2     6  VAL6        0.2592
      4  O         13.2440   57.4380   36.2460 O.2     6  VAL6       -0.2718
      5  CB        10.3280   57.8340   37.7220 C.3     6  VAL6        0.0266
      6  CG1        8.8180   57.7980   37.5220 C.3     6  VAL6        0.0020
      7  CG2       10.7990   56.4610   38.1100 C.3     6  VAL6        0.0020
      8  N         13.0130   59.3020   37.4840 N.am    7  GLN7       -0.1966
      9  CA        14.3690   59.2450   38.0180 C.3     7  GLN7        0.1733
     10  C         14.3580   58.4640   39.3010 C.2     7  GLN7        0.2617
     11  O         13.4400   58.5810   40.1150 O.2     7  GLN7       -0.2715
     12  CB        14.8700   60.6610   38.3040 C.3     7  GLN7        0.0408
     13  CG        16.3400   60.7370   38.7200 C.3     7  GLN7        0.0908
     14  CD        16.6160   60.3220   40.1550 C.2     7  GLN7        0.2608
     15  OE1       15.7890   60.4940   41.0410 O.2     7  GLN7       -0.2717
     16  NE2       17.8140   59.7790   40.3920 N.am    7  GLN7       -0.0878
     17  N         15.3980   57.6750   39.5000 N.am    8  GLY8       -0.1940
     18  CA        15.5370   56.9910   40.7540 C.3     8  GLY8        0.2014
     19  C         16.6000   55.9250   40.7620 C.2     8  GLY8        0.2639
     20  O         17.3390   55.7210   39.8190 O.2     8  GLY8       -0.2714
     21  N         16.6620   55.2720   41.9090 N.am    9  ASP9       -0.1957
     22  CA        17.4030   54.0500   42.1380 C.3     9  ASP9        0.1840
     23  C         16.4360   52.8790   42.0710 C.2     9  ASP9        0.2621
     24  O         15.5140   52.8140   42.8660 O.2     9  ASP9       -0.2715
     25  CB        17.9920   54.1730   43.5480 C.3     9  ASP9        0.1450
     26  CG        18.7440   52.9370   44.0150 C.2     9  ASP9        0.3671
     27  OD1       18.7470   51.8990   43.3390 O.co2   9  ASP9       -0.2456
     28  OD2       19.3050   53.0430   45.1390 O.co2   9  ASP9       -0.2456
     29  N         16.6310   51.9650   41.1220 N.am   10  ILE10      -0.1977
     30  CA        15.6610   50.8860   40.9490 C.3    10  ILE10       0.1596
     31  C         15.5360   50.0240   42.1990 C.2    10  ILE10       0.2287
     32  O         14.4800   49.4500   42.4480 O.2    10  ILE10      -0.2864
     33  CB        15.9770   50.0470   39.6980 C.3    10  ILE10       0.0276
     34  CG1       14.7580   49.1870   39.3180 C.3    10  ILE10       0.0022
     35  CG2       17.2630   49.2420   39.8980 C.3    10  ILE10       0.0022
     36  CD1       14.8650   48.4790   37.9800 C.3    10  ILE10       0.0001
     37  N         15.1490   51.0790   45.1110 N.3    12  GLU12      -0.1231
     38  CA        14.1730   51.7390   45.9750 C.3    12  GLU12       0.1699
     39  C         12.7460   51.7060   45.4110 C.2    12  GLU12       0.2592
     40  O         11.8370   52.2810   45.9940 O.2    12  GLU12      -0.2718
     41  CB        14.6060   53.1860   46.2530 C.3    12  GLU12       0.0402
     42  CG        15.8650   53.3010   47.0680 C.3    12  GLU12       0.1161
     43  CD        15.6620   52.8350   48.4960 C.2    12  GLU12       0.3649
     44  OE1       14.6790   53.2790   49.1360 O.co2  12  GLU12      -0.2457
     45  OE2       16.4780   52.0200   48.9830 O.co2  12  GLU12      -0.2457
     46  N         12.5470   51.0390   44.2840 N.am   13  PHE13      -0.1962
     47  CA        11.2140   50.9170   43.7000 C.3    13  PHE13       0.1771
     48  C         10.2660   50.2220   44.6550 C.2    13  PHE13       0.2619
     49  O         10.6050   49.1840   45.2130 O.2    13  PHE13      -0.2715
     50  CB        11.3030   50.1270   42.4000 C.3    13  PHE13       0.0574
     51  CG        10.0010   50.0220   41.6550 C.ar   13  PHE13      -0.0200
     52  CD1        9.4150   51.1450   41.0690 C.ar   13  PHE13      -0.0042
     53  CD2        9.3750   48.8080   41.5120 C.ar   13  PHE13      -0.0042
     54  CE1        8.2210   51.0230   40.3810 C.ar   13  PHE13      -0.0003
     55  CE2        8.2070   48.6760   40.8070 C.ar   13  PHE13      -0.0003
     56  CZ         7.6290   49.7870   40.2320 C.ar   13  PHE13      -0.0000
     57  N          9.1240   50.8730   44.8370 N.am   14  GLN14      -0.1977
     58  CA         8.0220   50.3780   45.6120 C.3    14  GLN14       0.1601
     59  C          6.9830   49.8790   44.6230 C.2    14  GLN14       0.2287
     60  O          6.1440   50.6240   44.1690 O.2    14  GLN14      -0.2864
     61  CB         7.4160   51.5170   46.4420 C.3    14  GLN14       0.0394
     62  CG         8.4230   52.4850   47.0800 C.3    14  GLN14       0.0908
     63  CD         9.0310   51.9410   48.3570 C.2    14  GLN14       0.2608
     64  OE1        8.3190   51.4910   49.2520 O.2    14  GLN14      -0.2717
     65  NE2       10.3530   51.9810   48.4480 N.am   14  GLN14      -0.0878
     66  N          7.4660   50.6770   34.9530 N.3   141  THR141     -0.1218
     67  CA         8.1880   51.9140   35.2470 C.3   141  THR141      0.1862
     68  C          9.6040   51.7760   34.7390 C.2   141  THR141      0.2287
     69  O         10.2780   50.7900   35.0520 O.2   141  THR141     -0.2866
     70  CB         8.2200   52.1790   36.7510 C.3   141  THR141      0.1770
     71  OG1        6.8790   52.3650   37.2170 O.3   141  THR141     -0.2211
     72  CG2        9.0310   53.4220   37.0920 C.3   141  THR141      0.0375
     73  N         13.1480   53.2940   35.1870 N.3   143  VAL143     -0.1245
     74  CA        13.8730   54.0470   36.1970 C.3   143  VAL143      0.1561
     75  C         15.2090   54.4720   35.6220 C.2   143  VAL143      0.2260
     76  O         15.9690   53.6340   35.1160 O.2   143  VAL143     -0.2867
     77  CB        14.1010   53.1920   37.4510 C.3   143  VAL143      0.0252
     78  CG1       14.8130   53.9960   38.5210 C.3   143  VAL143      0.0019
     79  CG2       12.7720   52.6590   37.9970 C.3   143  VAL143      0.0019
@<TRIPOS>BOND
     1    68    69    2
     2    68    67    1
     3    66    67    1
     4    76    75    2
     5    73    74    1
     6    67    70    1
     7     1     2    1
     8    75    74    1
     9    74    77    1
    10     4     3    2
    11     2     3    1
    12     2     5    1
    13     3     8   am
    14    70    72    1
    15    70    71    1
    16    77    79    1
    17    77    78    1
    18     8     9    1
    19     6     5    1
    20     5     7    1
    21    36    34    1
    22     9    12    1
    23     9    10    1
    24    12    13    1
    25    13    14    1
    26    10    17   am
    27    10    11    2
    28    34    33    1
    29    17    18    1
    30    33    35    1
    31    33    30    1
    32    20    19    2
    33    14    16   am
    34    14    15    2
    35    56    54   ar
    36    56    55   ar
    37    54    52   ar
    38    18    19    1
    39    19    21   am
    40    55    53   ar
    41    30    29    1
    42    30    31    1
    43    52    51   ar
    44    29    23   am
    45    53    51   ar
    46    51    50    1
    47    21    22    1
    48    23    22    1
    49    23    24    2
    50    22    25    1
    51    31    32    2
    52    50    47    1
    53    27    26   ar
    54    25    26    1
    55    47    46    1
    56    47    48    1
    57    26    28   ar
    58    60    59    2
    59    46    39   am
    60    59    58    1
    61    48    57   am
    62    48    49    2
    63    57    58    1
    64    37    38    1
    65    39    38    1
    66    39    40    2
    67    58    61    1
    68    38    41    1
    69    41    42    1
    70    61    62    1
    71    42    43    1
    72    62    63    1
    73    63    65   am
    74    63    64    2
    75    43    45   ar
    76    43    44   ar
