@<TRIPOS>MOLECULE
tmp/4j4zA01.pdb
 100 100 0 0 0
SMALL
GASTEIGER

@<TRIPOS>ATOM
      1  N         18.7740   43.1150   34.9240 N.3    21  ALA21      -0.1245
      2  CA        19.5490   42.5750   33.8050 C.3    21  ALA21       0.1562
      3  C         20.6400   41.6810   34.3690 C.2    21  ALA21       0.2260
      4  O         21.2830   42.0280   35.3660 O.2    21  ALA21      -0.2867
      5  CB        20.1490   43.6840   32.9650 C.3    21  ALA21       0.0290
      6  N         27.3230   47.3180   40.3490 N.3    31  GLY31      -0.1210
      7  CA        26.2970   48.1570   39.7360 C.3    31  GLY31       0.1956
      8  C         24.9400   47.9030   40.3520 C.2    31  GLY31       0.2611
      9  O         24.8180   47.7250   41.5600 O.2    31  GLY31      -0.2717
     10  N         23.8940   47.8910   39.5440 N.am   32  VAL32      -0.1979
     11  CA        22.5710   47.5710   40.0240 C.3    32  VAL32       0.1595
     12  C         22.5970   46.2370   40.7580 C.2    32  VAL32       0.2287
     13  O         22.0270   46.1010   41.8410 O.2    32  VAL32      -0.2864
     14  CB        21.5490   47.5400   38.8580 C.3    32  VAL32       0.0276
     15  CG1       20.2140   46.9430   39.2770 C.3    32  VAL32       0.0022
     16  CG2       21.3600   48.9590   38.3220 C.3    32  VAL32       0.0022
     17  N         15.4380   49.1390   34.3640 N.3   110  THR110     -0.1203
     18  CA        16.3560   50.1840   33.9260 C.3   110  THR110      0.1994
     19  C         16.4770   50.1980   32.3940 C.2   110  THR110      0.2619
     20  O         15.7990   49.4400   31.6980 O.2   110  THR110     -0.2717
     21  CB        17.7390   49.9750   34.4800 C.3   110  THR110      0.1784
     22  OG1       18.3300   48.8630   33.7860 O.3   110  THR110     -0.2211
     23  CG2       17.7060   49.7350   35.9400 C.3   110  THR110      0.0376
     24  N         17.3680   51.0560   31.8750 N.am  111  SER111     -0.1937
     25  CA        17.6560   51.1170   30.4470 C.3   111  SER111      0.2055
     26  C         18.4680   49.9470   29.9020 C.2   111  SER111      0.2643
     27  O         18.5680   49.7920   28.6870 O.2   111  SER111     -0.2714
     28  CB        18.4600   52.3800   30.1520 C.3   111  SER111      0.2130
     29  OG        19.7720   52.2300   30.6770 O.3   111  SER111     -0.2179
     30  N         19.0650   49.1580   30.8020 N.am  112  TRP112     -0.1959
     31  CA        20.0190   48.0800   30.4870 C.3   112  TRP112      0.1771
     32  C         21.2680   48.5790   29.7810 C.2   112  TRP112      0.2620
     33  O         22.0160   47.7970   29.2390 O.2   112  TRP112     -0.2715
     34  CB        19.3660   46.9620   29.6580 C.3   112  TRP112      0.0590
     35  CG        18.3380   46.1670   30.3920 C.ar  112  TRP112      0.0006
     36  CD1       17.8550   46.4020   31.6380 C.ar  112  TRP112      0.0946
     37  CD2       17.6850   44.9950   29.9180 C.ar  112  TRP112      0.0152
     38  NE1       16.9180   45.4520   31.9650 N.ar  112  TRP112     -0.2442
     39  CE2       16.8030   44.5670   30.9240 C.ar  112  TRP112      0.0810
     40  CE3       17.7560   44.2680   28.7260 C.ar  112  TRP112      0.0012
     41  CZ2       15.9920   43.4540   30.7790 C.ar  112  TRP112      0.0191
     42  CZ3       16.9410   43.1690   28.5770 C.ar  112  TRP112      0.0001
     43  CH2       16.0680   42.7750   29.6040 C.ar  112  TRP112      0.0015
     44  N         21.5290   49.8780   29.8560 N.am  113  GLY113     -0.1940
     45  CA        22.6420   50.4630   29.1290 C.3   113  GLY113      0.2014
     46  C         23.9880   49.8280   29.4120 C.2   113  GLY113      0.2639
     47  O         24.8270   49.7180   28.5220 O.2   113  GLY113     -0.2714
     48  N         24.2040   49.3760   30.6430 N.am  114  ALA114     -0.1963
     49  CA        25.4960   48.8040   31.0210 C.3   114  ALA114      0.1728
     50  C         25.6950   47.3690   30.5280 C.2   114  ALA114      0.2616
     51  O         26.7550   46.7790   30.7500 O.2   114  ALA114     -0.2715
     52  CB        25.6580   48.8790   32.5360 C.3   114  ALA114      0.0334
     53  N         24.6900   46.8210   29.8470 N.am  115  TRP115     -0.1974
     54  CA        24.7190   45.4530   29.3420 C.3   115  TRP115      0.1640
     55  C         24.7160   45.3980   27.8100 C.2   115  TRP115      0.2290
     56  O         24.8640   44.3180   27.2390 O.2   115  TRP115     -0.2864
     57  CB        23.4990   44.6820   29.8900 C.3   115  TRP115      0.0576
     58  CG        23.5180   44.5490   31.3820 C.ar  115  TRP115      0.0006
     59  CD1       23.1200   45.4850   32.2900 C.ar  115  TRP115      0.0946
     60  CD2       23.9750   43.4300   32.1430 C.ar  115  TRP115      0.0152
     61  NE1       23.3170   45.0240   33.5500 N.ar  115  TRP115     -0.2442
     62  CE2       23.8350   43.7560   33.4990 C.ar  115  TRP115      0.0810
     63  CE3       24.4860   42.1800   31.8050 C.ar  115  TRP115      0.0012
     64  CZ2       24.2150   42.8930   34.5100 C.ar  115  TRP115      0.0191
     65  CZ3       24.8430   41.3220   32.8050 C.ar  115  TRP115      0.0001
     66  CH2       24.7040   41.6740   34.1450 C.ar  115  TRP115      0.0015
     67  N         13.1480   53.2940   35.1870 N.3   143  VAL143     -0.1231
     68  CA        13.8730   54.0470   36.1970 C.3   143  VAL143      0.1692
     69  C         15.2090   54.4720   35.6220 C.2   143  VAL143      0.2592
     70  O         15.9690   53.6340   35.1160 O.2   143  VAL143     -0.2718
     71  CB        14.1010   53.1920   37.4510 C.3   143  VAL143      0.0266
     72  CG1       14.8130   53.9960   38.5210 C.3   143  VAL143      0.0020
     73  CG2       12.7720   52.6590   37.9970 C.3   143  VAL143      0.0020
     74  N         15.4930   55.7620   35.7140 N.am  144  HIS144     -0.1962
     75  CA        16.6730   56.3950   35.0980 C.3   144  HIS144      0.1787
     76  C         17.5190   57.1020   36.1310 C.2   144  HIS144      0.2621
     77  O         17.0370   57.5760   37.1450 O.2   144  HIS144     -0.2715
     78  CB        16.2310   57.3730   34.0210 C.3   144  HIS144      0.0785
     79  CG        15.3450   56.7400   33.0130 C.ar  144  HIS144      0.0821
     80  ND1       15.8380   56.0340   31.9340 N.ar  144  HIS144     -0.2267
     81  CD2       14.0000   56.5930   32.9800 C.ar  144  HIS144      0.1154
     82  CE1       14.8300   55.5240   31.2500 C.ar  144  HIS144      0.1986
     83  NE2       13.7070   55.8570   31.8620 N.ar  144  HIS144     -0.2212
     84  N         18.8200   57.1790   35.8600 N.am  145  GLY145     -0.1940
     85  CA        19.7250   57.7560   36.8330 C.3   145  GLY145      0.2014
     86  C         19.5250   59.2320   37.0910 C.2   145  GLY145      0.2639
     87  O         19.7350   59.7010   38.2100 O.2   145  GLY145     -0.2714
     88  N         19.1200   59.9610   36.0630 N.am  146  THR146     -0.1950
     89  CA        18.9740   61.4050   36.1720 C.3   146  THR146      0.1897
     90  C         17.6030   61.8820   35.7360 C.2   146  THR146      0.2313
     91  O         16.9440   61.2360   34.9200 O.2   146  THR146     -0.2863
     92  CB        20.0030   62.1690   35.3050 C.3   146  THR146      0.1794
     93  OG1       19.7540   61.8940   33.9250 O.3   146  THR146     -0.2208
     94  CG2       21.4200   61.7760   35.6470 C.3   146  THR146      0.0378
     95  N         17.4480   62.5840   31.9410 N.3   149  SER149     -0.1217
     96  CA        17.1860   61.4050   31.1320 C.3   149  SER149      0.1889
     97  C         15.7290   60.9530   31.2710 C.2   149  SER149      0.2288
     98  O         15.0640   60.6670   30.2690 O.2   149  SER149     -0.2866
     99  CB        18.1330   60.2830   31.5210 C.3   149  SER149      0.2089
    100  OG        17.8430   59.1230   30.7690 O.3   149  SER149     -0.2183
@<TRIPOS>BOND
     1    56    55    2
     2    55    54    1
     3    47    46    2
     4    42    40   ar
     5    42    43   ar
     6    27    26    2
     7    40    37   ar
     8    45    46    1
     9    45    44    1
    10    33    32    2
    11    54    53    1
    12    54    57    1
    13    46    48   am
    14    43    41   ar
    15    34    35    1
    16    34    31    1
    17    32    44   am
    18    32    31    1
    19    53    50   am
    20    57    58    1
    21    26    25    1
    22    26    30   am
    23    37    35   ar
    24    37    39   ar
    25    28    25    1
    26    28    29    1
    27    98    97    2
    28    35    36   ar
    29    25    24    1
    30    31    30    1
    31    50    51    2
    32    50    49    1
    33    48    49    1
    34   100    99    1
    35    41    39   ar
    36    39    38   ar
    37    49    52    1
    38    96    97    1
    39    96    99    1
    40    96    95    1
    41    82    83   ar
    42    82    80   ar
    43    58    60   ar
    44    58    59   ar
    45    36    38   ar
    46    20    19    2
    47    63    60   ar
    48    63    65   ar
    49    83    81   ar
    50    24    19   am
    51    80    79   ar
    52    60    62   ar
    53    59    61   ar
    54    19    18    1
    55    65    66   ar
    56     5     2    1
    57    81    79   ar
    58    79    78    1
    59    62    61   ar
    60    62    64   ar
    61    22    21    1
    62     2     3    1
    63     2     1    1
    64    93    92    1
    65    18    17    1
    66    18    21    1
    67    78    75    1
    68    66    64   ar
    69     3     4    2
    70    21    23    1
    71    91    90    2
    72    75    74    1
    73    75    76    1
    74    70    69    2
    75    67    68    1
    76    92    94    1
    77    92    89    1
    78    69    74   am
    79    69    68    1
    80    90    89    1
    81    84    76   am
    82    84    85    1
    83    88    89    1
    84    88    86   am
    85    76    77    2
    86    68    71    1
    87    85    86    1
    88    86    87    2
    89    71    73    1
    90    71    72    1
    91    16    14    1
    92    14    15    1
    93    14    11    1
    94    10    11    1
    95    10     8   am
    96     7     6    1
    97     7     8    1
    98    11    12    1
    99     8     9    2
   100    12    13    2
