@<TRIPOS>MOLECULE
tmp/4j51A00.pdb
 129 123 0 0 0
SMALL
GASTEIGER

@<TRIPOS>ATOM
      1  N         39.9320   -0.4170   51.6800 N.3    28  PHE28      -0.1241
      2  CA        39.3040   -1.3680   50.7720 C.3    28  PHE28       0.1605
      3  C         39.6980   -2.8230   51.0410 C.2    28  PHE28       0.2264
      4  O         38.8840   -3.7390   50.8470 O.2    28  PHE28      -0.2867
      5  CB        39.6150   -0.9830   49.3110 C.3    28  PHE28       0.0534
      6  CG        38.7180   -1.6520   48.2930 C.ar   28  PHE28      -0.0203
      7  CD1       37.3570   -1.3630   48.2520 C.ar   28  PHE28      -0.0042
      8  CD2       39.2340   -2.5760   47.3960 C.ar   28  PHE28      -0.0042
      9  CE1       36.5200   -1.9860   47.3320 C.ar   28  PHE28      -0.0003
     10  CE2       38.4140   -3.2110   46.4650 C.ar   28  PHE28      -0.0003
     11  CZ        37.0430   -2.9150   46.4310 C.ar   28  PHE28      -0.0000
     12  N         37.2160   -6.2570   51.5360 N.3    32  LYS32      -0.1245
     13  CA        37.3630   -7.5540   50.8910 C.3    32  LYS32       0.1561
     14  C         37.5540   -8.6370   51.9460 C.2    32  LYS32       0.2260
     15  O         37.1080   -9.7780   51.7750 O.2    32  LYS32      -0.2867
     16  CB        38.5510   -7.5650   49.9300 C.3    32  LYS32       0.0271
     17  CG        38.4070   -6.6300   48.7340 C.3    32  LYS32       0.0035
     18  CD        39.3760   -7.0180   47.6050 C.3    32  LYS32       0.0206
     19  CE        40.8350   -6.8890   48.0270 C.3    32  LYS32       0.1093
     20  NZ        41.1860   -5.4760   48.3560 N.3    32  LYS32      -0.1314
     21  N         28.3180  -13.2640   34.9370 N.3    60  TYR60      -0.1227
     22  CA        29.6280  -13.5880   35.5020 C.3    60  TYR60       0.1736
     23  C         29.4390  -14.6340   36.5910 C.2    60  TYR60       0.2595
     24  O         28.8200  -14.3600   37.6170 O.2    60  TYR60      -0.2718
     25  CB        30.2810  -12.3400   36.1120 C.3    60  TYR60       0.0548
     26  CG        30.5290  -11.2140   35.1280 C.ar   60  TYR60      -0.0200
     27  CD1       31.5850  -11.2660   34.2220 C.ar   60  TYR60      -0.0009
     28  CD2       29.6870  -10.1060   35.0940 C.ar   60  TYR60      -0.0009
     29  CE1       31.7900  -10.2340   33.2980 C.ar   60  TYR60       0.0417
     30  CE2       29.8790   -9.0770   34.1860 C.ar   60  TYR60       0.0417
     31  CZ        30.9260   -9.1370   33.2850 C.ar   60  TYR60       0.1957
     32  OH        31.0870   -8.1140   32.3580 O.3    60  TYR60      -0.2866
     33  N         29.9920  -15.8220   36.3690 N.am   61  LYS61      -0.1966
     34  CA        29.8860  -16.9450   37.2990 C.3    61  LYS61       0.1728
     35  C         30.2970  -16.6290   38.7300 C.2    61  LYS61       0.2616
     36  O         29.8100  -17.2600   39.6720 O.2    61  LYS61      -0.2715
     37  CB        30.7210  -18.1120   36.7670 C.3    61  LYS61       0.0311
     38  CG        30.2780  -19.4930   37.2390 C.3    61  LYS61       0.0038
     39  CD        30.7120  -19.7630   38.6750 C.3    61  LYS61       0.0206
     40  CE        32.2460  -19.7290   38.8160 C.3    61  LYS61       0.1093
     41  NZ        32.6910  -19.9490   40.2260 N.3    61  LYS61      -0.1314
     42  N         31.1990  -15.6640   38.8950 N.am   62  ASP62      -0.1957
     43  CA        31.6680  -15.2660   40.2250 C.3    62  ASP62       0.1840
     44  C         30.7220  -14.2560   40.8920 C.2    62  ASP62       0.2621
     45  O         30.7380  -14.0750   42.1130 O.2    62  ASP62      -0.2715
     46  CB        33.0760  -14.6670   40.1380 C.3    62  ASP62       0.1450
     47  CG        33.1250  -13.3880   39.3110 C.2    62  ASP62       0.3671
     48  OD1       32.6760  -13.3980   38.1460 O.co2  62  ASP62      -0.2456
     49  OD2       33.6280  -12.3660   39.8240 O.co2  62  ASP62      -0.2456
     50  N         29.8840  -13.6100   40.0970 N.am   63  ILE63      -0.1977
     51  CA        28.9670  -12.6490   40.6570 C.3    63  ILE63       0.1596
     52  C         27.5470  -13.1870   40.7480 C.2    63  ILE63       0.2287
     53  O         26.8280  -13.2030   39.7600 O.2    63  ILE63      -0.2864
     54  CB        28.9970  -11.3560   39.8440 C.3    63  ILE63       0.0276
     55  CG1       30.3630  -10.6780   40.0290 C.3    63  ILE63       0.0022
     56  CG2       27.8680  -10.4350   40.2700 C.3    63  ILE63       0.0022
     57  CD1       30.8130  -10.5410   41.4750 C.3    63  ILE63       0.0001
     58  N         28.8570   -5.9640   26.4350 N.3   137  LYS137     -0.1245
     59  CA        28.5310   -5.8570   27.8450 C.3   137  LYS137      0.1561
     60  C         27.0540   -5.7560   28.1570 C.2   137  LYS137      0.2260
     61  O         26.6760   -5.7020   29.3250 O.2   137  LYS137     -0.2867
     62  CB        29.2390   -4.6430   28.4460 C.3   137  LYS137      0.0271
     63  CG        30.7650   -4.7290   28.4560 C.3   137  LYS137      0.0035
     64  CD        31.2550   -5.9480   29.2200 C.3   137  LYS137      0.0206
     65  CE        32.6830   -5.7670   29.7040 C.3   137  LYS137      0.1093
     66  NZ        33.6680   -5.8660   28.6070 N.3   137  LYS137     -0.1314
     67  N         25.0160   -2.0670   35.2370 N.3   226  CYS226     -0.1221
     68  CA        26.1930   -1.7640   34.4300 C.3   226  CYS226      0.1808
     69  C         26.3330   -3.0490   33.6380 C.2   226  CYS226      0.2602
     70  O         25.4500   -3.3720   32.8400 O.2   226  CYS226     -0.2717
     71  CB        27.4400   -1.4560   35.2810 C.3   226  CYS226      0.0970
     72  SG        27.8420   -2.5180   36.7020 S.3   226  CYS226     -0.0800
     73  N         27.4090   -3.7950   33.8300 N.am  227  SER227     -0.1938
     74  CA        27.5080   -5.0490   33.1100 C.3   227  SER227      0.2055
     75  C         27.3250   -6.1630   34.1130 C.2   227  SER227      0.2642
     76  O         26.5140   -7.0590   33.9050 O.2   227  SER227     -0.2714
     77  CB        28.8450   -5.2110   32.4030 C.3   227  SER227      0.2130
     78  OG        28.8070   -6.4140   31.6570 O.3   227  SER227     -0.2179
     79  N         28.0600   -6.0910   35.2200 N.am  228  ALA228     -0.1977
     80  CA        27.9670   -7.1090   36.2620 C.3   228  ALA228      0.1597
     81  C         26.9080   -6.7280   37.2880 C.2   228  ALA228      0.2287
     82  O         26.3900   -7.5750   38.0170 O.2   228  ALA228     -0.2864
     83  CB        29.3160   -7.2820   36.9470 C.3   228  ALA228      0.0319
     84  N         27.5600   -4.5340   39.5550 N.3   230  CYS230     -0.1221
     85  CA        28.3690   -4.2620   40.7200 C.3   230  CYS230      0.1808
     86  C         29.5650   -3.4790   40.1970 C.2   230  CYS230      0.2602
     87  O         30.0410   -3.7190   39.0770 O.2   230  CYS230     -0.2717
     88  CB        28.8010   -5.5640   41.3770 C.3   230  CYS230      0.0970
     89  SG        30.1400   -6.4180   40.5530 S.3   230  CYS230     -0.0800
     90  N         30.0300   -2.5350   41.0100 N.am  231  GLY231     -0.1942
     91  CA        31.1450   -1.6790   40.6400 C.3   231  GLY231      0.2014
     92  C         30.6130   -0.2620   40.4780 C.2   231  GLY231      0.2638
     93  O         30.5530    0.5190   41.4240 O.2   231  GLY231     -0.2714
     94  N         30.2110    0.0560   39.2580 N.am  232  ARG232     -0.1977
     95  CA        29.6620    1.3510   38.9240 C.3   232  ARG232      0.1597
     96  C         28.2830    1.4220   39.5010 C.2   232  ARG232      0.2287
     97  O         27.8360    2.4560   39.9730 O.2   232  ARG232     -0.2864
     98  CB        29.5860    1.4770   37.4120 C.3   232  ARG232      0.0334
     99  CG        30.9410    1.4080   36.7780 C.3   232  ARG232      0.0492
    100  CD        30.8610    1.4960   35.2890 C.3   232  ARG232      0.2205
    101  NE        30.8020    0.1780   34.6700 N.pl3 232  ARG232     -0.0865
    102  CZ        30.8850   -0.0240   33.3600 C.cat 232  ARG232      0.5346
    103  NH1       31.0160    1.0210   32.5360 N.pl3 232  ARG232      0.1354
    104  NH2       30.8840   -1.2670   32.8800 N.pl3 232  ARG232      0.1354
    105  N         33.2170   -2.6590   43.5760 N.3   273  GLN273     -0.1231
    106  CA        34.2850   -3.6040   43.3190 C.3   273  GLN273      0.1698
    107  C         35.7550   -3.2060   43.4060 C.2   273  GLN273      0.2592
    108  O         36.5920   -4.0580   43.6980 O.2   273  GLN273     -0.2718
    109  CB        34.0040   -4.2420   41.9620 C.3   273  GLN273      0.0381
    110  CG        34.6850   -5.5660   41.7120 C.3   273  GLN273      0.0905
    111  CD        33.8970   -6.4290   40.7400 C.2   273  GLN273      0.2608
    112  OE1       33.4720   -5.9720   39.6770 O.2   273  GLN273     -0.2717
    113  NE2       33.6960   -7.6860   41.1060 N.am  273  GLN273     -0.0878
    114  N         36.0990   -1.9480   43.1630 N.am  274  THR274     -0.1953
    115  CA        37.5110   -1.5970   43.2210 C.3   274  THR274      0.1897
    116  C         37.8650   -0.4440   44.1250 C.2   274  THR274      0.2313
    117  O         36.9950    0.3130   44.5540 O.2   274  THR274     -0.2863
    118  CB        38.0630   -1.2440   41.8440 C.3   274  THR274      0.1794
    119  OG1       37.5370    0.0240   41.4350 O.3   274  THR274     -0.2208
    120  CG2       37.7080   -2.3150   40.8350 C.3   274  THR274      0.0378
    121  N         36.9660    2.8290   42.4580 N.3   277  GLN277     -0.1245
    122  CA        35.5580    3.1800   42.5920 C.3   277  GLN277      0.1566
    123  C         35.2820    3.6040   44.0390 C.2   277  GLN277      0.2260
    124  O         34.4140    4.4420   44.3030 O.2   277  GLN277     -0.2867
    125  CB        34.6760    1.9920   42.2020 C.3   277  GLN277      0.0367
    126  CG        35.0680    1.3670   40.8720 C.3   277  GLN277      0.0905
    127  CD        34.3230    0.0750   40.5880 C.2   277  GLN277      0.2608
    128  OE1       34.0150   -0.6940   41.4970 O.2   277  GLN277     -0.2717
    129  NE2       34.0500   -0.1760   39.3270 N.am  277  GLN277     -0.0878
@<TRIPOS>BOND
     1    58    59    1
     2    59    60    1
     3    59    62    1
     4    60    61    2
     5    62    63    1
     6    63    64    1
     7    66    65    1
     8    64    65    1
     9    78    77    1
    10    32    31    1
    11    77    74    1
    12   103   102    1
    13    70    69    2
    14   104   102    1
    15    74    73    1
    16    74    75    1
    17    31    29   ar
    18    31    30   ar
    19    29    27   ar
    20   102   101    2
    21    69    73   am
    22    69    68    1
    23    76    75    2
    24    75    79   am
    25    30    28   ar
    26    27    26   ar
    27    68    67    1
    28    68    71    1
    29   101   100    1
    30    21    22    1
    31    28    26   ar
    32    26    25    1
    33    79    80    1
    34    71    72    1
    35   100    99    1
    36    22    25    1
    37    22    23    1
    38    80    83    1
    39    80    81    1
    40    33    23   am
    41    33    34    1
    42    23    24    2
    43    37    38    1
    44    37    34    1
    45    99    98    1
    46    38    39    1
    47    81    82    2
    48    34    35    1
    49    98    95    1
    50    48    47   ar
    51    39    40    1
    52    35    42   am
    53    35    36    2
    54    40    41    1
    55    42    43    1
    56    95    94    1
    57    95    96    1
    58    87    86    2
    59    94    92   am
    60    47    49   ar
    61    47    46    1
    62   129   127   am
    63    96    97    2
    64    84    85    1
    65   112   111    2
    66    53    52    2
    67    54    55    1
    68    54    56    1
    69    54    51    1
    70    55    57    1
    71    50    51    1
    72    50    44   am
    73    46    43    1
    74    86    85    1
    75    86    90   am
    76    43    44    1
    77    92    91    1
    78    92    93    2
    79    89    88    1
    80   127   126    1
    81   127   128    2
    82    91    90    1
    83    51    52    1
    84    85    88    1
    85   111   113   am
    86   111   110    1
    87   120   118    1
    88   126   125    1
    89    44    45    2
    90   119   118    1
    91   110   109    1
    92   118   115    1
    93   109   106    1
    94   125   122    1
    95   121   122    1
    96   122   123    1
    97   114   115    1
    98   114   107   am
    99   115   116    1
   100   106   107    1
   101   106   105    1
   102   107   108    2
   103   123   124    2
   104   116   117    2
   105    11    10   ar
   106    11     9   ar
   107    10     8   ar
   108     9     7   ar
   109     8     6   ar
   110    18    19    1
   111    18    17    1
   112    19    20    1
   113     7     6   ar
   114     6     5    1
   115    17    16    1
   116     5     2    1
   117    16    13    1
   118     2     3    1
   119     2     1    1
   120     4     3    2
   121    13    12    1
   122    13    14    1
   123    15    14    2
