@<TRIPOS>MOLECULE
tmp/4j52A00.pdb
 184 178 0 0 0
SMALL
GASTEIGER

@<TRIPOS>ATOM
      1  N         26.5280  -41.5840  -15.2740 N.3    20  ARG20      -0.1231
      2  CA        27.8430  -42.2310  -15.1840 C.3    20  ARG20       0.1694
      3  C         28.9360  -41.3680  -14.5510 C.2    20  ARG20       0.2592
      4  O         29.0280  -40.1530  -14.7920 O.2    20  ARG20      -0.2718
      5  CB        28.3020  -42.7520  -16.5530 C.3    20  ARG20       0.0321
      6  CG        28.1890  -41.7650  -17.6940 C.3    20  ARG20       0.0489
      7  CD        28.8150  -42.3170  -18.9650 C.3    20  ARG20       0.2205
      8  NE        30.2710  -42.1560  -18.9610 N.pl3  20  ARG20      -0.0865
      9  CZ        30.9330  -41.0790  -19.3870 C.cat  20  ARG20       0.5346
     10  NH1       30.2910  -40.0200  -19.8770 N.pl3  20  ARG20       0.1354
     11  NH2       32.2610  -41.0630  -19.3260 N.pl3  20  ARG20       0.1354
     12  N         29.7560  -42.0290  -13.7370 N.am   21  PHE21      -0.1962
     13  CA        30.8900  -41.4120  -13.0570 C.3    21  PHE21       0.1771
     14  C         31.8510  -40.7890  -14.0520 C.2    21  PHE21       0.2619
     15  O         32.3230  -41.4560  -14.9720 O.2    21  PHE21      -0.2715
     16  CB        31.6210  -42.4640  -12.2160 C.3    21  PHE21       0.0574
     17  CG        32.7250  -41.9080  -11.3590 C.ar   21  PHE21      -0.0200
     18  CD1       32.4540  -40.9640  -10.3770 C.ar   21  PHE21      -0.0042
     19  CD2       34.0320  -42.3550  -11.5100 C.ar   21  PHE21      -0.0042
     20  CE1       33.4680  -40.4550   -9.5770 C.ar   21  PHE21      -0.0003
     21  CE2       35.0480  -41.8550  -10.7110 C.ar   21  PHE21      -0.0003
     22  CZ        34.7680  -40.9000   -9.7440 C.ar   21  PHE21      -0.0000
     23  N         32.1280  -39.5050  -13.8630 N.am   22  LEU22      -0.1963
     24  CA        33.0370  -38.7640  -14.7280 C.3    22  LEU22       0.1728
     25  C         34.4450  -38.6690  -14.1600 C.2    22  LEU22       0.2617
     26  O         35.4010  -38.4170  -14.9020 O.2    22  LEU22      -0.2715
     27  CB        32.5180  -37.3350  -14.9340 C.3    22  LEU22       0.0311
     28  CG        31.1340  -37.1790  -15.5580 C.3    22  LEU22       0.0022
     29  CD1       30.8030  -35.6960  -15.6870 C.3    22  LEU22       0.0001
     30  CD2       31.0650  -37.8770  -16.9050 C.3    22  LEU22       0.0001
     31  N         34.5650  -38.8260  -12.8420 N.am   23  GLY23      -0.1940
     32  CA        35.8410  -38.6180  -12.1550 C.3    23  GLY23       0.2014
     33  C         35.7220  -37.8010  -10.8850 C.2    23  GLY23       0.2639
     34  O         34.6760  -37.2200  -10.5910 O.2    23  GLY23      -0.2714
     35  N         36.8290  -37.7370  -10.1540 N.am   24  LYS24      -0.1963
     36  CA        36.8490  -37.2250   -8.7940 C.3    24  LYS24       0.1728
     37  C         37.6610  -35.9310   -8.7080 C.2    24  LYS24       0.2616
     38  O         38.8100  -35.9540   -8.2700 O.2    24  LYS24      -0.2715
     39  CB        37.4340  -38.3070   -7.8700 C.3    24  LYS24       0.0311
     40  CG        37.3430  -38.0170   -6.3840 C.3    24  LYS24       0.0038
     41  CD        37.7180  -39.2430   -5.5640 C.3    24  LYS24       0.0206
     42  CE        37.3750  -39.0650   -4.0890 C.3    24  LYS24       0.1093
     43  NZ        37.4390  -40.3480   -3.3300 N.3    24  LYS24      -0.1314
     44  N         37.0670  -34.8100   -9.1240 N.am   25  GLY25      -0.1955
     45  CA        37.6970  -33.4870   -8.9630 C.3    25  GLY25       0.1869
     46  C         37.7380  -32.9880   -7.5150 C.2    25  GLY25       0.2309
     47  O         36.7340  -32.5200   -6.9860 O.2    25  GLY25      -0.2863
     48  N         32.2220  -36.4570   -9.3960 N.3    30  CYS30      -0.1221
     49  CA        31.4590  -35.8540  -10.4770 C.3    30  CYS30       0.1808
     50  C         30.7880  -36.9290  -11.3280 C.2    30  CYS30       0.2601
     51  O         31.4100  -37.9350  -11.6490 O.2    30  CYS30      -0.2717
     52  CB        32.3770  -34.9750  -11.3140 C.3    30  CYS30       0.0970
     53  SG        33.3350  -33.8150  -10.3030 S.3    30  CYS30      -0.0800
     54  N         29.5140  -36.7010  -11.6510 N.am   31  PHE31      -0.1962
     55  CA        28.6780  -37.6040  -12.4350 C.3    31  PHE31       0.1771
     56  C         27.8770  -36.8190  -13.4780 C.2    31  PHE31       0.2619
     57  O         27.4540  -35.6970  -13.2120 O.2    31  PHE31      -0.2715
     58  CB        27.6630  -38.3210  -11.5270 C.3    31  PHE31       0.0574
     59  CG        28.2880  -39.1510  -10.4400 C.ar   31  PHE31      -0.0200
     60  CD1       28.7040  -38.5620   -9.2510 C.ar   31  PHE31      -0.0042
     61  CD2       28.4410  -40.5250  -10.5980 C.ar   31  PHE31      -0.0042
     62  CE1       29.2880  -39.3230   -8.2560 C.ar   31  PHE31      -0.0003
     63  CE2       29.0100  -41.2950   -9.5980 C.ar   31  PHE31      -0.0003
     64  CZ        29.4370  -40.6940   -8.4260 C.ar   31  PHE31      -0.0000
     65  N         27.6530  -37.4140  -14.6480 N.am   32  GLU32      -0.1977
     66  CA        26.5990  -36.9530  -15.5550 C.3    32  GLU32       0.1602
     67  C         25.2970  -37.1640  -14.8190 C.2    32  GLU32       0.2287
     68  O         25.0660  -38.2470  -14.2930 O.2    32  GLU32      -0.2864
     69  CB        26.5370  -37.7890  -16.8440 C.3    32  GLU32       0.0415
     70  CG        27.4150  -37.3160  -17.9850 C.3    32  GLU32       0.1163
     71  CD        27.2590  -38.1690  -19.2480 C.2    32  GLU32       0.3649
     72  OE1       26.7210  -37.6700  -20.2590 O.co2  32  GLU32      -0.2457
     73  OE2       27.6640  -39.3510  -19.2340 O.co2  32  GLU32      -0.2457
     74  N         26.1910  -31.7320  -15.5440 N.3    43  ALA43      -0.1231
     75  CA        27.3200  -32.2450  -14.7840 C.3    43  ALA43       0.1694
     76  C         27.0750  -31.9800  -13.2990 C.2    43  ALA43       0.2593
     77  O         27.0010  -30.8220  -12.8650 O.2    43  ALA43      -0.2718
     78  CB        28.6190  -31.6000  -15.2370 C.3    43  ALA43       0.0304
     79  N         26.9420  -33.0640  -12.5360 N.am   44  GLY44      -0.1942
     80  CA        26.7180  -32.9940  -11.0910 C.3    44  GLY44       0.2014
     81  C         28.0070  -33.0780  -10.2890 C.2    44  GLY44       0.2638
     82  O         28.7750  -34.0430  -10.4250 O.2    44  GLY44      -0.2714
     83  N         28.2480  -32.0640   -9.4570 N.am   45  LYS45      -0.1977
     84  CA        29.3860  -32.0610   -8.5490 C.3    45  LYS45       0.1596
     85  C         28.8780  -32.3710   -7.1480 C.2    45  LYS45       0.2287
     86  O         28.1830  -31.5620   -6.5430 O.2    45  LYS45      -0.2864
     87  CB        30.0910  -30.7010   -8.5850 C.3    45  LYS45       0.0298
     88  CG        31.3990  -30.6150   -7.8100 C.3    45  LYS45       0.0038
     89  CD        31.9160  -29.1830   -7.8430 C.3    45  LYS45       0.0206
     90  CE        33.4280  -29.0780   -7.7680 C.3    45  LYS45       0.1093
     91  NZ        33.8570  -27.7140   -8.1950 N.3    45  LYS45      -0.1314
     92  N         30.0520  -18.5810   -8.3850 N.3    68  HIS68      -0.1241
     93  CA        29.7280  -19.2250   -9.6480 C.3    68  HIS68       0.1621
     94  C         28.2400  -19.1100  -10.0250 C.2    68  HIS68       0.2264
     95  O         27.8740  -19.1410  -11.2080 O.2    68  HIS68      -0.2867
     96  CB        30.1640  -20.6720   -9.5860 C.3    68  HIS68       0.0745
     97  CG        30.2530  -21.3330  -10.9180 C.ar   68  HIS68       0.0817
     98  ND1       30.8300  -22.5740  -11.0860 N.ar   68  HIS68      -0.2268
     99  CD2       29.8490  -20.9280  -12.1470 C.ar   68  HIS68       0.1154
    100  CE1       30.7650  -22.9070  -12.3630 C.ar   68  HIS68       0.1986
    101  NE2       30.1700  -21.9260  -13.0250 N.ar   68  HIS68      -0.2212
    102  N         31.6010  -21.7790  -17.3850 N.3    77  VAL77      -0.1245
    103  CA        30.7820  -22.9730  -17.1710 C.3    77  VAL77       0.1561
    104  C         29.4220  -22.5750  -16.6010 C.2    77  VAL77       0.2260
    105  O         29.3480  -21.8870  -15.5880 O.2    77  VAL77      -0.2867
    106  CB        31.4620  -23.9370  -16.1910 C.3    77  VAL77       0.0252
    107  CG1       30.4870  -25.0130  -15.7130 C.3    77  VAL77       0.0019
    108  CG2       32.6790  -24.5570  -16.8330 C.3    77  VAL77       0.0019
    109  N         25.9880  -28.3380  -12.8190 N.3    93  LEU93      -0.1231
    110  CA        26.8190  -27.5260  -13.6780 C.3    93  LEU93       0.1693
    111  C         26.6600  -27.9560  -15.1180 C.2    93  LEU93       0.2592
    112  O         26.0640  -28.9950  -15.4160 O.2    93  LEU93      -0.2718
    113  CB        28.2720  -27.6250  -13.2370 C.3    93  LEU93       0.0284
    114  CG        28.5540  -27.0120  -11.8620 C.3    93  LEU93       0.0019
    115  CD1       29.9390  -27.3730  -11.3570 C.3    93  LEU93       0.0001
    116  CD2       28.3780  -25.5030  -11.8930 C.3    93  LEU93       0.0001
    117  N         27.1580  -27.1160  -16.0100 N.am   94  GLU94      -0.1966
    118  CA        27.0680  -27.3670  -17.4340 C.3    94  GLU94       0.1733
    119  C         27.9380  -28.5580  -17.7740 C.2    94  GLU94       0.2616
    120  O         29.1320  -28.5560  -17.4650 O.2    94  GLU94      -0.2715
    121  CB        27.5420  -26.1410  -18.2050 C.3    94  GLU94       0.0429
    122  CG        27.3220  -26.2240  -19.7120 C.3    94  GLU94       0.1163
    123  CD        28.0530  -25.1380  -20.4840 C.2    94  GLU94       0.3649
    124  OE1       28.0950  -25.2480  -21.7230 O.co2  94  GLU94      -0.2457
    125  OE2       28.5870  -24.1800  -19.8750 O.co2  94  GLU94      -0.2457
    126  N         27.3480  -29.5780  -18.3960 N.am   95  LEU95      -0.1963
    127  CA        28.1410  -30.7020  -18.8860 C.3    95  LEU95       0.1728
    128  C         28.9970  -30.2510  -20.0730 C.2    95  LEU95       0.2616
    129  O         28.4870  -29.6780  -21.0330 O.2    95  LEU95      -0.2715
    130  CB        27.2520  -31.8790  -19.3070 C.3    95  LEU95       0.0311
    131  CG        28.0180  -33.1300  -19.7560 C.3    95  LEU95       0.0022
    132  CD1       28.9850  -33.5800  -18.6760 C.3    95  LEU95       0.0001
    133  CD2       27.0720  -34.2690  -20.1120 C.3    95  LEU95       0.0001
    134  N         30.2930  -30.5200  -20.0010 N.am   96  CYS96      -0.1954
    135  CA        31.2140  -30.1400  -21.0630 C.3    96  CYS96       0.1843
    136  C         31.7540  -31.4230  -21.6570 C.2    96  CYS96       0.2625
    137  O         32.6840  -32.0330  -21.1230 O.2    96  CYS96      -0.2714
    138  CB        32.3210  -29.2480  -20.5120 C.3    96  CYS96       0.0997
    139  SG        31.6630  -27.7320  -19.8020 S.3    96  CYS96      -0.0797
    140  N         31.1590  -31.8270  -22.7750 N.am   97  ARG97      -0.1977
    141  CA        31.2650  -33.2090  -23.2150 C.3    97  ARG97       0.1597
    142  C         32.6290  -33.5890  -23.7760 C.2    97  ARG97       0.2287
    143  O         32.9320  -34.7700  -23.8550 O.2    97  ARG97      -0.2864
    144  CB        30.1560  -33.5350  -24.2050 C.3    97  ARG97       0.0334
    145  CG        28.7650  -33.4600  -23.6010 C.3    97  ARG97       0.0492
    146  CD        27.7220  -33.7730  -24.6570 C.3    97  ARG97       0.2205
    147  NE        26.3980  -34.0650  -24.1090 N.pl3  97  ARG97      -0.0865
    148  CZ        26.0620  -35.1850  -23.4690 C.cat  97  ARG97       0.5346
    149  NH1       26.9540  -36.1430  -23.2310 N.pl3  97  ARG97       0.1354
    150  NH2       24.8160  -35.3380  -23.0370 N.pl3  97  ARG97       0.1354
    151  N         35.4310  -32.5790  -22.2980 N.3    99  ARG99      -0.1245
    152  CA        36.3720  -32.5450  -21.1910 C.3    99  ARG99       0.1563
    153  C         37.1010  -31.2000  -21.1290 C.2    99  ARG99       0.2260
    154  O         36.4640  -30.1720  -21.2700 O.2    99  ARG99      -0.2867
    155  CB        37.3090  -33.7620  -21.2790 C.3    99  ARG99       0.0307
    156  CG        36.5340  -35.0520  -21.5570 C.3    99  ARG99       0.0489
    157  CD        37.3870  -36.3020  -21.4200 C.3    99  ARG99       0.2205
    158  NE        37.8690  -36.4870  -20.0570 N.pl3  99  ARG99      -0.0865
    159  CZ        38.6460  -37.4930  -19.6690 C.cat  99  ARG99       0.5346
    160  NH1       39.0210  -38.4200  -20.5340 N.pl3  99  ARG99       0.1354
    161  NH2       39.0410  -37.5820  -18.4070 N.pl3  99  ARG99       0.1354
    162  N         43.1130  -27.9000  -16.8750 N.3   143  GLY143     -0.1225
    163  CA        42.0620  -28.7420  -16.3160 C.3   143  GLY143      0.1811
    164  C         40.8010  -27.9690  -16.0050 C.2   143  GLY143      0.2280
    165  O         39.7330  -28.5470  -15.9160 O.2   143  GLY143     -0.2866
    166  N         37.2570  -26.0200  -19.7310 N.3   146  PHE146     -0.1241
    167  CA        36.4850  -27.1320  -20.2480 C.3   146  PHE146      0.1605
    168  C         36.0590  -26.8690  -21.6930 C.2   146  PHE146      0.2264
    169  O         36.0320  -25.7300  -22.1590 O.2   146  PHE146     -0.2867
    170  CB        35.2730  -27.3770  -19.3430 C.3   146  PHE146      0.0534
    171  CG        35.6480  -27.7940  -17.9540 C.ar  146  PHE146     -0.0203
    172  CD1       35.7950  -26.8650  -16.9520 C.ar  146  PHE146     -0.0042
    173  CD2       35.9120  -29.1130  -17.6730 C.ar  146  PHE146     -0.0042
    174  CE1       36.1550  -27.2450  -15.6730 C.ar  146  PHE146     -0.0003
    175  CE2       36.2840  -29.5120  -16.4050 C.ar  146  PHE146     -0.0003
    176  CZ        36.3940  -28.5750  -15.4020 C.ar  146  PHE146     -0.0000
    177  N         35.6540  -24.4370  -12.3610 N.3   157  ASP157     -0.1239
    178  CA        36.2470  -24.5530  -11.0340 C.3   157  ASP157      0.1674
    179  C         36.5530  -23.2310  -10.3560 C.2   157  ASP157      0.2266
    180  O         37.6620  -22.6890  -10.4340 O.2   157  ASP157     -0.2867
    181  CB        37.4750  -25.4500  -11.0470 C.3   157  ASP157      0.1410
    182  CG        37.8040  -26.0000   -9.6630 C.2   157  ASP157      0.3668
    183  OD1       37.2700  -25.4700   -8.6480 O.co2 157  ASP157     -0.2456
    184  OD2       38.6000  -26.9710   -9.6080 O.co2 157  ASP157     -0.2456
@<TRIPOS>BOND
     1   146   147    1
     2   146   145    1
     3   144   145    1
     4   144   141    1
     5   147   148    2
     6   143   142    2
     7   142   141    1
     8   148   149    1
     9   148   150    1
    10   141   140    1
    11   140   136   am
    12   151   152    1
    13   169   168    2
    14   124   123   ar
    15   168   167    1
    16   136   137    2
    17   136   135    1
    18   156   157    1
    19   156   155    1
    20   157   158    1
    21   155   152    1
    22   154   153    2
    23   152   153    1
    24   135   138    1
    25   135   134    1
    26   129   128    2
    27   160   159    1
    28   138   139    1
    29   123   125   ar
    30   123   122    1
    31    72    71   ar
    32   167   166    1
    33   167   170    1
    34   133   131    1
    35   128   134   am
    36   128   127    1
    37   158   159    2
    38    10     9    1
    39   131   130    1
    40   131   132    1
    41   122   121    1
    42   159   161    1
    43     9    11    1
    44     9     8    2
    45   170   171    1
    46   130   127    1
    47    71    73   ar
    48    71    70    1
    49     7     8    1
    50     7     6    1
    51   127   126    1
    52   126   119   am
    53   121   118    1
    54    70    69    1
    55   171   173   ar
    56   171   172   ar
    57   119   120    2
    58   119   118    1
    59     6     5    1
    60   173   175   ar
    61   118   117    1
    62   102   103    1
    63   103   104    1
    64   103   106    1
    65   172   174   ar
    66    30    28    1
    67   162   163    1
    68    69    66    1
    69   108   106    1
    70   104   105    2
    71     5     2    1
    72   175   176   ar
    73   163   164    1
    74   106   107    1
    75   117   111   am
    76   164   165    2
    77    29    28    1
    78   174   176   ar
    79    28    27    1
    80    66    67    1
    81    66    65    1
    82    74    75    1
    83   112   111    2
    84     1     2    1
    85    78    75    1
    86     2     3    1
    87   111   110    1
    88    15    14    2
    89    27    24    1
    90    26    25    2
    91    67    68    2
    92     4     3    2
    93    75    76    1
    94    24    25    1
    95    24    23    1
    96    65    56   am
    97     3    12   am
    98    25    31   am
    99    14    23   am
   100    14    13    1
   101    12    13    1
   102   110   113    1
   103   110   109    1
   104    56    57    2
   105    56    55    1
   106    76    77    2
   107    76    79   am
   108   113   114    1
   109    13    16    1
   110   101   100   ar
   111   101    99   ar
   112    31    32    1
   113    79    80    1
   114    55    54    1
   115    55    58    1
   116   100    98   ar
   117   177   178    1
   118    16    17    1
   119    32    33    1
   120    99    97   ar
   121   116   114    1
   122   114   115    1
   123    54    50   am
   124    51    50    2
   125    58    59    1
   126    19    17   ar
   127    19    21   ar
   128    17    18   ar
   129    50    49    1
   130    52    49    1
   131    52    53    1
   132    95    94    2
   133    80    81    1
   134    98    97   ar
   135   181   178    1
   136   181   182    1
   137   178   179    1
   138    97    96    1
   139    33    34    2
   140    33    35   am
   141    21    22   ar
   142    61    59   ar
   143    61    63   ar
   144    49    48    1
   145    59    60   ar
   146   180   179    2
   147    82    81    2
   148    18    20   ar
   149    81    83   am
   150    35    36    1
   151    94    93    1
   152    22    20   ar
   153   182   184   ar
   154   182   183   ar
   155    93    96    1
   156    93    92    1
   157    63    64   ar
   158    83    84    1
   159    60    62   ar
   160    44    45    1
   161    44    37   am
   162    45    46    1
   163    36    37    1
   164    36    39    1
   165    37    38    2
   166    87    84    1
   167    87    88    1
   168    84    85    1
   169    64    62   ar
   170    91    90    1
   171    39    40    1
   172    89    88    1
   173    89    90    1
   174    46    47    2
   175    85    86    2
   176    40    41    1
   177    41    42    1
   178    42    43    1
