@<TRIPOS>MOLECULE
tmp/4j54A00.pdb
 100 94 0 0 0
SMALL
GASTEIGER

@<TRIPOS>ATOM
      1  N         -6.8870    1.6870   41.8010 N.3    23  LEU23      -0.1245
      2  CA        -6.2200    1.2060   40.5790 C.3    23  LEU23       0.1561
      3  C         -4.9320    0.4830   40.8980 C.2    23  LEU23       0.2260
      4  O         -4.0810    1.0710   41.5660 O.2    23  LEU23      -0.2867
      5  CB        -5.9500    2.4190   39.7020 C.3    23  LEU23       0.0270
      6  CG        -5.3190    2.1850   38.3220 C.3    23  LEU23       0.0019
      7  CD1       -6.2730    1.3930   37.4490 C.3    23  LEU23       0.0001
      8  CD2       -4.9690    3.5270   37.6940 C.3    23  LEU23       0.0001
      9  N         -1.4540   -0.1360   40.3340 N.3    25  ASP25      -0.1239
     10  CA        -0.6250    0.7910   39.5570 C.3    25  ASP25       0.1674
     11  C          0.8520    0.4760   39.7330 C.2    25  ASP25       0.2266
     12  O          1.5060    0.9160   40.6720 O.2    25  ASP25      -0.2867
     13  CB        -0.9520    2.2160   39.9900 C.3    25  ASP25       0.1410
     14  CG        -0.2190    3.2870   39.2150 C.2    25  ASP25       0.3668
     15  OD1        0.6580    2.9240   38.3970 O.co2  25  ASP25      -0.2456
     16  OD2       -0.5340    4.4830   39.4090 O.co2  25  ASP25      -0.2456
     17  N          3.3250    1.4500   38.2030 N.3    27  GLY27      -0.1210
     18  CA         4.2550    2.5840   38.1490 C.3    27  GLY27       0.1956
     19  C          4.1980    3.4830   39.3670 C.2    27  GLY27       0.2612
     20  O          4.8720    4.5310   39.3690 O.2    27  GLY27      -0.2717
     21  N          3.4520    3.0980   40.3960 N.am   28  ALA28      -0.1965
     22  CA         3.3720    3.8720   41.6300 C.3    28  ALA28       0.1728
     23  C          4.1310    3.1910   42.7490 C.2    28  ALA28       0.2616
     24  O          3.9030    2.0120   43.0410 O.2    28  ALA28      -0.2715
     25  CB         1.9330    4.0780   42.0940 C.3    28  ALA28       0.0334
     26  N          5.0240    3.9370   43.3920 N.am   29  ASP29      -0.1957
     27  CA         5.6900    3.3300   44.5470 C.3    29  ASP29       0.1840
     28  C          4.7560    3.2970   45.7590 C.2    29  ASP29       0.2622
     29  O          4.9200    2.4100   46.5950 O.2    29  ASP29      -0.2715
     30  CB         6.9350    4.1110   44.9520 C.3    29  ASP29       0.1450
     31  CG         7.9840    4.3730   43.9050 C.2    29  ASP29       0.3671
     32  OD1        7.9610    3.8000   42.8000 O.co2  29  ASP29      -0.2456
     33  OD2        8.8920    5.1950   44.2000 O.co2  29  ASP29      -0.2456
     34  N          3.8170    4.2270   45.8690 N.am   30  ASN30      -0.1972
     35  CA         2.9950    4.4060   47.0520 C.3    30  ASN30       0.1688
     36  C          1.5150    4.1340   46.8040 C.2    30  ASN30       0.2292
     37  O          1.0040    4.2190   45.6970 O.2    30  ASN30      -0.2864
     38  CB         3.1230    5.8410   47.6050 C.3    30  ASN30       0.1181
     39  CG         4.5680    6.2490   47.7960 C.2    30  ASN30       0.2629
     40  OD1        5.2660    5.7350   48.6740 O.2    30  ASN30      -0.2716
     41  ND2        5.0640    7.1510   46.9650 N.am   30  ASN30      -0.0877
     42  N         -2.2220    5.4230   47.6340 N.3    32  ILE32      -0.1245
     43  CA        -2.7810    6.7390   47.9120 C.3    32  ILE32       0.1561
     44  C         -4.2760    6.7630   47.6130 C.2    32  ILE32       0.2260
     45  O         -4.6240    6.3780   46.4890 O.2    32  ILE32      -0.2867
     46  CB        -2.1200    7.8260   47.0490 C.3    32  ILE32       0.0252
     47  CG1       -0.6130    7.7060   46.8750 C.3    32  ILE32       0.0019
     48  CG2       -2.4680    9.2190   47.5770 C.3    32  ILE32       0.0019
     49  CD1       -0.1000    8.7800   45.9250 C.3    32  ILE32       0.0001
     50  N          4.7570   13.6690   47.7780 N.3    47  VAL47      -0.1231
     51  CA         4.7740   12.6420   46.7330 C.3    47  VAL47       0.1692
     52  C          4.8300   13.3070   45.3640 C.2    47  VAL47       0.2593
     53  O          4.2100   14.3450   45.1330 O.2    47  VAL47      -0.2718
     54  CB         3.5610   11.7040   46.8340 C.3    47  VAL47       0.0266
     55  CG1        3.5580   11.0090   48.1910 C.3    47  VAL47       0.0020
     56  CG2        2.2720   12.4700   46.6160 C.3    47  VAL47       0.0020
     57  N          5.6100   12.7030   44.4770 N.am   48  GLY48      -0.1942
     58  CA         5.7460   13.1670   43.1190 C.3    48  GLY48       0.2014
     59  C          4.7280   12.5590   42.1670 C.2    48  GLY48       0.2639
     60  O          3.9280   11.6890   42.4780 O.2    48  GLY48      -0.2714
     61  N          4.7510   13.0600   40.9360 N.am   49  GLY49      -0.1939
     62  CA         3.9310   12.5350   39.8690 C.3    49  GLY49       0.2014
     63  C          4.2620   13.2820   38.5850 C.2    49  GLY49       0.2638
     64  O          5.1440   14.1430   38.5650 O.2    49  GLY49      -0.2714
     65  N          3.5110   12.9240   37.5510 N.am   50  ILE50      -0.1977
     66  CA         3.8260   13.4820   36.2380 C.3    50  ILE50       0.1596
     67  C          3.7580   14.9980   36.2890 C.2    50  ILE50       0.2287
     68  O          4.5510   15.6700   35.6050 O.2    50  ILE50      -0.2864
     69  CB         2.8910   12.8600   35.1830 C.3    50  ILE50       0.0276
     70  CG1        3.4710   12.9910   33.7620 C.3    50  ILE50       0.0022
     71  CG2        1.4580   13.3610   35.2480 C.3    50  ILE50       0.0022
     72  CD1        3.2170   11.7320   32.9630 C.3    50  ILE50       0.0001
     73  N         -4.7240   12.7710   44.7650 N.3    80  THR80      -0.1204
     74  CA        -4.5140   11.9930   43.5380 C.3    80  THR80       0.1979
     75  C         -5.8260   11.9630   42.7800 C.2    80  THR80       0.2460
     76  O         -6.9130   11.9280   43.3680 O.2    80  THR80      -0.2732
     77  CB        -4.0490   10.5790   43.8940 C.3    80  THR80       0.1783
     78  OG1       -4.0570    9.7690   42.7240 O.3    80  THR80      -0.2211
     79  CG2       -5.0550    9.9340   44.8350 C.3    80  THR80       0.0376
     80  N         -5.8120   12.0170   41.4490 N.am   81  PRO81      -0.2717
     81  CA        -7.0820   11.9700   40.7000 C.3    81  PRO81       0.1535
     82  C         -7.7600   10.6130   40.6390 C.2    81  PRO81       0.2598
     83  O         -8.9100   10.4940   40.1900 O.2    81  PRO81      -0.2715
     84  CB        -6.6260   12.3900   39.2990 C.3    81  PRO81       0.0310
     85  CG        -5.1750   12.0540   39.2130 C.3    81  PRO81       0.0237
     86  CD        -4.6310   12.1850   40.6100 C.3    81  PRO81       0.0939
     87  N         -7.0770    9.5680   41.1010 N.am   82  VAL82      -0.1978
     88  CA        -7.6680    8.2430   41.2440 C.3    82  VAL82       0.1596
     89  C         -6.9510    7.5160   42.3940 C.2    82  VAL82       0.2287
     90  O         -5.7520    7.6720   42.5930 O.2    82  VAL82      -0.2864
     91  CB        -7.5840    7.3740   39.9940 C.3    82  VAL82       0.0276
     92  CG1       -6.1490    7.0560   39.6040 C.3    82  VAL82       0.0022
     93  CG2       -8.3500    6.0620   40.2150 C.3    82  VAL82       0.0022
     94  N         -4.9270    4.8010   44.1030 N.3    84  VAL84      -0.1245
     95  CA        -3.9420    3.8680   43.5180 C.3    84  VAL84       0.1561
     96  C         -3.3580    2.9720   44.5970 C.2    84  VAL84       0.2260
     97  O         -3.0770    3.3720   45.7290 O.2    84  VAL84      -0.2867
     98  CB        -2.8280    4.6000   42.7690 C.3    84  VAL84       0.0252
     99  CG1       -3.4140    5.4750   41.6650 C.3    84  VAL84       0.0019
    100  CG2       -1.9790    5.4840   43.6630 C.3    84  VAL84       0.0019
@<TRIPOS>BOND
     1    72    70    1
     2    70    69    1
     3    69    71    1
     4    69    66    1
     5    68    67    2
     6    66    67    1
     7    66    65    1
     8     7     6    1
     9    65    63   am
    10     8     6    1
    11    18    17    1
    12    18    19    1
    13     6     5    1
    14    15    14   ar
    15    64    63    2
    16    63    62    1
    17    85    84    1
    18    85    86    1
    19    14    16   ar
    20    14    13    1
    21    84    81    1
    22    19    20    2
    23    19    21   am
    24    10    11    1
    25    10    13    1
    26    10     9    1
    27    92    91    1
    28     5     2    1
    29    11    12    2
    30    62    61    1
    31    91    93    1
    32    91    88    1
    33    83    82    2
    34    21    22    1
    35     2     3    1
    36     2     1    1
    37    86    80    1
    38    82    81    1
    39    82    87   am
    40    81    80    1
    41     3     4    2
    42    61    59   am
    43    87    88    1
    44    88    89    1
    45    80    75   am
    46    22    25    1
    47    22    23    1
    48    99    98    1
    49    59    60    2
    50    59    58    1
    51    89    90    2
    52    78    77    1
    53    23    24    2
    54    23    26   am
    55    98    95    1
    56    98   100    1
    57    75    76    2
    58    75    74    1
    59    32    31   ar
    60    58    57    1
    61    26    27    1
    62    95    94    1
    63    95    96    1
    64    74    77    1
    65    74    73    1
    66    77    79    1
    67    31    33   ar
    68    31    30    1
    69    57    52   am
    70    27    30    1
    71    27    28    1
    72    96    97    2
    73    53    52    2
    74    52    51    1
    75    37    36    2
    76    28    34   am
    77    28    29    2
    78    34    35    1
    79    49    47    1
    80    45    44    2
    81    56    54    1
    82    51    54    1
    83    51    50    1
    84    36    35    1
    85    54    55    1
    86    47    46    1
    87    41    39   am
    88    46    48    1
    89    46    43    1
    90    35    38    1
    91    38    39    1
    92    44    43    1
    93    42    43    1
    94    39    40    2
