@<TRIPOS>MOLECULE
tmp/4j55B00.pdb
 136 126 0 0 0
SMALL
GASTEIGER

@<TRIPOS>ATOM
      1  N        -23.1610    0.3830   13.5340 N.3     8  ARG8       -0.1245
      2  CA       -22.3880    0.0860   12.3310 C.3     8  ARG8        0.1563
      3  C        -22.5220    1.1830   11.2880 C.2     8  ARG8        0.2260
      4  O        -23.6430    1.6270   11.0370 O.2     8  ARG8       -0.2867
      5  CB       -22.8970   -1.2220   11.7010 C.3     8  ARG8        0.0307
      6  CG       -22.5790   -2.4200   12.5990 C.3     8  ARG8        0.0489
      7  CD       -23.2370   -3.6980   12.0440 C.3     8  ARG8        0.2205
      8  NE       -22.9960   -4.7550   13.0450 N.pl3   8  ARG8       -0.0865
      9  CZ       -24.0110   -5.1700   13.8300 C.cat   8  ARG8        0.5346
     10  NH1      -25.2060   -4.6180   13.6900 N.pl3   8  ARG8        0.1354
     11  NH2      -23.8120   -6.1150   14.7330 N.pl3   8  ARG8        0.1354
     12  N        -21.0070   -1.1450    4.7060 N.3    23  LEU23      -0.1245
     13  CA       -20.2900   -0.5830    5.8150 C.3    23  LEU23       0.1561
     14  C        -19.0620    0.1730    5.3520 C.2    23  LEU23       0.2260
     15  O        -18.2570   -0.3660    4.6060 O.2    23  LEU23      -0.2867
     16  CB       -19.6460   -1.6810    6.6460 C.3    23  LEU23       0.0270
     17  CG       -20.4870   -2.5220    7.5300 C.3    23  LEU23       0.0019
     18  CD1      -19.6290   -3.4880    8.3760 C.3    23  LEU23       0.0001
     19  CD2      -21.2970   -1.6660    8.4670 C.3    23  LEU23       0.0001
     20  N        -15.6690    0.6940    5.9420 N.3    25  ASP25      -0.1239
     21  CA       -14.7810   -0.1340    6.7200 C.3    25  ASP25       0.1674
     22  C        -13.2870    0.1310    6.5240 C.2    25  ASP25       0.2266
     23  O        -12.6510   -0.3320    5.5950 O.2    25  ASP25      -0.2867
     24  CB       -15.0750   -1.5610    6.2950 C.3    25  ASP25       0.1410
     25  CG       -14.4480   -2.5540    7.2170 C.2    25  ASP25       0.3668
     26  OD1      -13.6630   -2.1030    8.1130 O.co2  25  ASP25      -0.2456
     27  OD2      -14.7530   -3.7730    7.0770 O.co2  25  ASP25      -0.2456
     28  N        -10.9630   -1.1470    8.0710 N.3    27  GLY27      -0.1210
     29  CA       -10.1330   -2.3390    8.1450 C.3    27  GLY27       0.1956
     30  C        -10.1580   -3.1720    6.8760 C.2    27  GLY27       0.2612
     31  O         -9.5140   -4.2270    6.8400 O.2    27  GLY27      -0.2717
     32  N        -10.8860   -2.7470    5.8490 N.am   28  ALA28      -0.1965
     33  CA       -11.0310   -3.4870    4.5990 C.3    28  ALA28       0.1728
     34  C        -10.1510   -2.8810    3.5190 C.2    28  ALA28       0.2616
     35  O        -10.3070   -1.6840    3.2290 O.2    28  ALA28      -0.2715
     36  CB       -12.4990   -3.4130    4.1300 C.3    28  ALA28       0.0334
     37  N         -9.2670   -3.6410    2.9030 N.am   29  ASP29      -0.1957
     38  CA        -8.4600   -3.1270    1.8390 C.3    29  ASP29       0.1840
     39  C         -9.2760   -2.8020    0.5840 C.2    29  ASP29       0.2622
     40  O         -9.0000   -1.8070   -0.0840 O.2    29  ASP29      -0.2715
     41  CB        -7.3880   -4.1720    1.4600 C.3    29  ASP29       0.1450
     42  CG        -6.2950   -4.3850    2.5060 C.2    29  ASP29       0.3671
     43  OD1       -6.1030   -3.6100    3.4590 O.co2  29  ASP29      -0.2456
     44  OD2       -5.5920   -5.4000    2.3340 O.co2  29  ASP29      -0.2456
     45  N        -10.2630   -3.6400    0.2860 N.am   30  ASN30      -0.1972
     46  CA       -11.0740   -3.5390   -0.9070 C.3    30  ASN30       0.1688
     47  C        -12.5720   -3.5540   -0.5520 C.2    30  ASN30       0.2292
     48  O        -12.9640   -3.9570    0.5240 O.2    30  ASN30      -0.2864
     49  CB       -10.7850   -4.7120   -1.8360 C.3    30  ASN30       0.1181
     50  CG        -9.3520   -4.7290   -2.3250 C.2    30  ASN30       0.2629
     51  OD1       -8.6940   -5.7430   -2.2260 O.2    30  ASN30      -0.2716
     52  ND2       -8.8710   -3.6160   -2.8840 N.am   30  ASN30      -0.0877
     53  N        -16.2580   -4.9770   -1.1170 N.3    32  ILE32      -0.1245
     54  CA       -16.8320   -6.3060   -1.3960 C.3    32  ILE32       0.1561
     55  C        -18.3410   -6.2900   -1.1870 C.2    32  ILE32       0.2260
     56  O        -18.7930   -5.8210   -0.1250 O.2    32  ILE32      -0.2867
     57  CB       -16.2120   -7.3950   -0.4970 C.3    32  ILE32       0.0252
     58  CG1      -14.7120   -7.2700   -0.3480 C.3    32  ILE32       0.0019
     59  CG2      -16.6090   -8.7730   -1.0470 C.3    32  ILE32       0.0019
     60  CD1      -13.9430   -8.3420    0.3860 C.3    32  ILE32       0.0001
     61  N        -10.2750  -14.0610   -7.4410 N.3    45  LYS45      -0.1245
     62  CA        -9.3760  -13.5450   -6.4240 C.3    45  LYS45       0.1561
     63  C         -9.6500  -14.2590   -5.1220 C.2    45  LYS45       0.2260
     64  O        -10.7840  -14.6400   -4.9100 O.2    45  LYS45      -0.2867
     65  CB        -9.6450  -12.0330   -6.2990 C.3    45  LYS45       0.0271
     66  CG        -8.6130  -11.2560   -5.5110 C.3    45  LYS45       0.0035
     67  CD        -8.8520   -9.7730   -5.5050 C.3    45  LYS45       0.0206
     68  CE        -8.2470   -9.0390   -4.3250 C.3    45  LYS45       0.1093
     69  NZ        -6.7930   -9.3090   -4.1560 N.3    45  LYS45      -0.1314
     70  N         -9.5060  -13.8270   -0.9470 N.3    47  VAL47      -0.1231
     71  CA        -9.3080  -12.8520    0.1250 C.3    47  VAL47       0.1692
     72  C         -9.4810  -13.5640    1.4540 C.2    47  VAL47       0.2593
     73  O         -9.9810  -14.6870    1.5000 O.2    47  VAL47      -0.2718
     74  CB       -10.3090  -11.6830    0.0550 C.3    47  VAL47       0.0266
     75  CG1      -10.1540  -10.9010   -1.2360 C.3    47  VAL47       0.0020
     76  CG2      -11.7400  -12.1860    0.2440 C.3    47  VAL47       0.0020
     77  N         -9.0610  -12.9340    2.5340 N.am   48  GLY48      -0.1942
     78  CA        -8.9730  -13.5660    3.8360 C.3    48  GLY48       0.2014
     79  C         -9.2590  -12.5840    4.9490 C.2    48  GLY48       0.2639
     80  O         -9.0300  -11.3840    4.8310 O.2    48  GLY48      -0.2714
     81  N         -9.8210  -13.1180    6.0240 N.am   49  GLY49      -0.1939
     82  CA       -10.0070  -12.2880    7.2140 C.3    49  GLY49       0.2014
     83  C        -10.2660  -13.1900    8.4010 C.2    49  GLY49       0.2638
     84  O         -9.8720  -14.3750    8.4570 O.2    49  GLY49      -0.2714
     85  N        -10.9550  -12.6250    9.3900 N.am   50  ILE50      -0.1977
     86  CA       -11.2700  -13.4520   10.5480 C.3    50  ILE50       0.1596
     87  C        -12.1350  -14.6150   10.0820 C.2    50  ILE50       0.2287
     88  O        -13.1100  -14.4800    9.3370 O.2    50  ILE50      -0.2864
     89  CB       -11.9150  -12.6070   11.6770 C.3    50  ILE50       0.0276
     90  CG1      -10.8620  -11.7010   12.3120 C.3    50  ILE50       0.0022
     91  CG2      -12.6340  -13.4210   12.7330 C.3    50  ILE50       0.0022
     92  CD1      -11.3330  -10.4430   12.9650 C.3    50  ILE50       0.0001
     93  N        -12.1180  -16.6170    1.3440 N.3    54  LEU54      -0.1245
     94  CA       -13.2120  -16.7890    0.3920 C.3    54  LEU54       0.1561
     95  C        -12.6640  -16.4510   -1.0020 C.2    54  LEU54       0.2260
     96  O        -11.7180  -15.6900   -1.1550 O.2    54  LEU54      -0.2867
     97  CB       -14.4360  -15.9390    0.5410 C.3    54  LEU54       0.0270
     98  CG       -14.9000  -14.9730    1.5680 C.3    54  LEU54       0.0019
     99  CD1      -13.7420  -14.2890    2.2930 C.3    54  LEU54       0.0001
    100  CD2      -15.7700  -13.8920    0.9360 C.3    54  LEU54       0.0001
    101  N        -15.1770   -6.1190   -5.5940 N.3    76  LEU76      -0.1245
    102  CA       -15.1940   -7.5690   -5.4580 C.3    76  LEU76       0.1561
    103  C        -16.6180   -8.0200   -5.1730 C.2    76  LEU76       0.2260
    104  O        -17.3320   -7.3560   -4.3960 O.2    76  LEU76      -0.2867
    105  CB       -14.2980   -8.0130   -4.2900 C.3    76  LEU76       0.0270
    106  CG       -12.8770   -7.4720   -4.4080 C.3    76  LEU76       0.0019
    107  CD1      -11.9820   -8.0000   -3.3040 C.3    76  LEU76       0.0001
    108  CD2      -12.2760   -7.8060   -5.7880 C.3    76  LEU76       0.0001
    109  N        -19.5520  -12.5910    1.0580 N.3    80  THR80      -0.1204
    110  CA       -19.3220  -11.8550    2.3140 C.3    80  THR80       0.1979
    111  C        -20.6510  -11.7380    3.0600 C.2    80  THR80       0.2460
    112  O        -21.6640  -11.5480    2.3710 O.2    80  THR80      -0.2732
    113  CB       -18.7600  -10.4550    2.0610 C.3    80  THR80       0.1783
    114  OG1      -18.6990   -9.7520    3.3180 O.3    80  THR80      -0.2211
    115  CG2      -19.6120   -9.5700    1.1420 C.3    80  THR80       0.0376
    116  N        -20.6530  -11.8700    4.3770 N.am   81  PRO81      -0.2717
    117  CA       -21.8870  -11.7280    5.1600 C.3    81  PRO81       0.1535
    118  C        -22.4550  -10.3200    5.1750 C.2    81  PRO81       0.2598
    119  O        -23.6330  -10.1010    5.5140 O.2    81  PRO81      -0.2715
    120  CB       -21.4590  -12.0940    6.5810 C.3    81  PRO81       0.0310
    121  CG       -20.1170  -12.7320    6.4800 C.3    81  PRO81       0.0237
    122  CD       -19.4870  -12.2630    5.1980 C.3    81  PRO81       0.0939
    123  N        -21.6200   -9.3290    4.8600 N.am   82  VAL82      -0.1978
    124  CA       -22.0110   -7.9170    4.9200 C.3    82  VAL82       0.1596
    125  C        -21.2110   -7.1840    3.8650 C.2    82  VAL82       0.2287
    126  O        -20.0000   -7.4240    3.6840 O.2    82  VAL82      -0.2864
    127  CB       -21.7290   -7.2770    6.2870 C.3    82  VAL82       0.0276
    128  CG1      -20.2300   -7.2400    6.5390 C.3    82  VAL82       0.0022
    129  CG2      -22.2870   -5.8660    6.4180 C.3    82  VAL82       0.0022
    130  N        -19.0580   -4.2980    2.3000 N.3    84  VAL84      -0.1245
    131  CA       -18.1220   -3.3490    2.8830 C.3    84  VAL84       0.1561
    132  C        -17.5400   -2.4710    1.7870 C.2    84  VAL84       0.2260
    133  O        -17.2630   -2.9360    0.6680 O.2    84  VAL84      -0.2867
    134  CB       -16.9380   -4.0190    3.6530 C.3    84  VAL84       0.0252
    135  CG1      -17.4510   -4.8230    4.8420 C.3    84  VAL84       0.0019
    136  CG2      -16.1110   -4.8930    2.7310 C.3    84  VAL84       0.0019
@<TRIPOS>BOND
     1    61    62    1
     2    62    65    1
     3    62    63    1
     4    65    66    1
     5   108   106    1
     6   101   102    1
     7    66    67    1
     8    67    68    1
     9   102   103    1
    10   102   105    1
    11   103   104    2
    12    63    64    2
    13   106   105    1
    14   106   107    1
    15    68    69    1
    16    52    50   am
    17    50    51    2
    18    50    49    1
    19    49    46    1
    20    54    55    1
    21    54    53    1
    22    54    57    1
    23    75    74    1
    24    55    56    2
    25    96    95    2
    26    59    57    1
    27    95    94    1
    28    70    71    1
    29    46    47    1
    30    46    45    1
    31    47    48    2
    32    57    58    1
    33    58    60    1
    34    40    39    2
    35    74    71    1
    36    74    76    1
    37    71    72    1
    38    45    39   am
    39    94    97    1
    40    94    93    1
    41    97    98    1
    42    39    38    1
    43   133   132    2
    44   100    98    1
    45   109   110    1
    46   115   113    1
    47    72    73    2
    48    72    77   am
    49    41    38    1
    50    41    42    1
    51    98    99    1
    52   132   131    1
    53    38    37    1
    54   113   110    1
    55   113   114    1
    56   130   131    1
    57   110   111    1
    58    44    42   ar
    59   112   111    2
    60    42    43   ar
    61    77    78    1
    62   136   134    1
    63   131   134    1
    64    37    34   am
    65   111   116   am
    66    35    34    2
    67    34    33    1
    68   134   135    1
    69   126   125    2
    70    78    79    1
    71   125   124    1
    72    36    33    1
    73   116   117    1
    74   116   122    1
    75    33    32    1
    76    15    14    2
    77    12    13    1
    78    80    79    2
    79   123   124    1
    80   123   118   am
    81   124   127    1
    82    79    81   am
    83   117   118    1
    84   117   120    1
    85   118   119    2
    86   122   121    1
    87    14    13    1
    88    23    22    2
    89    13    16    1
    90    32    30   am
    91    20    21    1
    92    81    82    1
    93   127   129    1
    94   127   128    1
    95    24    21    1
    96    24    25    1
    97   121   120    1
    98    22    21    1
    99    16    17    1
   100    31    30    2
   101    30    29    1
   102    27    25   ar
   103    82    83    1
   104    25    26   ar
   105    17    18    1
   106    17    19    1
   107    28    29    1
   108    83    84    2
   109    83    85   am
   110    88    87    2
   111    85    86    1
   112    87    86    1
   113    86    89    1
   114     4     3    2
   115     3     2    1
   116    89    90    1
   117    89    91    1
   118     5     2    1
   119     5     6    1
   120     7     6    1
   121     7     8    1
   122    90    92    1
   123     2     1    1
   124     8     9    2
   125    10     9    1
   126     9    11    1
