@<TRIPOS>MOLECULE
tmp/4j58A00.pdb
 138 130 0 0 0
SMALL
GASTEIGER

@<TRIPOS>ATOM
      1  N          9.5510   13.2910   13.3040 N.3    54  ARG54      -0.1245
      2  CA         9.6930   14.5480   12.5980 C.3    54  ARG54       0.1563
      3  C         10.9410   15.2820   13.0320 C.2    54  ARG54       0.2260
      4  O         11.1920   15.4720   14.2200 O.2    54  ARG54      -0.2867
      5  CB         8.4200   15.4110   12.6000 C.3    54  ARG54       0.0307
      6  CG         7.9920   15.9900   13.9170 C.3    54  ARG54       0.0489
      7  CD         6.5780   16.5620   13.7950 C.3    54  ARG54       0.2205
      8  NE         6.4730   17.6250   12.7820 N.pl3  54  ARG54      -0.0865
      9  CZ         6.8290   18.8880   12.9960 C.cat  54  ARG54       0.5346
     10  NH1        7.3330   19.2410   14.1720 N.pl3  54  ARG54       0.1354
     11  NH2        6.6930   19.7930   12.0410 N.pl3  54  ARG54       0.1354
     12  N         16.7090   23.1470   13.5190 N.3    59  PHE59      -0.1227
     13  CA        15.6270   23.4190   14.4680 C.3    59  PHE59       0.1736
     14  C         15.6130   22.3670   15.5890 C.2    59  PHE59       0.2595
     15  O         16.0810   22.6440   16.6930 O.2    59  PHE59      -0.2718
     16  CB        14.2860   23.5240   13.7230 C.3    59  PHE59       0.0547
     17  CG        13.0850   23.8030   14.6070 C.ar   59  PHE59      -0.0202
     18  CD1       13.2180   24.2990   15.9040 C.ar   59  PHE59      -0.0042
     19  CD2       11.8110   23.5690   14.1230 C.ar   59  PHE59      -0.0042
     20  CE1       12.0960   24.5360   16.6910 C.ar   59  PHE59      -0.0003
     21  CE2       10.6900   23.8090   14.8960 C.ar   59  PHE59      -0.0003
     22  CZ        10.8300   24.2950   16.1770 C.ar   59  PHE59      -0.0000
     23  N         15.0850   21.1770   15.3130 N.am   60  MET60      -0.1979
     24  CA        14.9030   20.1910   16.3710 C.3    60  MET60       0.1605
     25  C         14.6050   18.7950   15.8370 C.2    60  MET60       0.2287
     26  O         14.2510   18.6190   14.6620 O.2    60  MET60      -0.2864
     27  CB        13.8020   20.6490   17.3440 C.3    60  MET60       0.0413
     28  CG        12.4170   20.8020   16.7190 C.3    60  MET60       0.0598
     29  SD        11.5000   19.2480   16.5950 S.3    60  MET60      -0.1393
     30  CE        10.8510   19.3740   14.9210 C.3    60  MET60       0.0692
     31  N         12.1660   15.5370   16.8700 N.3    62  GLN62      -0.1245
     32  CA        10.9830   15.2330   17.6940 C.3    62  GLN62       0.1566
     33  C         10.6660   13.7450   17.6860 C.2    62  GLN62       0.2260
     34  O         10.7630   13.0920   16.6440 O.2    62  GLN62      -0.2867
     35  CB         9.7750   16.0160   17.1560 C.3    62  GLN62       0.0367
     36  CG         8.5090   15.8910   17.9920 C.3    62  GLN62       0.0905
     37  CD         7.3830   16.7540   17.4400 C.2    62  GLN62       0.2608
     38  OE1        7.6250   17.7050   16.6940 O.2    62  GLN62      -0.2717
     39  NE2        6.1420   16.4280   17.8060 N.am   62  GLN62      -0.0878
     40  N          2.8190   10.7870   15.3080 N.3    71  GLY71      -0.1210
     41  CA         2.8910   12.1790   15.7300 C.3    71  GLY71       0.1956
     42  C          1.6040   12.7370   16.3180 C.2    71  GLY71       0.2613
     43  O          1.5440   13.8890   16.7350 O.2    71  GLY71      -0.2717
     44  N          0.5630   11.9130   16.3620 N.am   72  THR72      -0.1938
     45  CA        -0.6960   12.3530   16.9490 C.3    72  THR72       0.2028
     46  C         -0.8930   11.8300   18.3670 C.2    72  THR72       0.2642
     47  O         -1.8140   12.2710   19.0590 O.2    72  THR72      -0.2714
     48  CB        -1.9000   11.8580   16.1400 C.3    72  THR72       0.1808
     49  OG1       -1.8820   10.4240   16.1030 O.3    72  THR72      -0.2208
     50  CG2       -1.8820   12.4230   14.7210 C.3    72  THR72       0.0379
     51  N         -0.0470   10.8910   18.7920 N.am   73  GLY73      -0.1954
     52  CA        -0.3160   10.1340   20.0060 C.3    73  GLY73       0.1869
     53  C          0.7250   10.2190   21.1070 C.2    73  GLY73       0.2309
     54  O          1.4120   11.2340   21.2510 O.2    73  GLY73      -0.2863
     55  N         -2.7730   12.9480   29.2720 N.3    81  ARG81      -0.1245
     56  CA        -2.0680   14.2230   29.2120 C.3    81  ARG81       0.1563
     57  C         -1.8840   14.7530   30.6210 C.2    81  ARG81       0.2260
     58  O         -2.6040   14.3500   31.5450 O.2    81  ARG81      -0.2867
     59  CB        -2.8610   15.2530   28.4000 C.3    81  ARG81       0.0307
     60  CG        -3.2210   14.8250   26.9860 C.3    81  ARG81       0.0489
     61  CD        -2.0080   14.7960   26.0830 C.3    81  ARG81       0.2205
     62  NE        -2.3730   14.4270   24.7200 N.pl3  81  ARG81      -0.0865
     63  CZ        -2.2360   13.2070   24.2120 C.cat  81  ARG81       0.5346
     64  NH1       -1.7280   12.2290   24.9520 N.pl3  81  ARG81       0.1354
     65  NH2       -2.6010   12.9670   22.9620 N.pl3  81  ARG81       0.1354
     66  N          6.9520   18.2700   23.5760 N.3   100  ALA100     -0.1231
     67  CA         6.0790   18.6300   22.4690 C.3   100  ALA100      0.1694
     68  C          4.6630   18.7560   23.0190 C.2   100  ALA100      0.2592
     69  O          4.3690   18.2030   24.0800 O.2   100  ALA100     -0.2718
     70  CB         6.1390   17.5710   21.3900 C.3   100  ALA100      0.0304
     71  N          3.7960   19.4780   22.3190 N.am  101  ASN101     -0.1960
     72  CA         2.4250   19.5990   22.7870 C.3   101  ASN101      0.1819
     73  C          1.4830   20.0340   21.6730 C.2   101  ASN101      0.2621
     74  O          1.9200   20.3030   20.5440 O.2   101  ASN101     -0.2715
     75  CB         2.3240   20.4990   24.0400 C.3   101  ASN101      0.1195
     76  CG         2.6400   21.9630   23.7510 C.2   101  ASN101      0.2630
     77  OD1        2.1820   22.5230   22.7590 O.2   101  ASN101     -0.2716
     78  ND2        3.4030   22.5960   24.6400 N.am  101  ASN101     -0.0877
     79  N          0.1910   20.0740   21.9930 N.am  102  ALA102     -0.1977
     80  CA        -0.8350   20.5100   21.0510 C.3   102  ALA102      0.1597
     81  C         -1.5730   21.6910   21.6630 C.2   102  ALA102      0.2287
     82  O         -2.7860   21.8460   21.4910 O.2   102  ALA102     -0.2864
     83  CB        -1.7980   19.3600   20.7570 C.3   102  ALA102      0.0319
     84  N         -1.0840   19.9190   27.4120 N.3   106  THR106     -0.1218
     85  CA        -1.2680   18.7140   26.6080 C.3   106  THR106      0.1862
     86  C          0.0110   17.8970   26.4980 C.2   106  THR106      0.2287
     87  O          0.2710   17.2590   25.4780 O.2   106  THR106     -0.2866
     88  CB        -1.7930   19.0320   25.1930 C.3   106  THR106      0.1770
     89  OG1       -0.9140   19.9670   24.5450 O.3   106  THR106     -0.2211
     90  CG2       -3.2130   19.6040   25.2600 C.3   106  THR106      0.0375
     91  N          2.2210   14.7380   26.9090 N.3   108  GLY108     -0.1210
     92  CA         1.9620   13.3040   26.9780 C.3   108  GLY108      0.1956
     93  C          3.2850   12.5890   27.0940 C.2   108  GLY108      0.2613
     94  O          3.8730   12.5260   28.1780 O.2   108  GLY108     -0.2717
     95  N          3.7600   12.0750   25.9630 N.am  109  SER109     -0.1938
     96  CA         5.1000   11.4980   25.8740 C.3   109  SER109      0.2055
     97  C          5.9790   12.1460   24.8060 C.2   109  SER109      0.2642
     98  O          7.2040   12.0250   24.8710 O.2   109  SER109     -0.2714
     99  CB         5.0210    9.9940   25.6140 C.3   109  SER109      0.2130
    100  OG         4.2510    9.7190   24.4560 O.3   109  SER109     -0.2179
    101  N          5.3860   12.8110   23.8180 N.am  110  GLN110     -0.1976
    102  CA         6.2030   13.3880   22.7500 C.3   110  GLN110      0.1601
    103  C          7.1300   14.4680   23.2760 C.2   110  GLN110      0.2287
    104  O          6.7500   15.2700   24.1350 O.2   110  GLN110     -0.2864
    105  CB         5.3440   13.9310   21.6110 C.3   110  GLN110      0.0394
    106  CG         4.6930   12.8590   20.7680 C.3   110  GLN110      0.0908
    107  CD         4.0030   13.4530   19.5630 C.2   110  GLN110      0.2608
    108  OE1        4.6070   14.1900   18.7920 O.2   110  GLN110     -0.2717
    109  NE2        2.7120   13.1550   19.4100 N.am  110  GLN110     -0.0878
    110  N         11.0900   16.7920   22.2240 N.3   112  PHE112     -0.1241
    111  CA        12.0390   17.1760   21.1900 C.3   112  PHE112      0.1605
    112  C         13.3740   17.5720   21.7910 C.2   112  PHE112      0.2264
    113  O         13.4510   17.9680   22.9590 O.2   112  PHE112     -0.2867
    114  CB        11.4710   18.2600   20.2520 C.3   112  PHE112      0.0534
    115  CG        11.1300   19.5720   20.9290 C.ar  112  PHE112     -0.0203
    116  CD1        9.9530   19.7160   21.6620 C.ar  112  PHE112     -0.0042
    117  CD2       11.9540   20.6830   20.7760 C.ar  112  PHE112     -0.0042
    118  CE1        9.6300   20.9310   22.2570 C.ar  112  PHE112     -0.0003
    119  CE2       11.6270   21.9010   21.3700 C.ar  112  PHE112     -0.0003
    120  CZ        10.4620   22.0270   22.1090 C.ar  112  PHE112     -0.0000
    121  N          9.7300   29.3510   21.7630 N.3   121  LEU121     -0.1245
    122  CA         9.0210   28.2650   22.4340 C.3   121  LEU121      0.1561
    123  C          8.9790   28.4620   23.9510 C.2   121  LEU121      0.2260
    124  O          8.2570   27.7390   24.6600 O.2   121  LEU121     -0.2867
    125  CB         9.6400   26.9090   22.0780 C.3   121  LEU121      0.0270
    126  CG         9.6240   26.5870   20.5760 C.3   121  LEU121      0.0019
    127  CD1       10.3210   25.2620   20.2910 C.3   121  LEU121      0.0001
    128  CD2        8.2070   26.5930   20.0000 C.3   121  LEU121      0.0001
    129  N          6.3980   25.6210   25.7120 N.3   125  HIS125     -0.1241
    130  CA         6.8250   24.2380   25.9020 C.3   125  HIS125      0.1621
    131  C          7.6510   24.1310   27.1610 C.2   125  HIS125      0.2264
    132  O          8.5020   24.9770   27.4220 O.2   125  HIS125     -0.2867
    133  CB         7.6110   23.7380   24.6970 C.3   125  HIS125      0.0745
    134  CG         6.7900   23.6920   23.4530 C.ar  125  HIS125      0.0817
    135  ND1        6.2500   22.5270   22.9540 N.ar  125  HIS125     -0.2268
    136  CD2        6.3410   24.6860   22.6420 C.ar  125  HIS125      0.1154
    137  CE1        5.5290   22.7950   21.8820 C.ar  125  HIS125      0.1986
    138  NE2        5.5680   24.1040   21.6750 N.ar  125  HIS125     -0.2212
@<TRIPOS>BOND
     1    11     9    1
     2     2     5    1
     3     2     3    1
     4     2     1    1
     5     5     6    1
     6     8     9    2
     7     8     7    1
     8     9    10    1
     9     3     4    2
    10    12    13    1
    11    16    13    1
    12    16    17    1
    13     7     6    1
    14    19    17   ar
    15    19    21   ar
    16    13    14    1
    17    17    18   ar
    18    26    25    2
    19    50    48    1
    20    21    22   ar
    21    30    29    1
    22    40    41    1
    23    23    14   am
    24    23    24    1
    25    14    15    2
    26    41    42    1
    27    25    24    1
    28    18    20   ar
    29    49    48    1
    30    48    45    1
    31    22    20   ar
    32    42    44   am
    33    42    43    2
    34    44    45    1
    35    24    27    1
    36    29    28    1
    37    34    33    2
    38    38    37    2
    39    28    27    1
    40    31    32    1
    41    45    46    1
    42    35    32    1
    43    35    36    1
    44    37    39   am
    45    37    36    1
    46    33    32    1
    47    46    51   am
    48    46    47    2
    49    51    52    1
    50   108   107    2
    51   109   107   am
    52   107   106    1
    53   128   126    1
    54    52    53    1
    55   114   115    1
    56   114   111    1
    57   127   126    1
    58    74    73    2
    59   126   125    1
    60    83    80    1
    61   106   105    1
    62   117   115   ar
    63   117   119   ar
    64   115   116   ar
    65    80    81    1
    66    80    79    1
    67    53    54    2
    68   111   112    1
    69   111   110    1
    70   119   120   ar
    71    70    67    1
    72    82    81    2
    73   105   102    1
    74   116   118   ar
    75    73    79   am
    76    73    72    1
    77   138   137   ar
    78   138   136   ar
    79   121   122    1
    80   112   113    2
    81   137   135   ar
    82   125   122    1
    83   120   118   ar
    84    71    72    1
    85    71    68   am
    86   122   123    1
    87    67    68    1
    88    67    66    1
    89   136   134   ar
    90   102   103    1
    91   102   101    1
    92    77    76    2
    93    72    75    1
    94   135   134   ar
    95    65    63    1
    96    68    69    2
    97   103   104    2
    98   134   133    1
    99    76    75    1
   100    76    78   am
   101   101    97   am
   102   123   124    2
   103    63    62    2
   104    63    64    1
   105   100    99    1
   106    89    88    1
   107   133   130    1
   108    62    61    1
   109    97    98    2
   110    97    96    1
   111    88    90    1
   112    88    85    1
   113    87    86    2
   114    99    96    1
   115   129   130    1
   116    96    95    1
   117   130   131    1
   118    95    93   am
   119    61    60    1
   120    86    85    1
   121    85    84    1
   122    91    92    1
   123    92    93    1
   124    60    59    1
   125    93    94    2
   126   131   132    2
   127    59    56    1
   128    56    55    1
   129    56    57    1
   130    57    58    2
