@<TRIPOS>MOLECULE
tmp/4j59A00.pdb
 170 164 0 0 0
SMALL
GASTEIGER

@<TRIPOS>ATOM
      1  N          9.6790   11.0500   14.4210 N.3    53  HIS53      -0.1226
      2  CA         8.7660   11.2080   13.2900 C.3    53  HIS53       0.1752
      3  C          8.8630   12.5780   12.6040 C.2    53  HIS53       0.2595
      4  O          8.5240   12.7050   11.4310 O.2    53  HIS53      -0.2718
      5  CB         7.3270   10.9590   13.7380 C.3    53  HIS53       0.0759
      6  CG         6.8390   11.9490   14.7470 C.ar   53  HIS53       0.0818
      7  ND1        7.0800   11.8150   16.1000 N.ar   53  HIS53      -0.2268
      8  CD2        6.1480   13.1040   14.6010 C.ar   53  HIS53       0.1154
      9  CE1        6.5480   12.8420   16.7410 C.ar   53  HIS53       0.1986
     10  NE2        5.9760   13.6380   15.8540 N.ar   53  HIS53      -0.2212
     11  N          9.3030   13.6000   13.3330 N.am   54  ARG54      -0.1980
     12  CA         9.4870   14.9200   12.7290 C.3    54  ARG54       0.1597
     13  C         10.8750   15.4740   13.0340 C.2    54  ARG54       0.2287
     14  O         11.2100   15.7120   14.1930 O.2    54  ARG54      -0.2864
     15  CB         8.4230   15.9190   13.1990 C.3    54  ARG54       0.0334
     16  CG         8.5770   17.3090   12.5570 C.3    54  ARG54       0.0492
     17  CD         7.6870   18.3600   13.2090 C.3    54  ARG54       0.2205
     18  NE         6.3570   18.4230   12.6050 N.pl3  54  ARG54      -0.0865
     19  CZ         5.2220   18.5260   13.2950 C.cat  54  ARG54       0.5346
     20  NH1        4.0580   18.5790   12.6510 N.pl3  54  ARG54       0.1354
     21  NH2        5.2510   18.5800   14.6240 N.pl3  54  ARG54       0.1354
     22  N         13.6150   18.5120   11.6810 N.3    56  ILE56      -0.1245
     23  CA        13.7790   19.7110   10.8580 C.3    56  ILE56       0.1561
     24  C         15.1540   20.3320   11.0870 C.2    56  ILE56       0.2260
     25  O         15.4270   20.8380   12.1710 O.2    56  ILE56      -0.2867
     26  CB        12.6660   20.7420   11.1710 C.3    56  ILE56       0.0252
     27  CG1       11.2960   20.1550   10.8110 C.3    56  ILE56       0.0019
     28  CG2       12.8860   22.0410   10.4180 C.3    56  ILE56       0.0019
     29  CD1       10.1210   20.9840   11.2890 C.3    56  ILE56       0.0001
     30  N         16.5690   23.2810   13.5260 N.3    59  PHE59      -0.1227
     31  CA        15.4600   23.5160   14.4390 C.3    59  PHE59       0.1736
     32  C         15.4970   22.4460   15.5410 C.2    59  PHE59       0.2595
     33  O         16.0060   22.7120   16.6400 O.2    59  PHE59      -0.2718
     34  CB        14.1300   23.5640   13.6580 C.3    59  PHE59       0.0547
     35  CG        12.8980   23.8490   14.5040 C.ar   59  PHE59      -0.0202
     36  CD1       12.9960   24.2750   15.8220 C.ar   59  PHE59      -0.0042
     37  CD2       11.6240   23.6900   13.9530 C.ar   59  PHE59      -0.0042
     38  CE1       11.8520   24.5220   16.5800 C.ar   59  PHE59      -0.0003
     39  CE2       10.4740   23.9390   14.7010 C.ar   59  PHE59      -0.0003
     40  CZ        10.5830   24.3530   16.0130 C.ar   59  PHE59      -0.0000
     41  N         15.0000   21.2450   15.2490 N.am   60  MET60      -0.1979
     42  CA        14.8700   20.2160   16.2890 C.3    60  MET60       0.1605
     43  C         14.5530   18.8160   15.7550 C.2    60  MET60       0.2287
     44  O         14.2320   18.6420   14.5790 O.2    60  MET60      -0.2864
     45  CB        13.8160   20.6360   17.3320 C.3    60  MET60       0.0413
     46  CG        12.4000   20.8380   16.7790 C.3    60  MET60       0.0598
     47  SD        11.4650   19.3010   16.5930 S.3    60  MET60      -0.1393
     48  CE        10.8860   19.4490   14.8960 C.3    60  MET60       0.0692
     49  N         12.0380   15.5870   16.7600 N.3    62  GLN62      -0.1245
     50  CA        10.8770   15.2580   17.5830 C.3    62  GLN62       0.1566
     51  C         10.5840   13.7520   17.5900 C.2    62  GLN62       0.2260
     52  O         10.6510   13.0940   16.5470 O.2    62  GLN62      -0.2867
     53  CB         9.6650   16.0330   17.0640 C.3    62  GLN62       0.0367
     54  CG         8.4390   15.9830   17.9600 C.3    62  GLN62       0.0905
     55  CD         7.3040   16.8200   17.4300 C.2    62  GLN62       0.2608
     56  OE1        7.5070   17.7430   16.6360 O.2    62  GLN62      -0.2717
     57  NE2        6.0950   16.5020   17.8580 N.am   62  GLN62      -0.0878
     58  N          2.8560   10.8210   15.2890 N.3    71  GLY71      -0.1210
     59  CA         2.9550   12.1900   15.7540 C.3    71  GLY71       0.1956
     60  C          1.6520   12.7580   16.2850 C.2    71  GLY71       0.2613
     61  O          1.5990   13.9190   16.6800 O.2    71  GLY71      -0.2717
     62  N          0.5950   11.9520   16.3020 N.am   72  THR72      -0.1938
     63  CA        -0.6730   12.4250   16.8550 C.3    72  THR72       0.2028
     64  C         -0.8870   11.8770   18.2490 C.2    72  THR72       0.2642
     65  O         -1.8100   12.3020   18.9380 O.2    72  THR72      -0.2714
     66  CB        -1.8890   11.9850   16.0160 C.3    72  THR72       0.1808
     67  OG1       -1.9950   10.5550   16.0480 O.3    72  THR72      -0.2208
     68  CG2       -1.7720   12.4720   14.5730 C.3    72  THR72       0.0379
     69  N         -0.0450   10.9280   18.6600 N.am   73  GLY73      -0.1954
     70  CA        -0.3130   10.1820   19.8800 C.3    73  GLY73       0.1869
     71  C          0.6910   10.2430   21.0200 C.2    73  GLY73       0.2309
     72  O          1.3330   11.2700   21.2700 O.2    73  GLY73      -0.2863
     73  N         -2.8360   12.8270   29.2510 N.3    81  ARG81      -0.1245
     74  CA        -2.1770   14.1400   29.2180 C.3    81  ARG81       0.1563
     75  C         -1.9540   14.6900   30.6210 C.2    81  ARG81       0.2260
     76  O         -2.6630   14.3300   31.5520 O.2    81  ARG81      -0.2867
     77  CB        -3.0110   15.1520   28.4290 C.3    81  ARG81       0.0307
     78  CG        -3.4180   14.7200   27.0240 C.3    81  ARG81       0.0489
     79  CD        -2.2430   14.7220   26.0380 C.3    81  ARG81       0.2205
     80  NE        -2.7030   14.4920   24.6660 N.pl3  81  ARG81      -0.0865
     81  CZ        -2.6600   13.3150   24.0440 C.cat  81  ARG81       0.5346
     82  NH1       -2.1710   12.2450   24.6610 N.pl3  81  ARG81       0.1354
     83  NH2       -3.1000   13.2060   22.7990 N.pl3  81  ARG81       0.1354
     84  N          6.8920   18.2870   23.5060 N.3   100  ALA100     -0.1231
     85  CA         5.9830   18.6400   22.4250 C.3   100  ALA100      0.1694
     86  C          4.5880   18.8100   23.0240 C.2   100  ALA100      0.2592
     87  O          4.3040   18.2640   24.0920 O.2   100  ALA100     -0.2718
     88  CB         5.9750   17.5460   21.3570 C.3   100  ALA100      0.0304
     89  N          3.7180   19.5690   22.3600 N.am  101  ASN101     -0.1960
     90  CA         2.3310   19.6410   22.8120 C.3   101  ASN101      0.1819
     91  C          1.3490   20.0750   21.7300 C.2   101  ASN101      0.2621
     92  O          1.7460   20.4450   20.6160 O.2   101  ASN101     -0.2715
     93  CB         2.1940   20.5220   24.0600 C.3   101  ASN101      0.1195
     94  CG         2.4890   21.9940   23.7850 C.2   101  ASN101      0.2630
     95  OD1        2.0360   22.5590   22.7850 O.2   101  ASN101     -0.2716
     96  ND2        3.2580   22.6230   24.6790 N.am  101  ASN101     -0.0877
     97  N          0.0650   20.0110   22.0690 N.am  102  ALA102     -0.1977
     98  CA        -0.9950   20.4570   21.1770 C.3   102  ALA102      0.1597
     99  C         -1.7030   21.6570   21.8070 C.2   102  ALA102      0.2287
    100  O         -2.9330   21.7840   21.7380 O.2   102  ALA102     -0.2864
    101  CB        -1.9820   19.3200   20.9140 C.3   102  ALA102      0.0319
    102  N         -1.1520   19.9230   27.4640 N.3   106  THR106     -0.1218
    103  CA        -1.4110   18.6900   26.7270 C.3   106  THR106      0.1862
    104  C         -0.1360   17.8630   26.5530 C.2   106  THR106      0.2287
    105  O          0.0790   17.2420   25.5090 O.2   106  THR106     -0.2866
    106  CB        -2.0460   18.9590   25.3540 C.3   106  THR106      0.1770
    107  OG1       -1.1590   19.7640   24.5760 O.3   106  THR106     -0.2211
    108  CG2       -3.3800   19.6800   25.5030 C.3   106  THR106      0.0375
    109  N          2.1360   14.7650   26.7930 N.3   108  GLY108     -0.1210
    110  CA         1.8630   13.3400   26.8060 C.3   108  GLY108      0.1956
    111  C          3.1760   12.6110   26.9380 C.2   108  GLY108      0.2613
    112  O          3.7250   12.4990   28.0440 O.2   108  GLY108     -0.2717
    113  N          3.6990   12.1360   25.8090 N.am  109  SER109     -0.1938
    114  CA         5.0060   11.5000   25.7940 C.3   109  SER109      0.2055
    115  C          5.9360   12.1020   24.7320 C.2   109  SER109      0.2642
    116  O          7.1510   11.9710   24.8240 O.2   109  SER109     -0.2714
    117  CB         4.8570    9.9970   25.5760 C.3   109  SER109      0.2130
    118  OG         4.1350    9.7510   24.3890 O.3   109  SER109     -0.2179
    119  N          5.3680   12.7560   23.7250 N.am  110  GLN110     -0.1976
    120  CA         6.1850   13.3500   22.6670 C.3   110  GLN110      0.1601
    121  C          7.1350   14.4200   23.2020 C.2   110  GLN110      0.2287
    122  O          6.7480   15.2510   24.0310 O.2   110  GLN110     -0.2864
    123  CB         5.3080   13.9190   21.5500 C.3   110  GLN110      0.0394
    124  CG         4.5910   12.8540   20.7390 C.3   110  GLN110      0.0908
    125  CD         3.9090   13.4260   19.5150 C.2   110  GLN110      0.2608
    126  OE1        4.5250   14.1350   18.7290 O.2   110  GLN110     -0.2717
    127  NE2        2.6220   13.1250   19.3520 N.am  110  GLN110     -0.0878
    128  N         11.0780   16.7780   22.1670 N.3   112  PHE112     -0.1241
    129  CA        12.0400   17.1640   21.1470 C.3   112  PHE112      0.1605
    130  C         13.3880   17.5940   21.7270 C.2   112  PHE112      0.2264
    131  O         13.4990   17.9650   22.8990 O.2   112  PHE112     -0.2867
    132  CB        11.4660   18.2160   20.1810 C.3   112  PHE112      0.0534
    133  CG        11.0880   19.5280   20.8280 C.ar  112  PHE112     -0.0203
    134  CD1        9.8710   19.6700   21.4790 C.ar  112  PHE112     -0.0042
    135  CD2       11.9260   20.6340   20.7360 C.ar  112  PHE112     -0.0042
    136  CE1        9.5070   20.8720   22.0470 C.ar  112  PHE112     -0.0003
    137  CE2       11.5710   21.8460   21.3050 C.ar  112  PHE112     -0.0003
    138  CZ        10.3640   21.9680   21.9650 C.ar  112  PHE112     -0.0000
    139  N         11.4540   31.3080   20.8620 N.3   120  TRP120     -0.1227
    140  CA        10.0240   31.5500   20.6660 C.3   120  TRP120      0.1737
    141  C          9.1460   30.4480   21.2700 C.2   120  TRP120      0.2595
    142  O          7.9250   30.5930   21.3400 O.2   120  TRP120     -0.2718
    143  CB         9.6920   31.7630   19.1850 C.3   120  TRP120      0.0564
    144  CG         9.7470   30.5180   18.3550 C.ar  120  TRP120      0.0003
    145  CD1        8.7010   29.7020   18.0350 C.ar  120  TRP120      0.0946
    146  CD2       10.9040   29.9550   17.7240 C.ar  120  TRP120      0.0152
    147  NE1        9.1370   28.6570   17.2550 N.ar  120  TRP120     -0.2442
    148  CE2       10.4850   28.7880   17.0510 C.ar  120  TRP120      0.0810
    149  CE3       12.2530   30.3210   17.6670 C.ar  120  TRP120      0.0012
    150  CZ2       11.3610   27.9890   16.3270 C.ar  120  TRP120      0.0191
    151  CZ3       13.1270   29.5240   16.9450 C.ar  120  TRP120      0.0001
    152  CH2       12.6750   28.3710   16.2830 C.ar  120  TRP120      0.0015
    153  N          9.7670   29.3590   21.7200 N.am  121  LEU121     -0.1980
    154  CA         9.0280   28.2930   22.3960 C.3   121  LEU121      0.1596
    155  C          8.9910   28.4890   23.9150 C.2   121  LEU121      0.2287
    156  O          8.3150   27.7380   24.6260 O.2   121  LEU121     -0.2864
    157  CB         9.6010   26.9120   22.0520 C.3   121  LEU121      0.0297
    158  CG         9.6010   26.5520   20.5620 C.3   121  LEU121      0.0022
    159  CD1       10.1440   25.1510   20.3430 C.3   121  LEU121      0.0001
    160  CD2        8.1990   26.7020   19.9560 C.3   121  LEU121      0.0001
    161  N          6.3520   25.6390   25.6290 N.3   125  HIS125     -0.1241
    162  CA         6.7790   24.2540   25.7690 C.3   125  HIS125      0.1621
    163  C          7.6190   24.1040   27.0290 C.2   125  HIS125      0.2264
    164  O          8.4820   24.9440   27.3110 O.2   125  HIS125     -0.2867
    165  CB         7.5720   23.8080   24.5340 C.3   125  HIS125      0.0745
    166  CG         6.7490   23.7510   23.2840 C.ar  125  HIS125      0.0817
    167  ND1        6.1890   22.5820   22.8140 N.ar  125  HIS125     -0.2268
    168  CD2        6.3800   24.7230   22.4130 C.ar  125  HIS125      0.1154
    169  CE1        5.5140   22.8320   21.7060 C.ar  125  HIS125      0.1986
    170  NE2        5.6120   24.1240   21.4420 N.ar  125  HIS125     -0.2212
@<TRIPOS>BOND
     1    28    26    1
     2    27    26    1
     3    27    29    1
     4    23    24    1
     5    23    26    1
     6    23    22    1
     7    24    25    2
     8     4     3    2
     9    16    15    1
    10    16    17    1
    11     3     2    1
    12     3    11   am
    13    18    17    1
    14    18    19    2
    15    20    19    1
    16    12    13    1
    17    12    15    1
    18    12    11    1
    19    13    14    2
    20     2     5    1
    21     2     1    1
    22    19    21    1
    23    30    31    1
    24    34    31    1
    25    34    35    1
    26     5     6    1
    27    37    35   ar
    28    37    39   ar
    29    31    32    1
    30    35    36   ar
    31    68    66    1
    32    44    43    2
    33     8     6   ar
    34     8    10   ar
    35    39    40   ar
    36     6     7   ar
    37    48    47    1
    38    41    32   am
    39    41    42    1
    40    58    59    1
    41    32    33    2
    42    59    60    1
    43    43    42    1
    44    36    38   ar
    45    10     9   ar
    46    40    38   ar
    47    66    67    1
    48    66    63    1
    49     7     9   ar
    50   152   150   ar
    51   152   151   ar
    52    60    62   am
    53    60    61    2
    54    42    45    1
    55    62    63    1
    56   150   148   ar
    57    52    51    2
    58    47    46    1
    59    56    55    2
    60    49    50    1
    61    46    45    1
    62    63    64    1
    63   151   149   ar
    64   148   147   ar
    65   148   146   ar
    66    53    50    1
    67    53    54    1
    68   147   145   ar
    69    55    57   am
    70    55    54    1
    71    50    51    1
    72   149   146   ar
    73   146   144   ar
    74   145   144   ar
    75    64    69   am
    76    64    65    2
    77   144   143    1
    78    69    70    1
    79   126   125    2
    80   143   140    1
    81   127   125   am
    82   125   124    1
    83    70    71    1
    84   160   158    1
    85   132   133    1
    86   132   129    1
    87   159   158    1
    88   158   157    1
    89    92    91    2
    90   140   139    1
    91   140   141    1
    92   135   133   ar
    93   135   137   ar
    94   124   123    1
    95   133   134   ar
    96   101    98    1
    97    71    72    2
    98   129   130    1
    99   129   128    1
   100    98    99    1
   101    98    97    1
   102   141   142    2
   103   141   153   am
   104   137   138   ar
   105    88    85    1
   106   170   169   ar
   107   170   168   ar
   108   134   136   ar
   109   123   120    1
   110   169   167   ar
   111   153   154    1
   112   130   131    2
   113    91    97   am
   114    91    90    1
   115   100    99    2
   116   138   136   ar
   117   157   154    1
   118    89    90    1
   119    89    86   am
   120   154   155    1
   121   168   166   ar
   122    85    86    1
   123    85    84    1
   124   120   121    1
   125   120   119    1
   126    95    94    2
   127    83    81    1
   128    90    93    1
   129   167   166   ar
   130    86    87    2
   131   121   122    2
   132   166   165    1
   133   119   115   am
   134    94    93    1
   135    94    96   am
   136   155   156    2
   137    81    82    1
   138    81    80    2
   139   118   117    1
   140   165   162    1
   141   107   106    1
   142    80    79    1
   143   115   116    2
   144   115   114    1
   145   106   108    1
   146   106   103    1
   147   105   104    2
   148   117   114    1
   149   161   162    1
   150   162   163    1
   151   114   113    1
   152   113   111   am
   153    79    78    1
   154   104   103    1
   155   103   102    1
   156   109   110    1
   157   110   111    1
   158   111   112    2
   159    78    77    1
   160   163   164    2
   161    77    74    1
   162    74    73    1
   163    74    75    1
   164    75    76    2
