@<TRIPOS>MOLECULE
tmp/4j5aA00.pdb
 189 183 0 0 0
SMALL
GASTEIGER

@<TRIPOS>ATOM
      1  N          9.6650   10.9780   14.6960 N.3    53  HIS53      -0.1226
      2  CA         8.7420   11.0930   13.5660 C.3    53  HIS53       0.1752
      3  C          8.8100   12.4430   12.8430 C.2    53  HIS53       0.2595
      4  O          8.4010   12.5570   11.6860 O.2    53  HIS53      -0.2718
      5  CB         7.3060   10.8170   14.0290 C.3    53  HIS53       0.0759
      6  CG         6.7600   11.8660   14.9470 C.ar   53  HIS53       0.0818
      7  ND1        6.9720   11.8470   16.3100 N.ar   53  HIS53      -0.2268
      8  CD2        6.0220   12.9740   14.6950 C.ar   53  HIS53       0.1154
      9  CE1        6.3840   12.8950   16.8580 C.ar   53  HIS53       0.1986
     10  NE2        5.8020   13.5960   15.8990 N.ar   53  HIS53      -0.2212
     11  N          9.3050   13.4670   13.5280 N.am   54  ARG54      -0.1980
     12  CA         9.4510   14.7890   12.9250 C.3    54  ARG54       0.1597
     13  C         10.8310   15.3390   13.2490 C.2    54  ARG54       0.2287
     14  O         11.1580   15.5620   14.4150 O.2    54  ARG54      -0.2864
     15  CB         8.3700   15.7540   13.4230 C.3    54  ARG54       0.0334
     16  CG         8.5220   17.1810   12.8830 C.3    54  ARG54       0.0492
     17  CD         7.6490   18.1860   13.6410 C.3    54  ARG54       0.2205
     18  NE         6.3100   18.3110   13.0710 N.pl3  54  ARG54      -0.0865
     19  CZ         5.2000   18.4230   13.7930 C.cat  54  ARG54       0.5346
     20  NH1        5.2640   18.4210   15.1170 N.pl3  54  ARG54       0.1354
     21  NH2        4.0240   18.5350   13.1890 N.pl3  54  ARG54       0.1354
     22  N         13.5560   18.3880   11.9440 N.3    56  ILE56      -0.1245
     23  CA        13.7160   19.5800   11.1210 C.3    56  ILE56       0.1561
     24  C         15.0900   20.1830   11.3620 C.2    56  ILE56       0.2260
     25  O         15.3680   20.6710   12.4530 O.2    56  ILE56      -0.2867
     26  CB        12.6320   20.6340   11.4360 C.3    56  ILE56       0.0252
     27  CG1       11.2380   20.0660   11.1550 C.3    56  ILE56       0.0019
     28  CG2       12.8550   21.8910   10.6100 C.3    56  ILE56       0.0019
     29  CD1       10.1030   20.9770   11.5730 C.3    56  ILE56       0.0001
     30  N         16.5010   23.1530   13.7790 N.3    59  PHE59      -0.1227
     31  CA        15.3630   23.3660   14.6680 C.3    59  PHE59       0.1736
     32  C         15.3970   22.3210   15.7860 C.2    59  PHE59       0.2595
     33  O         15.8890   22.6000   16.8820 O.2    59  PHE59      -0.2718
     34  CB        14.0430   23.3190   13.8850 C.3    59  PHE59       0.0547
     35  CG        12.8060   23.6140   14.7150 C.ar   59  PHE59      -0.0202
     36  CD1       12.8970   24.1590   15.9870 C.ar   59  PHE59      -0.0042
     37  CD2       11.5440   23.3360   14.2050 C.ar   59  PHE59      -0.0042
     38  CE1       11.7560   24.4120   16.7370 C.ar   59  PHE59      -0.0003
     39  CE2       10.4010   23.5910   14.9470 C.ar   59  PHE59      -0.0003
     40  CZ        10.5060   24.1300   16.2140 C.ar   59  PHE59      -0.0000
     41  N         14.8920   21.1200   15.5090 N.am   60  MET60      -0.1979
     42  CA        14.7650   20.1110   16.5620 C.3    60  MET60       0.1605
     43  C         14.4640   18.7090   16.0310 C.2    60  MET60       0.2287
     44  O         14.0860   18.5380   14.8660 O.2    60  MET60      -0.2864
     45  CB        13.6880   20.5380   17.5750 C.3    60  MET60       0.0413
     46  CG        12.2950   20.7350   16.9760 C.3    60  MET60       0.0598
     47  SD        11.3750   19.1850   16.8600 S.3    60  MET60      -0.1393
     48  CE        10.7510   19.2590   15.1810 C.3    60  MET60       0.0692
     49  N         12.0110   15.4970   17.0500 N.3    62  GLN62      -0.1245
     50  CA        10.8420   15.1920   17.8730 C.3    62  GLN62       0.1566
     51  C         10.5130   13.6980   17.8640 C.2    62  GLN62       0.2260
     52  O         10.5690   13.0520   16.8160 O.2    62  GLN62      -0.2867
     53  CB         9.6370   16.0020   17.3790 C.3    62  GLN62       0.0367
     54  CG         8.3610   15.7860   18.1770 C.3    62  GLN62       0.0905
     55  CD         7.2260   16.6810   17.7070 C.2    62  GLN62       0.2608
     56  OE1        7.4470   17.6570   16.9870 O.2    62  GLN62      -0.2717
     57  NE2        6.0060   16.3530   18.1120 N.am   62  GLN62      -0.0878
     58  N          2.8040   10.9490   15.3820 N.3    71  GLY71      -0.1210
     59  CA         2.8070   12.3140   15.8720 C.3    71  GLY71       0.1956
     60  C          1.4940   12.7720   16.4780 C.2    71  GLY71       0.2613
     61  O          1.3860   13.8960   16.9610 O.2    71  GLY71      -0.2717
     62  N          0.4860   11.9070   16.4660 N.am   72  THR72      -0.1938
     63  CA        -0.8070   12.2870   17.0330 C.3    72  THR72       0.2028
     64  C         -1.0140   11.7200   18.4320 C.2    72  THR72       0.2643
     65  O         -1.9460   12.1190   19.1340 O.2    72  THR72      -0.2714
     66  CB        -1.9750   11.8090   16.1610 C.3    72  THR72       0.1808
     67  OG1       -1.9540   10.3790   16.0950 O.3    72  THR72      -0.2208
     68  CG2       -1.8740   12.3840   14.7550 C.3    72  THR72       0.0379
     69  N         -0.1530   10.7920   18.8410 N.am   73  GLY73      -0.1939
     70  CA        -0.4370   10.0210   20.0370 C.3    73  GLY73       0.2014
     71  C          0.5580   10.1220   21.1750 C.2    73  GLY73       0.2639
     72  O          1.2160   11.1480   21.3690 O.2    73  GLY73      -0.2714
     73  N          0.6620    9.0350   21.9330 N.am   74  GLY74      -0.1954
     74  CA         1.4500    9.0150   23.1490 C.3    74  GLY74       0.1869
     75  C          0.5580    9.1970   24.3630 C.2    74  GLY74       0.2309
     76  O         -0.5990    9.5950   24.2410 O.2    74  GLY74      -0.2863
     77  N         -3.7660   10.3340   30.0550 N.3    80  SER80      -0.1202
     78  CA        -3.5040   10.7140   28.6720 C.3    80  SER80       0.2020
     79  C         -2.6910   12.0020   28.5720 C.2    80  SER80       0.2618
     80  O         -1.7580   12.0750   27.7690 O.2    80  SER80      -0.2717
     81  CB        -4.7920   10.7980   27.8420 C.3    80  SER80       0.2103
     82  OG        -5.6870   11.7630   28.3560 O.3    80  SER80      -0.2182
     83  N         -3.0280   13.0020   29.3860 N.am   81  ARG81      -0.1979
     84  CA        -2.3280   14.2850   29.3610 C.3    81  ARG81       0.1597
     85  C         -2.1060   14.8090   30.7820 C.2    81  ARG81       0.2287
     86  O         -2.8130   14.4180   31.7110 O.2    81  ARG81      -0.2864
     87  CB        -3.0870   15.3020   28.4970 C.3    81  ARG81       0.0334
     88  CG        -3.2700   14.8440   27.0480 C.3    81  ARG81       0.0492
     89  CD        -4.0100   15.8460   26.1760 C.3    81  ARG81       0.2205
     90  NE        -5.0780   16.5360   26.8910 N.pl3  81  ARG81      -0.0865
     91  CZ        -6.0470   17.2250   26.2970 C.cat  81  ARG81       0.5346
     92  NH1       -6.9720   17.8310   27.0290 N.pl3  81  ARG81       0.1354
     93  NH2       -6.0950   17.3030   24.9720 N.pl3  81  ARG81       0.1354
     94  N          6.7770   18.2830   23.7550 N.3   100  ALA100     -0.1231
     95  CA         5.9060   18.6660   22.6510 C.3   100  ALA100      0.1694
     96  C          4.4980   18.7710   23.2140 C.2   100  ALA100      0.2592
     97  O          4.2110   18.1970   24.2620 O.2   100  ALA100     -0.2718
     98  CB         5.9600   17.6200   21.5330 C.3   100  ALA100      0.0304
     99  N          3.6220   19.5100   22.5390 N.am  101  ASN101     -0.1960
    100  CA         2.2380   19.5860   22.9820 C.3   101  ASN101      0.1819
    101  C          1.2890   20.0400   21.8830 C.2   101  ASN101      0.2621
    102  O          1.7170   20.3790   20.7680 O.2   101  ASN101     -0.2715
    103  CB         2.1060   20.4690   24.2350 C.3   101  ASN101      0.1195
    104  CG         2.4370   21.9370   23.9700 C.2   101  ASN101      0.2630
    105  OD1        1.9480   22.5400   23.0090 O.2   101  ASN101     -0.2716
    106  ND2        3.2600   22.5220   24.8370 N.am  101  ASN101     -0.0877
    107  N          0.0000   20.0450   22.2080 N.am  102  ALA102     -0.1977
    108  CA        -1.0300   20.5000   21.2840 C.3   102  ALA102      0.1597
    109  C         -1.7720   21.6680   21.9070 C.2   102  ALA102      0.2287
    110  O         -2.9840   21.8120   21.7410 O.2   102  ALA102     -0.2864
    111  CB        -1.9850   19.3680   20.9540 C.3   102  ALA102      0.0319
    112  N         -1.2650   19.9670   27.6640 N.3   106  THR106     -0.1218
    113  CA        -1.5140   18.7660   26.8700 C.3   106  THR106      0.1862
    114  C         -0.2540   17.9100   26.7490 C.2   106  THR106      0.2287
    115  O         -0.0340   17.2380   25.7370 O.2   106  THR106     -0.2866
    116  CB        -2.0480   19.1060   25.4640 C.3   106  THR106      0.1770
    117  OG1       -1.1240   19.9730   24.8000 O.3   106  THR106     -0.2211
    118  CG2       -3.3950   19.8070   25.5640 C.3   106  THR106      0.0375
    119  N          2.0120   14.8050   27.0340 N.3   108  GLY108     -0.1210
    120  CA         1.7690   13.3750   27.0200 C.3   108  GLY108      0.1956
    121  C          3.0860   12.6520   27.1750 C.2   108  GLY108      0.2613
    122  O          3.6490   12.5940   28.2780 O.2   108  GLY108     -0.2717
    123  N          3.5900   12.1200   26.0640 N.am  109  SER109     -0.1938
    124  CA         4.9060   11.4980   26.0360 C.3   109  SER109      0.2055
    125  C          5.8180   12.1140   24.9730 C.2   109  SER109      0.2642
    126  O          7.0380   11.9510   25.0210 O.2   109  SER109     -0.2714
    127  CB         4.7820    9.9900   25.8050 C.3   109  SER109      0.2130
    128  OG         4.0680    9.7150   24.6150 O.3   109  SER109     -0.2179
    129  N          5.2340   12.8070   24.0030 N.am  110  GLN110     -0.1976
    130  CA         6.0450   13.3790   22.9340 C.3   110  GLN110      0.1601
    131  C          6.9840   14.4670   23.4370 C.2   110  GLN110      0.2287
    132  O          6.6030   15.3030   24.2570 O.2   110  GLN110     -0.2864
    133  CB         5.1740   13.9130   21.8000 C.3   110  GLN110      0.0394
    134  CG         4.5080   12.8170   20.9890 C.3   110  GLN110      0.0908
    135  CD         3.8220   13.3630   19.7540 C.2   110  GLN110      0.2608
    136  OE1        4.4220   14.1110   18.9790 O.2   110  GLN110     -0.2717
    137  NE2        2.5560   12.9990   19.5680 N.am  110  GLN110     -0.0878
    138  N         10.9530   16.7710   22.3760 N.3   112  PHE112     -0.1241
    139  CA        11.9180   17.1210   21.3530 C.3   112  PHE112      0.1605
    140  C         13.2530   17.5150   21.9470 C.2   112  PHE112      0.2264
    141  O         13.3300   17.9420   23.1000 O.2   112  PHE112     -0.2867
    142  CB        11.3790   18.2010   20.4030 C.3   112  PHE112      0.0534
    143  CG        10.9940   19.5000   21.0780 C.ar  112  PHE112     -0.0203
    144  CD1        9.7680   19.6380   21.7230 C.ar  112  PHE112     -0.0042
    145  CD2       11.8400   20.6020   21.0160 C.ar  112  PHE112     -0.0042
    146  CE1        9.4070   20.8450   22.3140 C.ar  112  PHE112     -0.0003
    147  CE2       11.4860   21.8110   21.6050 C.ar  112  PHE112     -0.0003
    148  CZ        10.2700   21.9340   22.2530 C.ar  112  PHE112     -0.0000
    149  N         11.4290   31.1550   20.9370 N.3   120  TRP120     -0.1227
    150  CA        10.0100   31.4080   20.6930 C.3   120  TRP120      0.1737
    151  C          9.1080   30.3520   21.3330 C.2   120  TRP120      0.2595
    152  O          7.8870   30.5130   21.3760 O.2   120  TRP120     -0.2718
    153  CB         9.7130   31.5460   19.1910 C.3   120  TRP120      0.0564
    154  CG         9.8940   30.2800   18.3700 C.ar  120  TRP120      0.0003
    155  CD1        8.9230   29.3830   18.0240 C.ar  120  TRP120      0.0946
    156  CD2       11.1120   29.7970   17.7820 C.ar  120  TRP120      0.0152
    157  NE1        9.4630   28.3670   17.2670 N.ar  120  TRP120     -0.2442
    158  CE2       10.8030   28.5970   17.1050 C.ar  120  TRP120      0.0810
    159  CE3       12.4320   30.2600   17.7670 C.ar  120  TRP120      0.0012
    160  CZ2       11.7650   27.8550   16.4170 C.ar  120  TRP120      0.0191
    161  CZ3       13.3880   29.5210   17.0830 C.ar  120  TRP120      0.0001
    162  CH2       13.0490   28.3300   16.4190 C.ar  120  TRP120      0.0015
    163  N          9.7120   29.2780   21.8360 N.am  121  LEU121     -0.1980
    164  CA         8.9530   28.2340   22.5180 C.3   121  LEU121      0.1596
    165  C          8.8990   28.4510   24.0330 C.2   121  LEU121      0.2287
    166  O          8.1860   27.7360   24.7410 O.2   121  LEU121     -0.2864
    167  CB         9.5210   26.8500   22.1870 C.3   121  LEU121      0.0297
    168  CG         9.5090   26.5030   20.6940 C.3   121  LEU121      0.0022
    169  CD1       10.0770   25.1170   20.4430 C.3   121  LEU121      0.0001
    170  CD2        8.0920   26.5910   20.1630 C.3   121  LEU121      0.0001
    171  N          5.6740   28.2730   26.3220 N.3   124  LYS124     -0.1231
    172  CA         4.7020   27.4510   25.5980 C.3   124  LYS124      0.1693
    173  C          4.9970   25.9660   25.7740 C.2   124  LYS124      0.2592
    174  O          4.0820   25.1440   25.8590 O.2   124  LYS124     -0.2718
    175  CB         4.6750   27.8250   24.1120 C.3   124  LYS124      0.0285
    176  CG         4.1390   29.2220   23.8500 C.3   124  LYS124      0.0035
    177  CD         4.4020   29.6680   22.4210 C.3   124  LYS124      0.0206
    178  CE         3.7700   31.0190   22.1600 C.3   124  LYS124      0.1093
    179  NZ         2.3340   31.0060   22.5430 N.3   124  LYS124     -0.1314
    180  N          6.2800   25.6250   25.7970 N.am  125  HIS125     -0.1976
    181  CA         6.6990   24.2430   25.9870 C.3   125  HIS125      0.1656
    182  C          7.5250   24.1140   27.2550 C.2   125  HIS125      0.2291
    183  O          8.3630   24.9670   27.5380 O.2   125  HIS125     -0.2864
    184  CB         7.4760   23.7500   24.7630 C.3   125  HIS125      0.0771
    185  CG         6.6410   23.6870   23.5240 C.ar  125  HIS125      0.0820
    186  ND1        6.1110   22.5070   23.0450 N.ar  125  HIS125     -0.2267
    187  CD2        6.2000   24.6630   22.6940 C.ar  125  HIS125      0.1154
    188  CE1        5.3970   22.7570   21.9600 C.ar  125  HIS125      0.1986
    189  NE2        5.4310   24.0580   21.7270 N.ar  125  HIS125     -0.2212
@<TRIPOS>BOND
     1    28    26    1
     2    23    24    1
     3    23    26    1
     4    23    22    1
     5    27    26    1
     6    27    29    1
     7    24    25    2
     8     4     3    2
     9     3    11   am
    10     3     2    1
    11    16    15    1
    12    16    17    1
    13    12    13    1
    14    12    15    1
    15    12    11    1
    16    18    17    1
    17    18    19    2
    18    21    19    1
    19    13    14    2
    20     2     5    1
    21     2     1    1
    22    30    31    1
    23    19    20    1
    24    34    31    1
    25    34    35    1
    26     5     6    1
    27    37    35   ar
    28    37    39   ar
    29    31    32    1
    30     8     6   ar
    31     8    10   ar
    32    35    36   ar
    33    68    66    1
    34    44    43    2
    35    39    40   ar
    36     6     7   ar
    37    48    47    1
    38    58    59    1
    39    41    32   am
    40    41    42    1
    41    32    33    2
    42    59    60    1
    43    10     9   ar
    44    36    38   ar
    45    43    42    1
    46    67    66    1
    47    66    63    1
    48    40    38   ar
    49     7     9   ar
    50   160   162   ar
    51   160   158   ar
    52   162   161   ar
    53    62    60   am
    54    62    63    1
    55    60    61    2
    56    42    45    1
    57    52    51    2
    58    47    46    1
    59    46    45    1
    60    56    55    2
    61    63    64    1
    62    49    50    1
    63   161   159   ar
    64   158   157   ar
    65   158   156   ar
    66   157   155   ar
    67    53    50    1
    68    53    54    1
    69    55    57   am
    70    55    54    1
    71   159   156   ar
    72   156   154   ar
    73    51    50    1
    74   155   154   ar
    75   154   153    1
    76    64    69   am
    77    64    65    2
    78    69    70    1
    79   136   135    2
    80   153   150    1
    81   137   135   am
    82   135   134    1
    83    70    71    1
    84   170   168    1
    85   142   143    1
    86   142   139    1
    87   169   168    1
    88   150   149    1
    89   150   151    1
    90   168   167    1
    91   102   101    2
    92   111   108    1
    93   134   133    1
    94   145   143   ar
    95   145   147   ar
    96   143   144   ar
    97    71    72    2
    98    71    73   am
    99   108   109    1
   100   108   107    1
   101   151   152    2
   102   151   163   am
   103   139   140    1
   104   139   138    1
   105    98    95    1
   106   147   148   ar
   107   144   146   ar
   108   189   188   ar
   109   189   187   ar
   110   110   109    2
   111   133   130    1
   112   163   164    1
   113   101   107   am
   114   101   100    1
   115    73    74    1
   116   140   141    2
   117   188   186   ar
   118   178   177    1
   119   178   179    1
   120   167   164    1
   121   148   146   ar
   122   177   176    1
   123   164   165    1
   124    99   100    1
   125    99    96   am
   126    95    96    1
   127    95    94    1
   128   187   185   ar
   129   130   131    1
   130   130   129    1
   131   100   103    1
   132   105   104    2
   133   186   185   ar
   134    74    75    1
   135    96    97    2
   136   131   132    2
   137   185   184    1
   138   176   175    1
   139   104   103    1
   140   104   106   am
   141   129   125   am
   142   165   166    2
   143   175   172    1
   144    76    75    2
   145   128   127    1
   146   184   181    1
   147   117   116    1
   148    93    91    1
   149   125   126    2
   150   125   124    1
   151   116   118    1
   152   116   113    1
   153   172   173    1
   154   172   171    1
   155   115   114    2
   156   173   180   am
   157   173   174    2
   158   180   181    1
   159   127   124    1
   160   181   182    1
   161   124   123    1
   162   123   121   am
   163    89    90    1
   164    89    88    1
   165    91    90    2
   166    91    92    1
   167   114   113    1
   168   113   112    1
   169   120   119    1
   170   120   121    1
   171    88    87    1
   172   121   122    2
   173   182   183    2
   174    80    79    2
   175    81    82    1
   176    81    78    1
   177    87    84    1
   178    79    78    1
   179    79    83   am
   180    78    77    1
   181    84    83    1
   182    84    85    1
   183    85    86    2
