@<TRIPOS>MOLECULE
tmp/4j5hA00.pdb
 191 188 0 0 0
SMALL
GASTEIGER

@<TRIPOS>ATOM
      1  N        -14.8880  -12.4650    5.8770 N.3    14  CYS14      -0.1235
      2  CA       -15.8820  -12.7510    6.8920 C.3    14  CYS14       0.1677
      3  C        -17.2460  -12.3210    6.4120 C.2    14  CYS14       0.2270
      4  O        -17.3980  -11.2920    5.7570 O.2    14  CYS14      -0.2867
      5  CB       -15.5370  -12.1220    8.2390 C.3    14  CYS14       0.0956
      6  SG       -15.4670  -10.3190    8.2640 S.3    14  CYS14      -0.0801
      7  N        -20.7930  -10.8990    7.2360 N.3    16  LEU16      -0.1245
      8  CA       -21.3450   -9.9500    8.1790 C.3    16  LEU16       0.1561
      9  C        -22.7310   -9.5380    7.7110 C.2    16  LEU16       0.2260
     10  O        -22.9430   -9.2140    6.5370 O.2    16  LEU16      -0.2867
     11  CB       -20.4600   -8.6980    8.2840 C.3    16  LEU16       0.0270
     12  CG       -20.8890   -7.6110    9.2470 C.3    16  LEU16       0.0019
     13  CD1      -20.9950   -8.1280   10.6740 C.3    16  LEU16       0.0001
     14  CD2      -19.8800   -6.4610    9.1690 C.3    16  LEU16       0.0001
     15  N        -17.2710  -10.0650    3.2000 N.3    33  LEU33      -0.1245
     16  CA       -16.4250   -8.8700    3.2320 C.3    33  LEU33       0.1561
     17  C        -14.9700   -9.2540    3.3150 C.2    33  LEU33       0.2260
     18  O        -14.6480  -10.2840    3.9160 O.2    33  LEU33      -0.2867
     19  CB       -16.7310   -8.0360    4.4600 C.3    33  LEU33       0.0270
     20  CG       -18.1260   -7.4770    4.5750 C.3    33  LEU33       0.0019
     21  CD1      -18.2110   -6.7050    5.8830 C.3    33  LEU33       0.0001
     22  CD2      -18.4430   -6.6270    3.3760 C.3    33  LEU33       0.0001
     23  N        -18.7310  -18.2810   16.1330 N.3    64  PHE64      -0.1241
     24  CA       -19.5240  -17.4270   17.0180 C.3    64  PHE64       0.1605
     25  C        -20.8660  -18.0080   17.3820 C.2    64  PHE64       0.2264
     26  O        -21.7270  -17.3270   17.9520 O.2    64  PHE64      -0.2867
     27  CB       -19.6450  -16.0260   16.4440 C.3    64  PHE64       0.0534
     28  CG       -18.3210  -15.3380   16.3480 C.ar   64  PHE64      -0.0203
     29  CD1      -17.5060  -15.1690   17.4740 C.ar   64  PHE64      -0.0042
     30  CD2      -17.8380  -14.9290   15.1220 C.ar   64  PHE64      -0.0042
     31  CE1      -16.2540  -14.5650   17.3540 C.ar   64  PHE64      -0.0003
     32  CE2      -16.5910  -14.3140   15.0160 C.ar   64  PHE64      -0.0003
     33  CZ       -15.7960  -14.1360   16.1220 C.ar   64  PHE64      -0.0000
     34  N        -22.8680  -17.2670   20.9620 N.3    67  THR67      -0.1203
     35  CA       -22.4900  -15.9280   21.4130 C.3    67  THR67       0.1994
     36  C        -23.5340  -14.9320   20.9490 C.2    67  THR67       0.2618
     37  O        -24.4260  -15.2670   20.1560 O.2    67  THR67      -0.2717
     38  CB       -21.1480  -15.4700   20.8050 C.3    67  THR67       0.1784
     39  OG1      -21.3410  -15.0990   19.4270 O.3    67  THR67      -0.2211
     40  CG2      -20.0860  -16.5690   20.9050 C.3    67  THR67       0.0376
     41  N        -23.3790  -13.6920   21.3990 N.am   68  PHE68      -0.1961
     42  CA       -24.3320  -12.6260   21.0750 C.3    68  PHE68       0.1771
     43  C        -24.3390  -12.2300   19.5860 C.2    68  PHE68       0.2619
     44  O        -25.2270  -11.5100   19.1550 O.2    68  PHE68      -0.2715
     45  CB       -24.1260  -11.4030   21.9970 C.3    68  PHE68       0.0574
     46  CG       -22.8540  -10.6330   21.7420 C.ar   68  PHE68      -0.0200
     47  CD1      -21.6360  -11.0770   22.2550 C.ar   68  PHE68      -0.0042
     48  CD2      -22.8770   -9.4450   21.0110 C.ar   68  PHE68      -0.0042
     49  CE1      -20.4700  -10.3710   22.0130 C.ar   68  PHE68      -0.0003
     50  CE2      -21.7050   -8.7330   20.7710 C.ar   68  PHE68      -0.0003
     51  CZ       -20.5050   -9.2010   21.2720 C.ar   68  PHE68      -0.0000
     52  N        -23.3740  -12.7200   18.8010 N.am   69  VAL69      -0.1977
     53  CA       -23.3430  -12.4580   17.3540 C.3    69  VAL69       0.1596
     54  C        -23.5650  -13.7160   16.4800 C.2    69  VAL69       0.2287
     55  O        -23.2990  -13.6840   15.2650 O.2    69  VAL69      -0.2864
     56  CB       -22.0360  -11.7460   16.9460 C.3    69  VAL69       0.0276
     57  CG1      -21.8350  -10.4910   17.7850 C.3    69  VAL69       0.0022
     58  CG2      -20.8440  -12.6710   17.0980 C.3    69  VAL69       0.0022
     59  N        -22.0000  -13.0040   12.1880 N.3    73  ILE73      -0.1245
     60  CA       -20.5830  -12.9460   11.8170 C.3    73  ILE73       0.1561
     61  C        -20.1060  -14.3820   11.6230 C.2    73  ILE73       0.2260
     62  O        -20.1940  -15.1920   12.5550 O.2    73  ILE73      -0.2867
     63  CB       -19.7140  -12.2890   12.9220 C.3    73  ILE73       0.0252
     64  CG1      -20.1900  -10.8580   13.2070 C.3    73  ILE73       0.0019
     65  CG2      -18.2610  -12.3130   12.4950 C.3    73  ILE73       0.0019
     66  CD1      -19.3690  -10.0930   14.2270 C.3    73  ILE73       0.0001
     67  N        -10.2910   -5.7250   17.6830 N.3   106  HIS106     -0.1226
     68  CA       -11.3320   -6.6010   17.1820 C.3   106  HIS106      0.1752
     69  C        -10.7500   -7.8590   16.5410 C.2   106  HIS106      0.2596
     70  O         -9.6240   -7.8650   16.0740 O.2   106  HIS106     -0.2718
     71  CB       -12.2780   -5.8680   16.2330 C.3   106  HIS106      0.0759
     72  CG       -13.1900   -4.9010   16.9210 C.ar  106  HIS106      0.0818
     73  ND1      -13.8880   -3.9300   16.2440 N.ar  106  HIS106     -0.2268
     74  CD2      -13.5300   -4.7710   18.2230 C.ar  106  HIS106      0.1154
     75  CE1      -14.6170   -3.2380   17.1090 C.ar  106  HIS106      0.1986
     76  NE2      -14.3970   -3.7130   18.3190 N.ar  106  HIS106     -0.2212
     77  N        -11.5710   -8.9030   16.5340 N.am  107  TRP107     -0.1962
     78  CA       -11.1360  -10.2810   16.3080 C.3   107  TRP107      0.1771
     79  C        -10.4580  -10.5250   14.9660 C.2   107  TRP107      0.2620
     80  O         -9.6000  -11.3780   14.8480 O.2   107  TRP107     -0.2715
     81  CB       -12.3300  -11.2420   16.5420 C.3   107  TRP107      0.0590
     82  CG       -13.3090  -11.1760   15.4100 C.ar  107  TRP107      0.0006
     83  CD1      -14.2610  -10.2250   15.1830 C.ar  107  TRP107      0.0946
     84  CD2      -13.3450  -12.0490   14.2860 C.ar  107  TRP107      0.0152
     85  NE1      -14.8990  -10.4610   13.9870 N.ar  107  TRP107     -0.2442
     86  CE2      -14.3580  -11.5790   13.4200 C.ar  107  TRP107      0.0810
     87  CE3      -12.6340  -13.2080   13.9350 C.ar  107  TRP107      0.0012
     88  CZ2      -14.6730  -12.2240   12.2210 C.ar  107  TRP107      0.0191
     89  CZ3      -12.9580  -13.8420   12.7520 C.ar  107  TRP107      0.0001
     90  CH2      -13.9600  -13.3340   11.8980 C.ar  107  TRP107      0.0015
     91  N        -10.8940   -9.7750   13.9620 N.am  108  ASP108     -0.1957
     92  CA       -10.3980   -9.9140   12.5970 C.3   108  ASP108      0.1840
     93  C         -9.2720   -8.9440   12.2660 C.2   108  ASP108      0.2622
     94  O         -8.7980   -8.9030   11.1250 O.2   108  ASP108     -0.2715
     95  CB       -11.5180   -9.8400   11.5630 C.3   108  ASP108      0.1450
     96  CG       -12.3030   -8.5410   11.6120 C.2   108  ASP108      0.3671
     97  OD1      -12.5200   -7.9600   12.6900 O.co2 108  ASP108     -0.2456
     98  OD2      -12.7540   -8.1110   10.5410 O.co2 108  ASP108     -0.2456
     99  N         -8.8480   -8.1870   13.2820 N.am  109  HIS109     -0.1973
    100  CA        -7.7280   -7.2480   13.1790 C.3   109  HIS109      0.1656
    101  C         -6.5340   -7.6030   14.0710 C.2   109  HIS109      0.2291
    102  O         -5.3910   -7.2630   13.7250 O.2   109  HIS109     -0.2864
    103  CB        -8.1770   -5.8430   13.4910 C.3   109  HIS109      0.0771
    104  CG        -9.1410   -5.3300   12.5030 C.ar  109  HIS109      0.0820
    105  ND1       -8.7500   -4.6180   11.3910 N.ar  109  HIS109     -0.2267
    106  CD2      -10.4840   -5.4560   12.4270 C.ar  109  HIS109      0.1154
    107  CE1       -9.8170   -4.3690   10.6550 C.ar  109  HIS109      0.1986
    108  NE2      -10.8760   -4.8380   11.2880 N.ar  109  HIS109     -0.2212
    109  N        -17.0590   -7.3710   26.1720 N.3   135  GLU135     -0.1231
    110  CA       -17.4380   -8.7010   25.6770 C.3   135  GLU135      0.1699
    111  C        -17.1240   -8.9570   24.2110 C.2   135  GLU135      0.2592
    112  O        -17.0350  -10.1040   23.8050 O.2   135  GLU135     -0.2718
    113  CB       -18.9180   -8.9840   25.9220 C.3   135  GLU135      0.0402
    114  CG       -19.8730   -8.0680   25.1650 C.3   135  GLU135      0.1161
    115  CD       -21.3260   -8.2420   25.6020 C.2   135  GLU135      0.3649
    116  OE1      -22.1920   -7.4660   25.1290 O.co2 135  GLU135     -0.2457
    117  OE2      -21.5960   -9.1500   26.4250 O.co2 135  GLU135     -0.2457
    118  N        -16.9820   -7.9000   23.4180 N.am  136  GLU136     -0.1966
    119  CA       -16.6990   -8.0560   21.9880 C.3   136  GLU136      0.1733
    120  C        -15.2300   -8.3860   21.6810 C.2   136  GLU136      0.2616
    121  O        -14.8390   -8.4420   20.5100 O.2   136  GLU136     -0.2715
    122  CB       -17.1790   -6.8370   21.1820 C.3   136  GLU136      0.0429
    123  CG       -16.4290   -5.5300   21.3870 C.3   136  GLU136      0.1163
    124  CD       -16.9530   -4.6670   22.5240 C.2   136  GLU136      0.3649
    125  OE1      -16.6220   -3.4610   22.5330 O.co2 136  GLU136     -0.2457
    126  OE2      -17.7090   -5.1660   23.4020 O.co2 136  GLU136     -0.2457
    127  N        -14.4080   -8.5720   22.7190 N.am  137  TYR137     -0.1960
    128  CA       -13.0010   -8.9340   22.5360 C.3   137  TYR137      0.1771
    129  C        -12.7140  -10.3780   22.8680 C.2   137  TYR137      0.2619
    130  O        -13.0950  -10.8760   23.9500 O.2   137  TYR137     -0.2715
    131  CB       -12.1010   -8.0160   23.3580 C.3   137  TYR137      0.0574
    132  CG       -12.1480   -6.5800   22.8340 C.ar  137  TYR137     -0.0198
    133  CD1      -11.3190   -6.1920   21.8030 C.ar  137  TYR137     -0.0009
    134  CD2      -13.0850   -5.6620   23.3200 C.ar  137  TYR137     -0.0009
    135  CE1      -11.3770   -4.9160   21.3060 C.ar  137  TYR137      0.0417
    136  CE2      -13.1370   -4.3730   22.8380 C.ar  137  TYR137      0.0417
    137  CZ       -12.2630   -4.0040   21.8500 C.ar  137  TYR137      0.1957
    138  OH       -12.3060   -2.7360   21.3110 O.3   137  TYR137     -0.2866
    139  N        -12.0640  -11.0510   21.9190 N.am  138  MET138     -0.1977
    140  CA       -11.6640  -12.4440   22.0870 C.3   138  MET138      0.1605
    141  C        -10.3530  -12.4880   22.8520 C.2   138  MET138      0.2287
    142  O         -9.5070  -11.6040   22.6850 O.2   138  MET138     -0.2864
    143  CB       -11.4720  -13.1100   20.7240 C.3   138  MET138      0.0413
    144  CG       -12.7180  -13.2380   19.8740 C.3   138  MET138      0.0598
    145  SD       -12.4500  -14.2450   18.4090 S.3   138  MET138     -0.1393
    146  CE       -12.2870  -15.8970   19.0280 C.3   138  MET138      0.0692
    147  N        -15.7260    3.6000   16.6630 N.3   169  HIS169     -0.1241
    148  CA       -16.0340    2.2570   16.2320 C.3   169  HIS169      0.1621
    149  C        -15.6160    1.2590   17.3240 C.2   169  HIS169      0.2264
    150  O        -16.3340    0.2650   17.5920 O.2   169  HIS169     -0.2867
    151  CB       -15.3700    1.9440   14.8880 C.3   169  HIS169      0.0745
    152  CG       -15.3500    0.4930   14.5780 C.ar  169  HIS169      0.0817
    153  ND1      -16.4700   -0.2290   14.1820 N.ar  169  HIS169     -0.2268
    154  CD2      -14.3420   -0.3900   14.6910 C.ar  169  HIS169      0.1154
    155  CE1      -16.1270   -1.4970   14.0560 C.ar  169  HIS169      0.1986
    156  NE2      -14.8400   -1.6110   14.3370 N.ar  169  HIS169     -0.2212
    157  N        -11.4230    0.7040   10.3370 N.3   191  ASP191     -0.1239
    158  CA       -12.8200    0.6240   10.6990 C.3   191  ASP191      0.1674
    159  C        -13.3960    1.9510   11.2270 C.2   191  ASP191      0.2266
    160  O        -14.5130    1.9580   11.7470 O.2   191  ASP191     -0.2867
    161  CB       -13.0590   -0.5050   11.7140 C.3   191  ASP191      0.1410
    162  CG       -12.9090   -1.9010   11.1200 C.2   191  ASP191      0.3668
    163  OD1      -12.5530   -2.0250    9.9520 O.co2 191  ASP191     -0.2456
    164  OD2      -13.1320   -2.8890   11.8580 O.co2 191  ASP191     -0.2456
    165  N        -16.3020    1.4230    7.4720 N.3   194  TYR194     -0.1241
    166  CA       -16.2560    0.1620    6.7530 C.3   194  TYR194      0.1605
    167  C        -16.3040    0.3890    5.2470 C.2   194  TYR194      0.2264
    168  O        -15.5870   -0.2600    4.5010 O.2   194  TYR194     -0.2867
    169  CB       -17.4340   -0.7380    7.1260 C.3   194  TYR194      0.0534
    170  CG       -17.4180   -1.4290    8.4630 C.ar  194  TYR194     -0.0201
    171  CD1      -16.2950   -1.4610    9.2790 C.ar  194  TYR194     -0.0009
    172  CD2      -18.5420   -2.1240    8.8760 C.ar  194  TYR194     -0.0009
    173  CE1      -16.3170   -2.1590   10.4710 C.ar  194  TYR194      0.0417
    174  CE2      -18.5830   -2.8340   10.0580 C.ar  194  TYR194      0.0417
    175  CZ       -17.4720   -2.8530   10.8610 C.ar  194  TYR194      0.1957
    176  OH       -17.4960   -3.5630   12.0480 O.3   194  TYR194     -0.2866
    177  N        -21.7980   -0.3880   12.4310 N.3   206  ALA206     -0.1245
    178  CA       -21.5820   -0.9510   13.7520 C.3   206  ALA206      0.1562
    179  C        -20.4390   -0.2540   14.4700 C.2   206  ALA206      0.2260
    180  O        -19.3410   -0.0380   13.8880 O.2   206  ALA206     -0.2867
    181  CB       -21.2920   -2.4200   13.6520 C.3   206  ALA206      0.0290
    182  N        -13.7250   -2.3420    5.0770 N.3   235  HIS235     -0.1241
    183  CA       -14.3700   -3.5930    4.5790 C.3   235  HIS235      0.1621
    184  C        -15.3440   -3.2310    3.4710 C.2   235  HIS235      0.2264
    185  O        -16.5780   -3.2860    3.6620 O.2   235  HIS235     -0.2867
    186  CB       -15.1200   -4.3220    5.6940 C.3   235  HIS235      0.0745
    187  CG       -14.2760   -4.6840    6.8850 C.ar  235  HIS235      0.0817
    188  ND1      -13.3860   -5.7300    6.8670 N.ar  235  HIS235     -0.2268
    189  CD2      -14.1980   -4.1510    8.1310 C.ar  235  HIS235      0.1154
    190  CE1      -12.8100   -5.8400    8.0480 C.ar  235  HIS235      0.1986
    191  NE2      -13.2680   -4.8800    8.8320 N.ar  235  HIS235     -0.2212
@<TRIPOS>BOND
     1    15    16    1
     2    16    17    1
     3    16    19    1
     4    17    18    2
     5    22    20    1
     6   184   185    2
     7   184   183    1
     8    19    20    1
     9   168   167    2
    10    20    21    1
    11   183   182    1
    12   183   186    1
    13   167   166    1
    14   186   187    1
    15     4     3    2
    16     1     2    1
    17     3     2    1
    18    10     9    2
    19   166   169    1
    20   166   165    1
    21   188   187   ar
    22   188   190   ar
    23   187   189   ar
    24     2     5    1
    25   169   170    1
    26     7     8    1
    27     9     8    1
    28   190   191   ar
    29   189   191   ar
    30     8    11    1
    31     5     6    1
    32    11    12    1
    33   170   172   ar
    34   170   171   ar
    35   172   174   ar
    36    14    12    1
    37    12    13    1
    38   171   173   ar
    39   163   162   ar
    40   174   175   ar
    41   157   158    1
    42   173   175   ar
    43    98    96   ar
    44   107   108   ar
    45   107   105   ar
    46   158   159    1
    47   158   161    1
    48   175   176    1
    49   162   161    1
    50   162   164   ar
    51    94    93    2
    52   159   160    2
    53   108   106   ar
    54   105   104   ar
    55    95    96    1
    56    95    92    1
    57    96    97   ar
    58    61    60    1
    59    61    62    2
    60    60    59    1
    61    60    63    1
    62    90    88   ar
    63    90    89   ar
    64    88    86   ar
    65    93    92    1
    66    93    99   am
    67   106   104   ar
    68   177   178    1
    69    65    63    1
    70   104   103    1
    71    92    91    1
    72    89    87   ar
    73    63    64    1
    74   100    99    1
    75   100   103    1
    76   100   101    1
    77    64    66    1
    78    86    85   ar
    79    86    84   ar
    80   181   178    1
    81   102   101    2
    82   178   179    1
    83   180   179    2
    84    87    84   ar
    85    91    79   am
    86    85    83   ar
    87   155   153   ar
    88   155   156   ar
    89   153   152   ar
    90    84    82   ar
    91   156   154   ar
    92   152   154   ar
    93   152   151    1
    94    80    79    2
    95   151   148    1
    96    79    78    1
    97    32    30   ar
    98    32    33   ar
    99    30    28   ar
   100    83    82   ar
   101    55    54    2
   102    82    81    1
   103    70    69    2
   104    33    31   ar
   105    23    24    1
   106   148   147    1
   107   148   149    1
   108    71    72    1
   109    71    68    1
   110    73    72   ar
   111    73    75   ar
   112    78    77    1
   113    78    81    1
   114    28    27    1
   115    28    29   ar
   116    27    24    1
   117    54    53    1
   118    77    69   am
   119    69    68    1
   120    72    74   ar
   121    56    58    1
   122    56    53    1
   123    56    57    1
   124    24    25    1
   125    75    76   ar
   126    68    67    1
   127   149   150    2
   128    53    52    1
   129    31    29   ar
   130    25    26    2
   131    74    76   ar
   132   145   146    1
   133   145   144    1
   134    52    43   am
   135    44    43    2
   136    39    38    1
   137    43    42    1
   138   144   143    1
   139    37    36    2
   140   121   120    2
   141   143   140    1
   142    50    48   ar
   143    50    51   ar
   144    38    40    1
   145    38    35    1
   146    36    41   am
   147    36    35    1
   148    34    35    1
   149    48    46   ar
   150    42    41    1
   151    42    45    1
   152   122   123    1
   153   122   119    1
   154    51    49   ar
   155   135   133   ar
   156   135   137   ar
   157   138   137    1
   158   123   124    1
   159   120   119    1
   160   120   127   am
   161    46    45    1
   162    46    47   ar
   163   133   132   ar
   164   137   136   ar
   165   139   140    1
   166   139   129   am
   167   119   118    1
   168    49    47   ar
   169   140   141    1
   170   124   125   ar
   171   124   126   ar
   172   128   127    1
   173   128   129    1
   174   128   131    1
   175   142   141    2
   176   132   134   ar
   177   132   131    1
   178   136   134   ar
   179   129   130    2
   180   118   111   am
   181   112   111    2
   182   111   110    1
   183   116   115   ar
   184   114   115    1
   185   114   113    1
   186   115   117   ar
   187   110   113    1
   188   110   109    1
