@<TRIPOS>MOLECULE
tmp/4j5jB01.pdb
 83 83 0 0 0
SMALL
GASTEIGER

@<TRIPOS>ATOM
      1  N         12.1920  -14.3830  -32.3400 N.3    42  TRP42      -0.1241
      2  CA        12.6310  -14.1480  -30.9710 C.3    42  TRP42       0.1605
      3  C         13.7600  -15.1100  -30.7310 C.2    42  TRP42       0.2264
      4  O         13.9610  -16.0230  -31.5340 O.2    42  TRP42      -0.2867
      5  CB        11.5180  -14.4400  -29.9710 C.3    42  TRP42       0.0550
      6  CG        10.8150  -15.8330  -30.1440 C.ar   42  TRP42       0.0003
      7  CD1        9.7060  -16.0860  -30.8920 C.ar   42  TRP42       0.0946
      8  CD2       11.2020  -17.1030  -29.5510 C.ar   42  TRP42       0.0152
      9  NE1        9.3810  -17.4120  -30.8240 N.ar   42  TRP42      -0.2442
     10  CE2       10.2740  -18.0600  -29.9940 C.ar   42  TRP42       0.0810
     11  CE3       12.2550  -17.5110  -28.7180 C.ar   42  TRP42       0.0012
     12  CZ2       10.3400  -19.4130  -29.6120 C.ar   42  TRP42       0.0191
     13  CZ3       12.3330  -18.8320  -28.3290 C.ar   42  TRP42       0.0001
     14  CH2       11.3710  -19.7880  -28.7760 C.ar   42  TRP42       0.0015
     15  N         15.6980  -17.3180  -27.4060 N.3    44  PRO44      -0.2102
     16  CA        15.4900  -17.7070  -26.0260 C.3    44  PRO44       0.1504
     17  C         16.5130  -17.0930  -25.0820 C.2    44  PRO44       0.2576
     18  O         17.6940  -17.1420  -25.3550 O.2    44  PRO44      -0.2718
     19  CB        15.6960  -19.2320  -26.0580 C.3    44  PRO44       0.0282
     20  CG        16.5600  -19.5150  -27.2630 C.3    44  PRO44       0.0208
     21  CD        16.1590  -18.4600  -28.2570 C.3    44  PRO44       0.0893
     22  N         16.0640  -16.6220  -23.9460 N.am   45  LYS45      -0.1966
     23  CA        16.9410  -16.0180  -22.9470 C.3    45  LYS45       0.1728
     24  C         16.4830  -16.4390  -21.5610 C.2    45  LYS45       0.2616
     25  O         15.3920  -17.0060  -21.3930 O.2    45  LYS45      -0.2715
     26  CB        16.8980  -14.4890  -23.0480 C.3    45  LYS45       0.0311
     27  CG        17.5190  -13.9100  -24.3040 C.3    45  LYS45       0.0038
     28  CD        19.0030  -14.2060  -24.3850 C.3    45  LYS45       0.0206
     29  CE        19.5160  -14.0010  -25.8190 C.3    45  LYS45       0.1093
     30  NZ        20.9820  -13.7980  -25.8870 N.3    45  LYS45      -0.1314
     31  N         17.3280  -16.1920  -20.5690 N.am   46  MET46      -0.1977
     32  CA        16.9280  -16.3790  -19.1620 C.3    46  MET46       0.1605
     33  C         17.1650  -15.1010  -18.3460 C.2    46  MET46       0.2287
     34  O         18.1510  -14.4090  -18.6150 O.2    46  MET46      -0.2864
     35  CB        17.7110  -17.5180  -18.5600 C.3    46  MET46       0.0413
     36  CG        17.1570  -18.8720  -18.8700 C.3    46  MET46       0.0598
     37  SD        18.1290  -20.0530  -17.9010 S.3    46  MET46      -0.1393
     38  CE        17.0240  -20.2700  -16.5130 C.3    46  MET46       0.0692
     39  N         12.6680  -18.4600  -17.8170 N.3    55  LYS55      -0.1231
     40  CA        12.7900  -18.5310  -19.2630 C.3    55  LYS55       0.1693
     41  C         11.8770  -17.5350  -19.9720 C.2    55  LYS55       0.2592
     42  O         10.6630  -17.4830  -19.7420 O.2    55  LYS55      -0.2718
     43  CB        12.5270  -19.9660  -19.7850 C.3    55  LYS55       0.0285
     44  CG        13.4810  -21.0250  -19.1730 C.3    55  LYS55       0.0035
     45  CD        12.9460  -22.4880  -19.4400 C.3    55  LYS55       0.0206
     46  CE        14.0750  -23.5310  -19.3000 C.3    55  LYS55       0.1093
     47  NZ        13.6070  -24.9130  -19.5720 N.3    55  LYS55      -0.1314
     48  N         12.4530  -16.7700  -20.8910 N.am   56  VAL56      -0.1966
     49  CA        11.7060  -15.8200  -21.7040 C.3    56  VAL56       0.1727
     50  C         12.0590  -15.8740  -23.1820 C.2    56  VAL56       0.2616
     51  O         13.1630  -16.3680  -23.5960 O.2    56  VAL56      -0.2715
     52  CB        11.9660  -14.3620  -21.2220 C.3    56  VAL56       0.0290
     53  CG1       11.4180  -14.1730  -19.7890 C.3    56  VAL56       0.0023
     54  CG2       13.4610  -14.0590  -21.2830 C.3    56  VAL56       0.0023
     55  N         11.1770  -15.3050  -23.9880 N.am   57  ARG57      -0.1977
     56  CA        11.5130  -15.0120  -25.4130 C.3    57  ARG57       0.1597
     57  C         11.9630  -13.5810  -25.5450 C.2    57  ARG57       0.2287
     58  O         11.3160  -12.6770  -25.0250 O.2    57  ARG57      -0.2864
     59  CB        10.2900  -15.2330  -26.2860 C.3    57  ARG57       0.0334
     60  CG         9.8010  -16.6580  -26.2490 C.3    57  ARG57       0.0492
     61  CD         8.5710  -16.7740  -27.1170 C.3    57  ARG57       0.2205
     62  NE         8.1320  -18.1480  -27.2050 N.pl3  57  ARG57      -0.0865
     63  CZ         7.1770  -18.5720  -28.0440 C.cat  57  ARG57       0.5346
     64  NH1        6.5690  -17.6990  -28.8440 N.pl3  57  ARG57       0.1354
     65  NH2        6.8360  -19.8610  -28.0770 N.pl3  57  ARG57       0.1354
     66  N          9.3490  -11.7250  -23.1610 N.3    77  VAL77      -0.1231
     67  CA         8.0280  -12.1760  -22.9490 C.3    77  VAL77       0.1692
     68  C          8.1170  -13.4900  -22.2000 C.2    77  VAL77       0.2593
     69  O          8.8720  -14.4090  -22.6050 O.2    77  VAL77      -0.2718
     70  CB         7.2880  -12.3870  -24.2670 C.3    77  VAL77       0.0266
     71  CG1        5.8960  -12.9670  -23.9620 C.3    77  VAL77       0.0020
     72  CG2        7.1740  -11.0380  -25.0830 C.3    77  VAL77       0.0020
     73  N          7.4220  -13.5790  -21.0680 N.am   78  GLY78      -0.1943
     74  CA         7.4160  -14.8430  -20.3260 C.3    78  GLY78       0.1998
     75  C          6.4960  -14.7560  -19.1130 C.2    78  GLY78       0.2480
     76  O          5.9450  -13.7020  -18.8460 O.2    78  GLY78      -0.2729
     77  N          6.3560  -15.8530  -18.3540 N.am   79  PRO79      -0.2726
     78  CA         5.3680  -15.9230  -17.2560 C.3    79  PRO79       0.1402
     79  C          5.8950  -15.2370  -15.9700 C.2    79  PRO79       0.2269
     80  O          6.0580  -15.8440  -14.8920 O.2    79  PRO79      -0.2865
     81  CB         5.1100  -17.4420  -17.1050 C.3    79  PRO79       0.0296
     82  CG         6.4060  -18.0490  -17.4720 C.3    79  PRO79       0.0237
     83  CD         7.0830  -17.1250  -18.5110 C.3    79  PRO79       0.0939
@<TRIPOS>BOND
     1     1     2    1
     2     4     3    2
     3     2     3    1
     4     2     5    1
     5     7     9   ar
     6     7     6   ar
     7     9    10   ar
     8     6     5    1
     9     6     8   ar
    10    10    12   ar
    11    10     8   ar
    12    12    14   ar
    13     8    11   ar
    14    64    63    1
    15    14    13   ar
    16    11    13   ar
    17    21    15    1
    18    21    20    1
    19    65    63    1
    20    63    62    2
    21    15    16    1
    22    20    19    1
    23    62    61    1
    24    61    60    1
    25    59    60    1
    26    59    56    1
    27    19    16    1
    28    16    17    1
    29    30    29    1
    30    29    28    1
    31    57    56    1
    32    57    58    2
    33    56    55    1
    34    18    17    2
    35    72    70    1
    36    17    22   am
    37    28    27    1
    38    27    26    1
    39    70    71    1
    40    70    67    1
    41    55    50   am
    42    22    23    1
    43    51    50    2
    44    50    49    1
    45    66    67    1
    46    26    23    1
    47    67    68    1
    48    23    24    1
    49    69    68    2
    50    68    73   am
    51    49    52    1
    52    49    48    1
    53    24    25    2
    54    24    31   am
    55    54    52    1
    56    52    53    1
    57    73    74    1
    58    48    41   am
    59    31    32    1
    60    74    75    1
    61    41    42    2
    62    41    40    1
    63    43    40    1
    64    43    44    1
    65    47    46    1
    66    45    46    1
    67    45    44    1
    68    40    39    1
    69    32    35    1
    70    32    33    1
    71    75    76    2
    72    75    77   am
    73    36    35    1
    74    36    37    1
    75    34    33    2
    76    83    77    1
    77    83    82    1
    78    77    78    1
    79    37    38    1
    80    82    81    1
    81    78    81    1
    82    78    79    1
    83    79    80    2
