@<TRIPOS>MOLECULE
tmp/4j5jB00.pdb
 100 94 0 0 0
SMALL
GASTEIGER

@<TRIPOS>ATOM
      1  N          4.7600   -2.3740  -14.2990 N.3    23  LEU23      -0.1245
      2  CA         5.3770   -1.7490  -13.1600 C.3    23  LEU23       0.1561
      3  C          6.6320   -1.0650  -13.6440 C.2    23  LEU23       0.2260
      4  O          7.5120   -1.7360  -14.2450 O.2    23  LEU23      -0.2867
      5  CB         5.6880   -2.9060  -12.1730 C.3    23  LEU23       0.0270
      6  CG         6.1710   -2.5830  -10.8080 C.3    23  LEU23       0.0019
      7  CD1        5.0560   -1.8420  -10.0480 C.3    23  LEU23       0.0001
      8  CD2        6.5730   -4.0070  -10.1420 C.3    23  LEU23       0.0001
      9  N         10.1230   -0.2120  -13.2880 N.3    25  ASP25      -0.1239
     10  CA        10.9370   -1.0530  -12.3880 C.3    25  ASP25       0.1674
     11  C         12.4170   -0.7730  -12.6000 C.2    25  ASP25       0.2266
     12  O         13.0180   -1.3690  -13.4360 O.2    25  ASP25      -0.2867
     13  CB        10.6730   -2.5180  -12.6160 C.3    25  ASP25       0.1410
     14  CG        11.3540   -3.4110  -11.5610 C.2    25  ASP25       0.3668
     15  OD1       12.1120   -2.8460  -10.7600 O.co2  25  ASP25      -0.2456
     16  OD2       11.1710   -4.6630  -11.6190 O.co2  25  ASP25      -0.2456
     17  N         14.8270   -1.6740  -10.8580 N.3    27  GLY27      -0.1210
     18  CA        15.6010   -2.9390  -10.6350 C.3    27  GLY27       0.1956
     19  C         15.6580   -3.9180  -11.8240 C.2    27  GLY27       0.2612
     20  O         16.4470   -4.8530  -11.7880 O.2    27  GLY27      -0.2717
     21  N         14.8270   -3.7220  -12.8490 N.am   28  ALA28      -0.1965
     22  CA        14.7040   -4.6440  -13.9770 C.3    28  ALA28       0.1728
     23  C         15.6300   -4.1400  -15.0780 C.2    28  ALA28       0.2616
     24  O         15.4590   -3.0010  -15.5780 O.2    28  ALA28      -0.2715
     25  CB        13.2180   -4.6220  -14.5070 C.3    28  ALA28       0.0334
     26  N         16.6480   -4.9340  -15.4480 N.am   29  ASP29      -0.1957
     27  CA        17.4530   -4.5440  -16.6130 C.3    29  ASP29       0.1840
     28  C         16.5920   -4.3940  -17.8750 C.2    29  ASP29       0.2622
     29  O         16.8030   -3.4570  -18.6620 O.2    29  ASP29      -0.2715
     30  CB        18.5520   -5.5800  -16.8640 C.3    29  ASP29       0.1450
     31  CG        19.5550   -5.6840  -15.6780 C.2    29  ASP29       0.3671
     32  OD1       19.7160   -4.7030  -14.8970 O.co2  29  ASP29      -0.2456
     33  OD2       20.2060   -6.7480  -15.5700 O.co2  29  ASP29      -0.2456
     34  N         15.6080   -5.2870  -18.0980 N.am   30  ASN30      -0.1972
     35  CA        14.8680   -5.2410  -19.3560 C.3    30  ASN30       0.1688
     36  C         13.3740   -5.3740  -19.1030 C.2    30  ASN30       0.2292
     37  O         12.9420   -5.9970  -18.1690 O.2    30  ASN30      -0.2864
     38  CB        15.3320   -6.3610  -20.3090 C.3    30  ASN30       0.1181
     39  CG        16.7070   -6.0270  -20.9520 C.2    30  ASN30       0.2629
     40  OD1       16.8210   -5.1350  -21.8150 O.2    30  ASN30      -0.2716
     41  ND2       17.7000   -6.6790  -20.5060 N.am   30  ASN30      -0.0877
     42  N          9.6920   -6.8470  -19.3930 N.3    32  ILE32      -0.1245
     43  CA         9.1170   -8.2240  -19.5640 C.3    32  ILE32       0.1561
     44  C          7.5930   -8.0950  -19.4990 C.2    32  ILE32       0.2260
     45  O          7.0420   -7.4550  -18.5720 O.2    32  ILE32      -0.2867
     46  CB         9.5480   -9.2170  -18.4680 C.3    32  ILE32       0.0252
     47  CG1       11.0640   -9.1320  -18.1920 C.3    32  ILE32       0.0019
     48  CG2        9.1250  -10.7470  -18.8020 C.3    32  ILE32       0.0019
     49  CD1       11.5690  -10.1350  -17.0230 C.3    32  ILE32       0.0001
     50  N         16.2730  -14.7870  -17.3860 N.3    47  VAL47      -0.1231
     51  CA        16.4870  -13.6520  -16.4340 C.3    47  VAL47       0.1692
     52  C         16.4540  -14.2100  -15.0060 C.2    47  VAL47       0.2593
     53  O         15.6930  -15.1620  -14.7010 O.2    47  VAL47      -0.2718
     54  CB        15.4060  -12.5310  -16.5520 C.3    47  VAL47       0.0266
     55  CG1       15.4190  -11.8850  -17.9380 C.3    47  VAL47       0.0020
     56  CG2       14.0300  -13.0620  -16.2480 C.3    47  VAL47       0.0020
     57  N         17.3010  -13.6620  -14.1390 N.am   48  GLY48      -0.1942
     58  CA        17.3170  -14.1240  -12.7320 C.3    48  GLY48       0.2014
     59  C         16.8560  -13.0270  -11.8040 C.2    48  GLY48       0.2639
     60  O         16.9510  -11.8430  -12.1250 O.2    48  GLY48      -0.2714
     61  N         16.3170  -13.4290  -10.6650 N.am   49  GLY49      -0.1939
     62  CA        15.9880  -12.5110   -9.6180 C.3    49  GLY49       0.2014
     63  C         15.7910  -13.2750   -8.3360 C.2    49  GLY49       0.2638
     64  O         16.3240  -14.3820   -8.1610 O.2    49  GLY49      -0.2714
     65  N         15.0290  -12.6840   -7.4230 N.am   50  ILE50      -0.1977
     66  CA        14.6140  -13.3800   -6.2020 C.3    50  ILE50       0.1596
     67  C         13.9460  -14.7180   -6.5370 C.2    50  ILE50       0.2287
     68  O         12.9660  -14.7440   -7.3150 O.2    50  ILE50      -0.2864
     69  CB        13.6080  -12.4920   -5.3750 C.3    50  ILE50       0.0276
     70  CG1       14.2240  -11.1590   -4.9770 C.3    50  ILE50       0.0022
     71  CG2       13.0270  -13.2730   -4.1760 C.3    50  ILE50       0.0022
     72  CD1       15.2320  -11.2500   -3.9150 C.3    50  ILE50       0.0001
     73  N          6.1680  -13.9410  -16.1240 N.3    80  THR80      -0.1204
     74  CA         6.4370  -13.0480  -15.0060 C.3    80  THR80       0.1979
     75  C          5.1350  -12.8220  -14.2350 C.2    80  THR80       0.2460
     76  O          4.0640  -12.7240  -14.8170 O.2    80  THR80      -0.2732
     77  CB         7.0450  -11.6820  -15.4830 C.3    80  THR80       0.1783
     78  OG1        7.2630  -10.8660  -14.3410 O.3    80  THR80      -0.2211
     79  CG2        6.0730  -10.9620  -16.4980 C.3    80  THR80       0.0376
     80  N          5.2250  -12.8170  -12.8990 N.am   81  PRO81      -0.2717
     81  CA         4.0590  -12.5460  -12.0580 C.3    81  PRO81       0.1535
     82  C          3.4780  -11.1530  -12.2830 C.2    81  PRO81       0.2598
     83  O          2.3010  -10.9250  -12.0150 O.2    81  PRO81      -0.2715
     84  CB         4.6100  -12.6870  -10.6130 C.3    81  PRO81       0.0310
     85  CG         6.0510  -12.7300  -10.7240 C.3    81  PRO81       0.0237
     86  CD         6.4210  -13.1920  -12.1010 C.3    81  PRO81       0.0939
     87  N          4.3090  -10.2320  -12.7750 N.am   82  VAL82      -0.1978
     88  CA         3.8640   -8.8610  -13.0090 C.3    82  VAL82       0.1596
     89  C          4.6010   -8.3090  -14.2410 C.2    82  VAL82       0.2287
     90  O          5.7760   -8.5490  -14.3610 O.2    82  VAL82      -0.2864
     91  CB         4.0940   -7.9330  -11.7550 C.3    82  VAL82       0.0276
     92  CG1        5.5250   -7.8490  -11.3200 C.3    82  VAL82       0.0022
     93  CG2        3.5020   -6.5590  -12.0110 C.3    82  VAL82       0.0022
     94  N          6.7400   -5.7820  -16.2340 N.3    84  VAL84      -0.1245
     95  CA         7.6540   -4.6990  -15.7530 C.3    84  VAL84       0.1561
     96  C          8.2770   -3.9470  -16.8680 C.2    84  VAL84       0.2260
     97  O          8.7030   -4.5580  -17.8620 O.2    84  VAL84      -0.2867
     98  CB         8.8590   -5.1820  -14.8020 C.3    84  VAL84       0.0252
     99  CG1        8.2650   -5.8670  -13.5320 C.3    84  VAL84       0.0019
    100  CG2        9.8710   -6.1970  -15.5030 C.3    84  VAL84       0.0019
@<TRIPOS>BOND
     1    40    39    2
     2    39    41   am
     3    39    38    1
     4    38    35    1
     5    43    44    1
     6    43    42    1
     7    43    46    1
     8    44    45    2
     9    35    36    1
    10    35    34    1
    11    36    37    2
    12    48    46    1
    13    29    28    2
    14    46    47    1
    15    47    49    1
    16    34    28   am
    17    55    54    1
    18    28    27    1
    19    97    96    2
    20    50    51    1
    21    96    95    1
    22    30    27    1
    23    30    31    1
    24    27    26    1
    25    54    51    1
    26    54    56    1
    27    79    77    1
    28    51    52    1
    29    94    95    1
    30    73    74    1
    31    95    98    1
    32    31    33   ar
    33    31    32   ar
    34    24    23    2
    35   100    98    1
    36    77    74    1
    37    77    78    1
    38    26    23   am
    39    23    22    1
    40    74    75    1
    41    52    53    2
    42    52    57   am
    43    76    75    2
    44    98    99    1
    45    25    22    1
    46    90    89    2
    47     1     2    1
    48     4     3    2
    49    89    88    1
    50    75    80   am
    51    57    58    1
    52    22    21    1
    53     3     2    1
    54    12    11    2
    55     9    10    1
    56     2     5    1
    57    88    87    1
    58    88    91    1
    59    80    86    1
    60    80    81    1
    61    21    19   am
    62    87    82   am
    63    58    59    1
    64    13    10    1
    65    13    14    1
    66    11    10    1
    67    82    81    1
    68    82    83    2
    69     5     6    1
    70    60    59    2
    71    86    85    1
    72    81    84    1
    73    93    91    1
    74    19    20    2
    75    19    18    1
    76    59    61   am
    77    91    92    1
    78    16    14   ar
    79    14    15   ar
    80    17    18    1
    81     6     8    1
    82     6     7    1
    83    85    84    1
    84    61    62    1
    85    62    63    1
    86    63    64    2
    87    63    65   am
    88    65    66    1
    89    68    67    2
    90    67    66    1
    91    66    69    1
    92    69    70    1
    93    69    71    1
    94    70    72    1
