@<TRIPOS>MOLECULE
tmp/4j5pA00.pdb
 225 213 0 0 0
SMALL
GASTEIGER

@<TRIPOS>ATOM
      1  N         63.2690  -14.6840  -39.6750 N.3   110  LYS110     -0.1245
      2  CA        61.8770  -14.5540  -39.9810 C.3   110  LYS110      0.1561
      3  C         61.5920  -13.0590  -40.1170 C.2   110  LYS110      0.2260
      4  O         62.1430  -12.2470  -39.3610 O.2   110  LYS110     -0.2867
      5  CB        61.0570  -15.1650  -38.8590 C.3   110  LYS110      0.0271
      6  CG        59.5890  -15.3780  -39.1620 C.3   110  LYS110      0.0035
      7  CD        58.9120  -16.0870  -38.0000 C.3   110  LYS110      0.0206
      8  CE        57.4020  -15.9930  -38.0660 C.3   110  LYS110      0.1093
      9  NZ        56.8520  -16.9800  -37.0890 N.3   110  LYS110     -0.1314
     10  N         54.9450   -8.5560  -42.5220 N.3   122  LEU122     -0.1245
     11  CA        54.0770   -9.6040  -42.1230 C.3   122  LEU122      0.1561
     12  C         53.0390   -9.9070  -43.2400 C.2   122  LEU122      0.2260
     13  O         51.9650  -10.4540  -42.9920 O.2   122  LEU122     -0.2867
     14  CB        53.3520   -9.1990  -40.8290 C.3   122  LEU122      0.0270
     15  CG        54.1950   -8.7780  -39.6310 C.3   122  LEU122      0.0019
     16  CD1       53.2570   -8.8080  -38.4260 C.3   122  LEU122      0.0001
     17  CD2       55.4670   -9.5770  -39.4020 C.3   122  LEU122      0.0001
     18  N         49.9810  -12.0130  -41.8320 N.3   158  SER158     -0.1202
     19  CA        49.7210  -11.6990  -40.4140 C.3   158  SER158      0.2020
     20  C         50.5310  -12.5670  -39.4780 C.2   158  SER158      0.2619
     21  O         50.5840  -12.2840  -38.2740 O.2   158  SER158     -0.2717
     22  CB        48.2520  -11.8320  -40.0040 C.3   158  SER158      0.2103
     23  OG        47.9590  -13.2090  -39.6170 O.3   158  SER158     -0.2182
     24  N         51.1200  -13.6250  -40.0110 N.am  159  MET159     -0.1965
     25  CA        51.8360  -14.6350  -39.2710 C.3   159  MET159      0.1736
     26  C         50.8860  -15.5760  -38.5110 C.2   159  MET159      0.2616
     27  O         51.3550  -16.5010  -37.8570 O.2   159  MET159     -0.2715
     28  CB        52.8620  -14.0070  -38.3210 C.3   159  MET159      0.0427
     29  CG        53.9880  -13.2080  -38.9990 C.3   159  MET159      0.0599
     30  SD        55.4640  -13.0760  -37.9670 S.3   159  MET159     -0.1393
     31  CE        54.7350  -12.1490  -36.6500 C.3   159  MET159      0.0692
     32  N         49.5730  -15.4210  -38.6240 N.am  160  PHE160     -0.1960
     33  CA        48.6700  -16.3040  -37.8520 C.3   160  PHE160      0.1771
     34  C         48.0400  -17.3800  -38.6860 C.2   160  PHE160      0.2620
     35  O         46.9080  -17.2140  -39.1550 O.2   160  PHE160     -0.2715
     36  CB        47.5510  -15.5270  -37.1500 C.3   160  PHE160      0.0574
     37  CG        46.8900  -16.3100  -36.0460 C.ar  160  PHE160     -0.0200
     38  CD1       47.5360  -16.4750  -34.8080 C.ar  160  PHE160     -0.0042
     39  CD2       45.6300  -16.8960  -36.2290 C.ar  160  PHE160     -0.0042
     40  CE1       46.9540  -17.1980  -33.8100 C.ar  160  PHE160     -0.0003
     41  CE2       45.0390  -17.6330  -35.1940 C.ar  160  PHE160     -0.0003
     42  CZ        45.7080  -17.7770  -33.9850 C.ar  160  PHE160     -0.0000
     43  N         48.7830  -18.4820  -38.7990 N.am  161  SER161     -0.1936
     44  CA        48.5800  -19.5300  -39.7830 C.3   161  SER161      0.2055
     45  C         49.7910  -20.4640  -39.7080 C.2   161  SER161      0.2643
     46  O         50.9340  -20.0050  -39.4610 O.2   161  SER161     -0.2714
     47  CB        48.4540  -18.8970  -41.2120 C.3   161  SER161      0.2130
     48  OG        48.5010  -19.8530  -42.3000 O.3   161  SER161     -0.2179
     49  N         49.5690  -21.7570  -39.9630 N.am  162  TYR162     -0.1973
     50  CA        50.6900  -22.6860  -40.2010 C.3   162  TYR162      0.1639
     51  C         50.9330  -23.0090  -41.6880 C.2   162  TYR162      0.2290
     52  O         51.5450  -24.0480  -42.0250 O.2   162  TYR162     -0.2864
     53  CB        50.6470  -23.9740  -39.3630 C.3   162  TYR162      0.0560
     54  CG        49.5200  -24.9720  -39.5810 C.ar  162  TYR162     -0.0198
     55  CD1       49.8000  -26.2520  -40.0450 C.ar  162  TYR162     -0.0009
     56  CD2       48.2190  -24.6920  -39.2050 C.ar  162  TYR162     -0.0009
     57  CE1       48.7950  -27.2060  -40.1930 C.ar  162  TYR162      0.0417
     58  CE2       47.1940  -25.6340  -39.3620 C.ar  162  TYR162      0.0417
     59  CZ        47.4980  -26.8890  -39.8500 C.ar  162  TYR162      0.1957
     60  OH        46.5460  -27.8450  -40.0320 O.3   162  TYR162     -0.2866
     61  N         54.3480  -23.1130  -41.1930 N.3   184  GLY184     -0.1210
     62  CA        54.3780  -21.7070  -40.8120 C.3   184  GLY184      0.1956
     63  C         54.0100  -21.5090  -39.3620 C.2   184  GLY184      0.2612
     64  O         53.6930  -22.5100  -38.6890 O.2   184  GLY184     -0.2717
     65  N         54.0240  -20.2480  -38.8850 N.am  185  SER185     -0.1952
     66  CA        54.3440  -19.0950  -39.7370 C.3   185  SER185      0.1924
     67  C         55.8270  -18.8770  -40.0660 C.2   185  SER185      0.2314
     68  O         56.1250  -18.0150  -40.8370 O.2   185  SER185     -0.2863
     69  CB        53.7320  -17.8320  -39.1360 C.3   185  SER185      0.2116
     70  OG        54.0920  -17.6410  -37.7910 O.3   185  SER185     -0.2180
     71  N         59.4440  -17.4410  -34.6710 N.3   204  THR204     -0.1203
     72  CA        58.5210  -17.2310  -33.5530 C.3   204  THR204      0.1994
     73  C         57.3840  -18.2940  -33.6260 C.2   204  THR204      0.2618
     74  O         57.2550  -18.9610  -34.6110 O.2   204  THR204     -0.2717
     75  CB        57.9490  -15.8030  -33.5090 C.3   204  THR204      0.1784
     76  OG1       57.0000  -15.5620  -34.5630 O.3   204  THR204     -0.2211
     77  CG2       59.0660  -14.8240  -33.5820 C.3   204  THR204      0.0376
     78  N         56.6230  -18.4600  -32.5440 N.am  205  ASP205     -0.1959
     79  CA        55.7240  -19.5920  -32.2910 C.3   205  ASP205      0.1840
     80  C         54.6750  -19.1950  -31.2400 C.2   205  ASP205      0.2622
     81  O         55.0310  -18.8490  -30.1190 O.2   205  ASP205     -0.2715
     82  CB        56.5530  -20.7460  -31.7540 C.3   205  ASP205      0.1450
     83  CG        55.8240  -22.0800  -31.7390 C.2   205  ASP205      0.3671
     84  OD1       56.4380  -23.0480  -32.1760 O.co2 205  ASP205     -0.2456
     85  OD2       54.6660  -22.2040  -31.2540 O.co2 205  ASP205     -0.2456
     86  N         53.4020  -19.2120  -31.6060 N.am  206  ILE206     -0.1963
     87  CA        52.3370  -19.0130  -30.6370 C.3   206  ILE206      0.1727
     88  C         51.2950  -20.1810  -30.6010 C.2   206  ILE206      0.2616
     89  O         50.5450  -20.3050  -29.6020 O.2   206  ILE206     -0.2715
     90  CB        51.6780  -17.6260  -30.8240 C.3   206  ILE206      0.0290
     91  CG1       51.0140  -17.1570  -29.4880 C.3   206  ILE206      0.0022
     92  CG2       50.6910  -17.6080  -31.9530 C.3   206  ILE206      0.0023
     93  CD1       50.6540  -15.6610  -29.4590 C.3   206  ILE206      0.0001
     94  N         51.3030  -21.0170  -31.6540 N.am  207  GLY207     -0.1955
     95  CA        50.4610  -22.2210  -31.8380 C.3   207  GLY207      0.1869
     96  C         51.2030  -23.3820  -32.4920 C.2   207  GLY207      0.2309
     97  O         50.6240  -24.4070  -32.8540 O.2   207  GLY207     -0.2863
     98  N         54.4170  -22.3180  -34.5650 N.3   209  SER209     -0.1217
     99  CA        55.0480  -21.6970  -35.7470 C.3   209  SER209      0.1889
    100  C         56.5510  -21.8910  -35.9300 C.2   209  SER209      0.2288
    101  O         57.0790  -21.5290  -36.9850 O.2   209  SER209     -0.2866
    102  CB        54.7040  -20.2350  -35.7890 C.3   209  SER209      0.2089
    103  OG        53.3380  -20.0490  -36.1750 O.3   209  SER209     -0.2183
    104  N         55.9210  -26.5040  -36.7180 N.3   212  PHE212     -0.1241
    105  CA        55.3370  -26.9620  -37.9690 C.3   212  PHE212      0.1605
    106  C         56.3380  -26.9030  -39.0970 C.2   212  PHE212      0.2264
    107  O         56.5230  -27.9020  -39.7720 O.2   212  PHE212     -0.2867
    108  CB        54.1550  -26.1060  -38.4100 C.3   212  PHE212      0.0534
    109  CG        52.9290  -26.2980  -37.5870 C.ar  212  PHE212     -0.0203
    110  CD1       52.3030  -27.5160  -37.5400 C.ar  212  PHE212     -0.0042
    111  CD2       52.3890  -25.2450  -36.9180 C.ar  212  PHE212     -0.0042
    112  CE1       51.1580  -27.6820  -36.8360 C.ar  212  PHE212     -0.0003
    113  CE2       51.2540  -25.4020  -36.1800 C.ar  212  PHE212     -0.0003
    114  CZ        50.6450  -26.6180  -36.1350 C.ar  212  PHE212     -0.0000
    115  N         54.7920   -7.1470  -34.3890 N.3   236  GLY236     -0.1210
    116  CA        53.5690   -7.8990  -34.1380 C.3   236  GLY236      0.1956
    117  C         52.3260   -7.2700  -34.7350 C.2   236  GLY236      0.2612
    118  O         52.3910   -6.3620  -35.5670 O.2   236  GLY236     -0.2717
    119  N         51.1770   -7.7560  -34.2850 N.am  237  CYS237     -0.1956
    120  CA        49.8930   -7.3700  -34.8480 C.3   237  CYS237      0.1843
    121  C         48.8130   -7.2260  -33.8340 C.2   237  CYS237      0.2625
    122  O         47.8060   -6.5860  -34.1090 O.2   237  CYS237     -0.2714
    123  CB        49.4670   -8.3560  -35.9240 C.3   237  CYS237      0.0997
    124  SG        49.2760  -10.0580  -35.3720 S.3   237  CYS237     -0.0797
    125  N         49.0270   -7.7940  -32.6440 N.am  238  VAL238     -0.1977
    126  CA        48.1380   -7.6450  -31.5080 C.3   238  VAL238      0.1596
    127  C         48.9790   -7.2460  -30.3300 C.2   238  VAL238      0.2287
    128  O         49.9820   -7.8670  -30.0570 O.2   238  VAL238     -0.2864
    129  CB        47.4580   -8.9950  -31.1560 C.3   238  VAL238      0.0276
    130  CG1       46.6440   -8.9040  -29.8790 C.3   238  VAL238      0.0022
    131  CG2       46.5490   -9.4030  -32.2790 C.3   238  VAL238      0.0022
    132  N         53.7780  -15.3170  -26.8060 N.3   246  LEU246     -0.1245
    133  CA        54.5210  -15.5450  -28.0220 C.3   246  LEU246      0.1561
    134  C         55.9090  -15.9800  -27.5940 C.2   246  LEU246      0.2260
    135  O         56.3240  -15.5690  -26.5510 O.2   246  LEU246     -0.2867
    136  CB        54.6010  -14.2330  -28.6920 C.3   246  LEU246      0.0270
    137  CG        55.4290  -14.1250  -29.9490 C.3   246  LEU246      0.0019
    138  CD1       55.0110  -15.2350  -30.8820 C.3   246  LEU246      0.0001
    139  CD2       55.1170  -12.7800  -30.5460 C.3   246  LEU246      0.0001
    140  N         42.0950  -20.7360  -27.4470 N.3   345  THR345     -0.1218
    141  CA        41.2470  -19.9200  -28.2980 C.3   345  THR345      0.1862
    142  C         40.8040  -18.6520  -27.5890 C.2   345  THR345      0.2287
    143  O         40.9030  -17.5800  -28.1260 O.2   345  THR345     -0.2866
    144  CB        40.0290  -20.7670  -28.7640 C.3   345  THR345      0.1770
    145  OG1       40.4740  -21.8570  -29.6070 O.3   345  THR345     -0.2211
    146  CG2       39.0760  -19.9240  -29.5640 C.3   345  THR345      0.0375
    147  N         43.7510  -16.1510  -27.1850 N.3   348  LEU348     -0.1231
    148  CA        44.2150  -15.5110  -28.4010 C.3   348  LEU348      0.1693
    149  C         43.1380  -14.5710  -28.8480 C.2   348  LEU348      0.2592
    150  O         43.4510  -13.5400  -29.3540 O.2   348  LEU348     -0.2718
    151  CB        44.5730  -16.5180  -29.4850 C.3   348  LEU348      0.0284
    152  CG        45.7790  -17.3840  -29.0890 C.3   348  LEU348      0.0019
    153  CD1       45.7960  -18.7160  -29.8330 C.3   348  LEU348      0.0001
    154  CD2       47.0800  -16.6770  -29.3340 C.3   348  LEU348      0.0001
    155  N         41.8540  -14.8860  -28.6290 N.am  349  PHE349     -0.1976
    156  CA        40.7790  -14.0290  -29.1820 C.3   349  PHE349      0.1639
    157  C         39.8110  -13.5000  -28.1350 C.2   349  PHE349      0.2290
    158  O         38.6270  -13.4390  -28.3730 O.2   349  PHE349     -0.2864
    159  CB        40.0320  -14.8220  -30.2850 C.3   349  PHE349      0.0560
    160  CG        40.8850  -15.1230  -31.5030 C.ar  349  PHE349     -0.0200
    161  CD1       41.2090  -14.1230  -32.3880 C.ar  349  PHE349     -0.0042
    162  CD2       41.3620  -16.3890  -31.7520 C.ar  349  PHE349     -0.0042
    163  CE1       42.0300  -14.3710  -33.4730 C.ar  349  PHE349     -0.0003
    164  CE2       42.1410  -16.6680  -32.8650 C.ar  349  PHE349     -0.0003
    165  CZ        42.5010  -15.6520  -33.7080 C.ar  349  PHE349     -0.0000
    166  N         43.2210   -7.8910  -33.8650 N.3   356  PHE356     -0.1241
    167  CA        43.7940   -8.6380  -34.9580 C.3   356  PHE356      0.1605
    168  C         43.2410   -8.1770  -36.2880 C.2   356  PHE356      0.2264
    169  O         43.9850   -7.8390  -37.1460 O.2   356  PHE356     -0.2867
    170  CB        43.4740  -10.1150  -34.8010 C.3   356  PHE356      0.0534
    171  CG        44.0490  -10.9910  -35.8790 C.ar  356  PHE356     -0.0203
    172  CD1       45.3880  -11.2480  -35.9420 C.ar  356  PHE356     -0.0042
    173  CD2       43.2360  -11.6440  -36.7640 C.ar  356  PHE356     -0.0042
    174  CE1       45.8990  -12.1200  -36.8730 C.ar  356  PHE356     -0.0003
    175  CE2       43.7470  -12.5010  -37.7060 C.ar  356  PHE356     -0.0003
    176  CZ        45.0800  -12.7280  -37.7730 C.ar  356  PHE356     -0.0000
    177  N         39.1580  -17.9220  -41.8370 N.3   372  LEU372     -0.1245
    178  CA        39.4680  -17.3560  -40.5200 C.3   372  LEU372      0.1561
    179  C         38.9570  -15.9100  -40.3760 C.2   372  LEU372      0.2260
    180  O         38.2550  -15.5820  -39.3940 O.2   372  LEU372     -0.2867
    181  CB        40.9650  -17.4310  -40.1970 C.3   372  LEU372      0.0270
    182  CG        41.4580  -16.6400  -38.9490 C.3   372  LEU372      0.0019
    183  CD1       40.8650  -17.2740  -37.6990 C.3   372  LEU372      0.0001
    184  CD2       42.9990  -16.4700  -38.8470 C.3   372  LEU372      0.0001
    185  N         35.2010  -23.8680  -30.8510 N.3   400  PHE400     -0.1241
    186  CA        36.1750  -22.8420  -31.3040 C.3   400  PHE400      0.1605
    187  C         35.3450  -21.5820  -31.5490 C.2   400  PHE400      0.2264
    188  O         35.6600  -20.5130  -31.0550 O.2   400  PHE400     -0.2867
    189  CB        37.0150  -23.2880  -32.5290 C.3   400  PHE400      0.0534
    190  CG        38.2980  -24.0380  -32.1630 C.ar  400  PHE400     -0.0203
    191  CD1       39.5530  -23.3990  -32.1910 C.ar  400  PHE400     -0.0042
    192  CD2       38.2840  -25.3820  -31.8160 C.ar  400  PHE400     -0.0042
    193  CE1       40.7350  -24.1010  -31.8520 C.ar  400  PHE400     -0.0003
    194  CE2       39.4880  -26.0650  -31.4980 C.ar  400  PHE400     -0.0003
    195  CZ        40.7000  -25.4410  -31.5280 C.ar  400  PHE400     -0.0000
    196  N         35.6140  -17.5690  -29.4230 N.3   404  MET404     -0.1245
    197  CA        36.1710  -16.4410  -30.1780 C.3   404  MET404      0.1570
    198  C         35.3040  -15.2110  -30.0530 C.2   404  MET404      0.2261
    199  O         35.3630  -14.3340  -30.9030 O.2   404  MET404     -0.2867
    200  CB        36.1790  -16.7390  -31.6460 C.3   404  MET404      0.0387
    201  CG        37.1640  -17.7760  -32.0630 C.3   404  MET404      0.0595
    202  SD        36.9810  -18.1110  -33.8510 S.3   404  MET404     -0.1393
    203  CE        37.9230  -19.6260  -33.8900 C.3   404  MET404      0.0692
    204  N         42.2560  -26.2540  -38.8490 N.3   456  THR456     -0.1218
    205  CA        42.6390  -25.6020  -37.5990 C.3   456  THR456      0.1862
    206  C         42.8490  -26.5660  -36.4080 C.2   456  THR456      0.2287
    207  O         43.7480  -26.3750  -35.6110 O.2   456  THR456     -0.2866
    208  CB        41.6100  -24.5080  -37.2290 C.3   456  THR456      0.1770
    209  OG1       41.5690  -23.5210  -38.2430 O.3   456  THR456     -0.2211
    210  CG2       41.9990  -23.8220  -35.9840 C.3   456  THR456      0.0375
    211  N         46.3050  -28.1120  -35.0580 N.3   459  VAL459     -0.1245
    212  CA        47.2780  -27.4430  -34.1850 C.3   459  VAL459      0.1561
    213  C         47.3130  -28.0560  -32.7680 C.2   459  VAL459      0.2260
    214  O         48.1290  -27.6690  -31.9250 O.2   459  VAL459     -0.2867
    215  CB        47.0020  -25.9330  -34.0380 C.3   459  VAL459      0.0252
    216  CG1       46.8460  -25.2460  -35.3660 C.3   459  VAL459      0.0019
    217  CG2       45.7930  -25.6530  -33.1990 C.3   459  VAL459      0.0019
    218  N         49.7820  -26.4260  -30.1080 N.3   463  MET463     -0.1245
    219  CA        49.2540  -25.3380  -29.3260 C.3   463  MET463      0.1570
    220  C         49.0990  -25.6570  -27.8260 C.2   463  MET463      0.2261
    221  O         49.0560  -24.7870  -27.0030 O.2   463  MET463     -0.2867
    222  CB        47.9380  -24.8090  -29.8290 C.3   463  MET463      0.0387
    223  CG        47.6630  -23.4550  -29.2050 C.3   463  MET463      0.0595
    224  SD        46.5170  -22.5150  -30.2170 S.3   463  MET463     -0.1393
    225  CE        45.1380  -23.6410  -30.1300 C.3   463  MET463      0.0692
@<TRIPOS>BOND
     1    12    13    2
     2    12    11    1
     3    10    11    1
     4    48    47    1
     5    11    14    1
     6    52    51    2
     7   177   178    1
     8    18    19    1
     9    51    50    1
    10    47    44    1
    11    61    62    1
    12    68    67    2
    13    14    15    1
    14    62    63    1
    15   178   179    1
    16   178   181    1
    17    19    22    1
    18    19    20    1
    19   179   180    2
    20    50    49    1
    21    50    53    1
    22   181   182    1
    23    57    55   ar
    24    57    59   ar
    25     3     2    1
    26     3     4    2
    27    67    66    1
    28    55    54   ar
    29    60    59    1
    30    24    20   am
    31    24    25    1
    32    22    23    1
    33     2     1    1
    34     2     5    1
    35    49    45   am
    36    59    58   ar
    37    44    45    1
    38    44    43    1
    39   107   106    2
    40    66    69    1
    41    66    65    1
    42    45    46    2
    43    15    17    1
    44    15    16    1
    45    54    53    1
    46    54    56   ar
    47    20    21    2
    48    58    56   ar
    49    63    65   am
    50    63    64    2
    51    25    26    1
    52    25    28    1
    53     6     5    1
    54     6     7    1
    55    35    34    2
    56    69    70    1
    57   106   105    1
    58    29    28    1
    59    29    30    1
    60   182   184    1
    61   182   183    1
    62   204   205    1
    63    43    34   am
    64    34    33    1
    65    32    26   am
    66    32    33    1
    67    26    27    2
    68   108   105    1
    69   108   109    1
    70   209   208    1
    71     8     7    1
    72     8     9    1
    73   105   104    1
    74    30    31    1
    75    33    36    1
    76   176   175   ar
    77   176   174   ar
    78   175   173   ar
    79   205   208    1
    80   205   206    1
    81   109   110   ar
    82   109   111   ar
    83   110   112   ar
    84   208   210    1
    85    36    37    1
    86   169   168    2
    87   101   100    2
    88   111   113   ar
    89   174   172   ar
    90   112   114   ar
    91   173   171   ar
    92   206   207    2
    93   168   167    1
    94    39    37   ar
    95    39    41   ar
    96   113   114   ar
    97   103   102    1
    98    37    38   ar
    99   172   171   ar
   100   100    99    1
   101   123   124    1
   102   123   120    1
   103   171   170    1
   104   102    99    1
   105    99    98    1
   106   118   117    2
   107   216   215    1
   108    41    42   ar
   109   211   212    1
   110   167   170    1
   111   167   166    1
   112   120   119    1
   113   120   121    1
   114    38    40   ar
   115   117   119   am
   116   117   116    1
   117    71    72    1
   118    74    73    2
   119    76    75    1
   120   115   116    1
   121   212   215    1
   122   212   213    1
   123   122   121    2
   124   215   217    1
   125    42    40   ar
   126   203   202    1
   127   202   201    1
   128   121   125   am
   129   165   163   ar
   130   165   164   ar
   131    73    72    1
   132    73    78   am
   133    77    75    1
   134    72    75    1
   135   163   161   ar
   136   164   162   ar
   137    97    96    2
   138   213   214    2
   139   125   126    1
   140    78    79    1
   141   189   190    1
   142   189   186    1
   143    96    95    1
   144   161   160   ar
   145    79    82    1
   146    79    80    1
   147   131   129    1
   148   191   190   ar
   149   191   193   ar
   150    84    83   ar
   151   190   192   ar
   152   201   200    1
   153    92    90    1
   154   193   195   ar
   155    95    94    1
   156   192   194   ar
   157    82    83    1
   158   162   160   ar
   159    83    85   ar
   160    94    88   am
   161   200   197    1
   162    86    80   am
   163    86    87    1
   164   187   186    1
   165   187   188    2
   166   195   194   ar
   167   126   129    1
   168   126   127    1
   169   160   159    1
   170   186   185    1
   171    80    81    2
   172   129   130    1
   173   199   198    2
   174   138   137    1
   175    90    87    1
   176    90    91    1
   177    87    88    1
   178    88    89    2
   179   139   137    1
   180   127   128    2
   181   159   156    1
   182   224   225    1
   183   224   223    1
   184   197   198    1
   185   197   196    1
   186   218   219    1
   187   137   136    1
   188   153   152    1
   189   222   219    1
   190   222   223    1
   191   145   144    1
   192   146   144    1
   193    91    93    1
   194   151   152    1
   195   151   148    1
   196   150   149    2
   197   154   152    1
   198   219   220    1
   199   156   155    1
   200   156   157    1
   201   149   155   am
   202   149   148    1
   203   144   141    1
   204   136   133    1
   205   148   147    1
   206   158   157    2
   207   141   142    1
   208   141   140    1
   209   143   142    2
   210   133   134    1
   211   133   132    1
   212   220   221    2
   213   134   135    2
