@<TRIPOS>MOLECULE
tmp/4j5rB00.pdb
 118 116 0 0 0
SMALL
GASTEIGER

@<TRIPOS>ATOM
      1  N         -4.9280   54.9650   44.2540 N.3     7  GLY7       -0.1210
      2  CA        -3.8450   55.0300   43.2880 C.3     7  GLY7        0.1956
      3  C         -3.6010   56.4260   42.7550 C.2     7  GLY7        0.2612
      4  O         -4.0930   57.4090   43.3090 O.2     7  GLY7       -0.2717
      5  N         -2.7630   56.4560   41.7130 N.am    8  ASP8       -0.1959
      6  CA        -2.4100   57.6340   40.9220 C.3     8  ASP8        0.1840
      7  C         -3.7210   58.1770   40.3710 C.2     8  ASP8        0.2622
      8  O         -4.4980   57.4150   39.8240 O.2     8  ASP8       -0.2715
      9  CB        -1.4870   57.1680   39.7640 C.3     8  ASP8        0.1450
     10  CG        -0.5520   58.2700   39.2220 C.2     8  ASP8        0.3671
     11  OD1       -0.8080   59.4740   39.4870 O.co2   8  ASP8       -0.2456
     12  OD2        0.4430   57.9200   38.4990 O.co2   8  ASP8       -0.2456
     13  N         -3.9720   59.4820   40.5130 N.am    9  LEU9       -0.1963
     14  CA        -4.9820   60.1720   39.6650 C.3     9  LEU9        0.1728
     15  C         -4.5190   60.1560   38.2220 C.2     9  LEU9        0.2616
     16  O         -5.2950   59.9560   37.2980 O.2     9  LEU9       -0.2715
     17  CB        -5.1440   61.6140   40.1120 C.3     9  LEU9        0.0311
     18  CG        -5.9740   62.4890   39.1820 C.3     9  LEU9        0.0022
     19  CD1       -7.4250   62.0420   39.1190 C.3     9  LEU9        0.0001
     20  CD2       -5.9520   63.9380   39.6240 C.3     9  LEU9        0.0001
     21  N         -3.2320   60.3750   38.0230 N.am   10  PHE10      -0.1974
     22  CA        -2.6900   60.5390   36.6900 C.3    10  PHE10       0.1639
     23  C         -2.5500   59.2290   35.9280 C.2    10  PHE10       0.2290
     24  O         -2.1780   59.2440   34.7640 O.2    10  PHE10      -0.2864
     25  CB        -1.3920   61.3580   36.7360 C.3    10  PHE10       0.0560
     26  CG        -1.5740   62.7260   37.3230 C.ar   10  PHE10      -0.0200
     27  CD1       -2.2800   63.7110   36.6490 C.ar   10  PHE10      -0.0042
     28  CD2       -1.1360   62.9940   38.6160 C.ar   10  PHE10      -0.0042
     29  CE1       -2.4690   64.9780   37.2180 C.ar   10  PHE10      -0.0003
     30  CE2       -1.3580   64.2240   39.1910 C.ar   10  PHE10      -0.0003
     31  CZ        -2.0050   65.2240   38.4910 C.ar   10  PHE10      -0.0000
     32  N          0.4830   70.5980   47.2060 N.3    31  GLY31      -0.1210
     33  CA        -0.5250   69.6120   47.0130 C.3    31  GLY31       0.1956
     34  C         -0.4690   68.9480   45.6420 C.2    31  GLY31       0.2611
     35  O          0.5700   68.8870   44.9880 O.2    31  GLY31      -0.2717
     36  N         -1.6200   68.4410   45.1970 N.am   32  ILE32      -0.1979
     37  CA        -1.7170   67.8730   43.8830 C.3    32  ILE32       0.1595
     38  C         -1.5920   68.9700   42.8300 C.2    32  ILE32       0.2287
     39  O         -1.2270   68.6890   41.6820 O.2    32  ILE32      -0.2864
     40  CB        -3.0080   67.0520   43.7120 C.3    32  ILE32       0.0276
     41  CG1       -2.8890   66.0800   42.5460 C.3    32  ILE32       0.0022
     42  CG2       -4.2310   67.9610   43.5510 C.3    32  ILE32       0.0022
     43  CD1       -4.0090   65.0820   42.4620 C.3    32  ILE32       0.0001
     44  N          1.5490   69.1950   40.8430 N.3    35  LEU35      -0.1245
     45  CA         1.6660   68.1230   39.8430 C.3    35  LEU35       0.1561
     46  C          0.8710   68.4670   38.5990 C.2    35  LEU35       0.2260
     47  O          1.3280   68.1730   37.4820 O.2    35  LEU35      -0.2867
     48  CB         1.2350   66.7740   40.4550 C.3    35  LEU35       0.0270
     49  CG         2.1170   66.3540   41.6540 C.3    35  LEU35       0.0019
     50  CD1        1.5910   65.0350   42.1740 C.3    35  LEU35       0.0001
     51  CD2        3.5800   66.3460   41.2610 C.3    35  LEU35       0.0001
     52  N         -8.9700   64.1510   42.6200 N.3   106  PRO106     -0.2102
     53  CA        -8.6120   63.7700   43.9730 C.3   106  PRO106      0.1504
     54  C         -9.7180   64.1100   44.9450 C.2   106  PRO106      0.2576
     55  O        -10.8000   64.4920   44.5140 O.2   106  PRO106     -0.2718
     56  CB        -7.3490   64.6050   44.2230 C.3   106  PRO106      0.0282
     57  CG        -7.7180   65.9030   43.5750 C.3   106  PRO106      0.0208
     58  CD        -8.4880   65.5220   42.3170 C.3   106  PRO106      0.0893
     59  N         -9.4320   64.0030   46.2470 N.am  107  ARG107     -0.1966
     60  CA       -10.3780   64.4710   47.2850 C.3   107  ARG107      0.1729
     61  C        -10.3430   65.9810   47.3780 C.2   107  ARG107      0.2616
     62  O         -9.7530   66.5900   48.2890 O.2   107  ARG107     -0.2715
     63  CB       -10.1060   63.8170   48.6320 C.3   107  ARG107      0.0348
     64  CG       -10.3390   62.3320   48.6400 C.3   107  ARG107      0.0492
     65  CD       -10.0980   61.7770   50.0360 C.3   107  ARG107      0.2205
     66  NE       -10.0050   60.3220   50.1760 N.pl3 107  ARG107     -0.0865
     67  CZ       -11.0480   59.5210   50.3580 C.cat 107  ARG107      0.5346
     68  NH1      -12.2650   60.0040   50.3640 N.pl3 107  ARG107      0.1354
     69  NH2      -10.8840   58.2240   50.5240 N.pl3 107  ARG107      0.1354
     70  N        -10.9350   66.6040   46.3600 N.am  108  ILE108     -0.1963
     71  CA       -10.8320   68.0420   46.1620 C.3   108  ILE108      0.1727
     72  C        -11.2610   68.8340   47.3860 C.2   108  ILE108      0.2617
     73  O        -12.2920   68.5380   48.0240 O.2   108  ILE108     -0.2715
     74  CB       -11.6790   68.4550   44.9490 C.3   108  ILE108      0.0290
     75  CG1      -13.1240   67.9400   45.0050 C.3   108  ILE108      0.0022
     76  CG2      -11.0030   68.0140   43.6550 C.3   108  ILE108      0.0023
     77  CD1      -14.0710   68.6360   44.0540 C.3   108  ILE108      0.0001
     78  N        -10.4760   69.8440   47.7460 N.am  109  GLY109     -0.1940
     79  CA       -10.7720   70.7230   48.8480 C.3   109  GLY109      0.2014
     80  C        -10.3600   70.2090   50.1970 C.2   109  GLY109      0.2639
     81  O        -10.4240   70.9730   51.1570 O.2   109  GLY109     -0.2714
     82  N         -9.9670   68.9410   50.2900 N.am  110  CYS110     -0.1953
     83  CA        -9.8530   68.2530   51.5910 C.3   110  CYS110      0.1843
     84  C         -8.4320   67.9440   52.0150 C.2   110  CYS110      0.2626
     85  O         -8.2520   67.1820   52.9580 O.2   110  CYS110     -0.2714
     86  CB       -10.7020   67.0190   51.5250 C.3   110  CYS110      0.0997
     87  SG       -12.4680   67.3530   51.2500 S.3   110  CYS110     -0.0797
     88  N         -7.4510   68.5550   51.3470 N.am  111  GLY111     -0.1940
     89  CA        -6.0560   68.5110   51.8400 C.3   111  GLY111      0.2014
     90  C         -5.7480   69.8480   52.4440 C.2   111  GLY111      0.2638
     91  O         -6.2750   70.1960   53.5180 O.2   111  GLY111     -0.2714
     92  N         -4.9130   70.6160   51.7940 N.am  112  LEU112     -0.1977
     93  CA        -4.5440   71.9380   52.2660 C.3   112  LEU112      0.1596
     94  C         -5.7020   72.8780   52.4700 C.2   112  LEU112      0.2287
     95  O         -5.6680   73.7760   53.3180 O.2   112  LEU112     -0.2864
     96  CB        -3.4940   72.5660   51.3620 C.3   112  LEU112      0.0297
     97  CG        -2.1060   71.9320   51.4760 C.3   112  LEU112      0.0022
     98  CD1       -1.3200   72.1670   50.1980 C.3   112  LEU112      0.0001
     99  CD2       -1.3900   72.3960   52.7300 C.3   112  LEU112      0.0001
    100  N         -9.7390   59.5590   43.2410 N.3   138  TYR138     -0.1227
    101  CA        -8.4940   58.8670   43.5500 C.3   138  TYR138      0.1736
    102  C         -7.9820   59.2770   44.9030 C.2   138  TYR138      0.2596
    103  O         -7.9840   60.4660   45.2220 O.2   138  TYR138     -0.2718
    104  CB        -7.4310   59.1740   42.4880 C.3   138  TYR138      0.0548
    105  CG        -7.7510   58.4540   41.2060 C.ar  138  TYR138     -0.0200
    106  CD1       -8.7120   58.9020   40.3260 C.ar  138  TYR138     -0.0009
    107  CD2       -7.0870   57.2890   40.8890 C.ar  138  TYR138     -0.0009
    108  CE1       -9.0210   58.1760   39.2040 C.ar  138  TYR138      0.0417
    109  CE2       -7.3680   56.5890   39.7470 C.ar  138  TYR138      0.0417
    110  CZ        -8.3460   57.0150   38.9180 C.ar  138  TYR138      0.1957
    111  OH        -8.6130   56.2660   37.8110 O.3   138  TYR138     -0.2866
    112  N         -7.5920   58.2860   45.7000 N.am  139  THR139     -0.1953
    113  CA        -7.4150   58.4310   47.1410 C.3   139  THR139      0.1897
    114  C         -6.0620   57.8100   47.4920 C.2   139  THR139      0.2313
    115  O         -5.5200   56.9590   46.7410 O.2   139  THR139     -0.2863
    116  CB        -8.5740   57.7060   47.8960 C.3   139  THR139      0.1794
    117  OG1       -8.4190   56.2820   47.7820 O.3   139  THR139     -0.2208
    118  CG2       -9.9850   58.0740   47.3260 C.3   139  THR139      0.0378
@<TRIPOS>BOND
     1    24    23    2
     2    23    22    1
     3    27    29   ar
     4    27    26   ar
     5    22    25    1
     6    22    21    1
     7    25    26    1
     8    29    31   ar
     9    16    15    2
    10    26    28   ar
    11    47    46    2
    12   111   110    1
    13    21    15   am
    14    15    14    1
    15    31    30   ar
    16    12    10   ar
    17    46    45    1
    18    28    30   ar
    19   110   108   ar
    20   110   109   ar
    21    19    18    1
    22    18    20    1
    23    18    17    1
    24   108   106   ar
    25    10    11   ar
    26    10     9    1
    27    14    17    1
    28    14    13    1
    29   109   107   ar
    30     9     6    1
    31     8     7    2
    32    45    48    1
    33    45    44    1
    34   106   105   ar
    35     7    13   am
    36     7     6    1
    37    48    49    1
    38   107   105   ar
    39     6     5    1
    40   105   104    1
    41    51    49    1
    42    49    50    1
    43    39    38    2
    44     5     3   am
    45    58    52    1
    46    58    57    1
    47    43    41    1
    48   104   101    1
    49    41    40    1
    50    52    53    1
    51     3     2    1
    52     3     4    2
    53    38    37    1
    54   100   101    1
    55     2     1    1
    56   101   102    1
    57    42    40    1
    58    57    56    1
    59    76    74    1
    60    40    37    1
    61    37    36    1
    62    53    56    1
    63    53    54    1
    64    77    75    1
    65    55    54    2
    66   102   103    2
    67   102   112   am
    68    54    59   am
    69    74    75    1
    70    74    71    1
    71    35    34    2
    72    36    34   am
    73    34    33    1
    74   112   113    1
    75    71    70    1
    76    71    72    1
    77    59    60    1
    78    70    61   am
    79   115   114    2
    80    33    32    1
    81   113   114    1
    82   113   116    1
    83    60    61    1
    84    60    63    1
    85   118   116    1
    86    61    62    2
    87    72    78   am
    88    72    73    2
    89    78    79    1
    90   117   116    1
    91    63    64    1
    92    64    65    1
    93    79    80    1
    94    65    66    1
    95    66    67    2
    96    80    82   am
    97    80    81    2
    98    98    97    1
    99    82    83    1
   100    67    68    1
   101    67    69    1
   102    87    86    1
   103    88    89    1
   104    88    84   am
   105    96    97    1
   106    96    93    1
   107    97    99    1
   108    86    83    1
   109    83    84    1
   110    92    93    1
   111    92    90   am
   112    89    90    1
   113    84    85    2
   114    93    94    1
   115    90    91    2
   116    94    95    2
