@<TRIPOS>MOLECULE
tmp/4j5sA00.pdb
 186 179 0 0 0
SMALL
GASTEIGER

@<TRIPOS>ATOM
      1  N         -7.3470   13.4530    7.3700 N.3    13  GLY13      -0.1210
      2  CA        -7.5490   13.3590    8.8000 C.3    13  GLY13       0.1956
      3  C         -6.5630   12.4610    9.5030 C.2    13  GLY13       0.2612
      4  O         -5.6800   11.8270    8.9180 O.2    13  GLY13      -0.2717
      5  N         -6.7380   12.4230   10.8090 N.am   14  ASP14      -0.1959
      6  CA        -5.9340   11.6140   11.7010 C.3    14  ASP14       0.1840
      7  C         -6.1370   10.1360   11.4080 C.2    14  ASP14       0.2622
      8  O         -7.2560    9.6300   11.3810 O.2    14  ASP14      -0.2715
      9  CB        -6.4150   11.9480   13.1140 C.3    14  ASP14       0.1450
     10  CG        -5.6970   11.1860   14.2020 C.2    14  ASP14       0.3671
     11  OD1       -4.6700   10.5350   13.9550 O.co2  14  ASP14      -0.2456
     12  OD2       -6.1800   11.2690   15.3540 O.co2  14  ASP14      -0.2456
     13  N         -5.0390    9.4420   11.1660 N.am   15  LEU15      -0.1963
     14  CA        -5.0600    8.0020   10.9810 C.3    15  LEU15       0.1728
     15  C         -5.7930    7.3080   12.1050 C.2    15  LEU15       0.2616
     16  O         -6.4810    6.3130   11.8960 O.2    15  LEU15      -0.2715
     17  CB        -3.6350    7.4810   10.9760 C.3    15  LEU15       0.0311
     18  CG        -3.4590    5.9640   10.8410 C.3    15  LEU15       0.0022
     19  CD1       -3.9760    5.4180    9.5090 C.3    15  LEU15       0.0001
     20  CD2       -1.9870    5.6500   11.0280 C.3    15  LEU15       0.0001
     21  N         -5.6230    7.8180   13.3150 N.am   16  PHE16      -0.1974
     22  CA        -6.1380    7.0960   14.4700 C.3    16  PHE16       0.1639
     23  C         -7.6370    7.2750   14.6480 C.2    16  PHE16       0.2290
     24  O         -8.2260    6.6690   15.5560 O.2    16  PHE16      -0.2864
     25  CB        -5.3430    7.4910   15.7180 C.3    16  PHE16       0.0560
     26  CG        -3.9410    7.0150   15.6530 C.ar   16  PHE16      -0.0200
     27  CD1       -3.6410    5.7030   15.9360 C.ar   16  PHE16      -0.0042
     28  CD2       -2.9330    7.8430   15.2120 C.ar   16  PHE16      -0.0042
     29  CE1       -2.3470    5.2360   15.8260 C.ar   16  PHE16      -0.0003
     30  CE2       -1.6560    7.3810   15.1000 C.ar   16  PHE16      -0.0003
     31  CZ        -1.3630    6.0660   15.4070 C.ar   16  PHE16      -0.0000
     32  N          6.3580    3.1090    9.5060 N.3    27  CYS27      -0.1221
     33  CA         7.7700    2.7610    9.3900 C.3    27  CYS27       0.1808
     34  C          8.5730    3.0670   10.6430 C.2    27  CYS27       0.2601
     35  O          8.4190    4.1300   11.2450 O.2    27  CYS27      -0.2717
     36  CB         8.4170    3.5360    8.2370 C.3    27  CYS27       0.0970
     37  SG         7.6420    3.3050    6.6430 S.3    27  CYS27      -0.0800
     38  N          9.4340    2.1250   11.0170 N.am   28  ILE28      -0.1965
     39  CA        10.3670    2.3060   12.1070 C.3    28  ILE28       0.1727
     40  C         11.7470    1.7440   11.7500 C.2    28  ILE28       0.2616
     41  O         11.9510    1.1950   10.6600 O.2    28  ILE28      -0.2715
     42  CB         9.8490    1.6710   13.4260 C.3    28  ILE28       0.0290
     43  CG1        9.7840    0.1440   13.3310 C.3    28  ILE28       0.0022
     44  CG2        8.4780    2.2430   13.7930 C.3    28  ILE28       0.0023
     45  CD1        9.7980   -0.5510   14.6780 C.3    28  ILE28       0.0001
     46  N         12.6890    1.8950   12.6740 N.am   29  SER29      -0.1950
     47  CA        14.0190    1.3160   12.5480 C.3    29  SER29       0.1924
     48  C         14.1970    0.0700   13.4300 C.2    29  SER29       0.2314
     49  O         13.3810   -0.2090   14.3010 O.2    29  SER29      -0.2863
     50  CB        15.0590    2.3590   12.9340 C.3    29  SER29       0.2116
     51  OG        15.2620    2.3810   14.3360 O.3    29  SER29      -0.2180
     52  N         11.0780    4.6870   18.2610 N.3    34  MET34      -0.1245
     53  CA         9.8210    5.3800   17.9990 C.3    34  MET34       0.1570
     54  C          9.7340    6.6900   18.7770 C.2    34  MET34       0.2261
     55  O          8.7420    6.9580   19.4800 O.2    34  MET34      -0.2867
     56  CB         8.6260    4.4730   18.3170 C.3    34  MET34       0.0387
     57  CG         8.6490    3.2030   17.4860 C.3    34  MET34       0.0595
     58  SD         7.1540    2.2200   17.5860 S.3    34  MET34      -0.1393
     59  CE         7.3710    1.4120   19.1720 C.3    34  MET34       0.0692
     60  N         10.0340    9.8890   17.4570 N.3    36  ALA36      -0.1231
     61  CA         9.5860   11.0670   16.7270 C.3    36  ALA36       0.1694
     62  C          8.4960   10.7140   15.7300 C.2    36  ALA36       0.2593
     63  O          8.3310    9.5560   15.3510 O.2    36  ALA36      -0.2718
     64  CB        10.7650   11.7050   16.0040 C.3    36  ALA36       0.0304
     65  N          7.7430   11.7260   15.3190 N.am   37  GLY37      -0.1942
     66  CA         6.7870   11.5550   14.2580 C.3    37  GLY37       0.2014
     67  C          5.5880   10.7270   14.6700 C.2    37  GLY37       0.2639
     68  O          5.2220   10.6560   15.8460 O.2    37  GLY37      -0.2714
     69  N          4.9390   10.1310   13.6870 N.am   38  ILE38      -0.1963
     70  CA         3.7470    9.3480   13.9450 C.3    38  ILE38       0.1727
     71  C          4.1090    8.1290   14.7590 C.2    38  ILE38       0.2616
     72  O          3.2660    7.5980   15.4740 O.2    38  ILE38      -0.2715
     73  CB         3.0100    8.9760   12.6320 C.3    38  ILE38       0.0290
     74  CG1        1.5540    8.6150   12.9400 C.3    38  ILE38       0.0022
     75  CG2        3.7420    7.8500   11.8560 C.3    38  ILE38       0.0023
     76  CD1        0.7260    8.2460   11.7080 C.3    38  ILE38       0.0001
     77  N          5.3610    7.6810   14.6980 N.am   39  ALA39      -0.1977
     78  CA         5.7540    6.5110   15.4950 C.3    39  ALA39       0.1597
     79  C          5.4760    6.6990   16.9860 C.2    39  ALA39       0.2287
     80  O          5.1610    5.7460   17.6720 O.2    39  ALA39      -0.2864
     81  CB         7.2330    6.1700   15.2710 C.3    39  ALA39       0.0319
     82  N          3.0390    8.1870   18.3660 N.3    41  LEU41      -0.1245
     83  CA         1.6230    7.8800   18.5950 C.3    41  LEU41       0.1561
     84  C          1.3790    6.3640   18.6010 C.2    41  LEU41       0.2260
     85  O          0.5960    5.8560   19.4040 O.2    41  LEU41      -0.2867
     86  CB         0.7370    8.5400   17.5300 C.3    41  LEU41       0.0270
     87  CG         0.8150   10.0540   17.4110 C.3    41  LEU41       0.0019
     88  CD1       -0.0830   10.5370   16.2980 C.3    41  LEU41       0.0001
     89  CD2        0.4420   10.6970   18.7160 C.3    41  LEU41       0.0001
     90  N         12.4160   -0.3500    8.1310 N.3    77  THR77      -0.1203
     91  CA        12.9580    0.1230    6.8650 C.3    77  THR77       0.1994
     92  C         14.4230    0.5470    6.8990 C.2    77  THR77       0.2617
     93  O         15.0020    0.8720    5.8480 O.2    77  THR77      -0.2717
     94  CB        12.1160    1.2710    6.3120 C.3    77  THR77       0.1784
     95  OG1       12.2050    2.3900    7.1900 O.3    77  THR77      -0.2211
     96  CG2       10.6580    0.8400    6.1400 C.3    77  THR77       0.0376
     97  N         15.0340    0.5200    8.0840 N.am   78  LYS78      -0.1979
     98  CA        16.4310    0.9470    8.2310 C.3    78  LYS78       0.1596
     99  C         16.9650    0.4580    9.5790 C.2    78  LYS78       0.2287
    100  O         16.1910    0.0500   10.4390 O.2    78  LYS78      -0.2864
    101  CB        16.5270    2.4690    8.1360 C.3    78  LYS78       0.0298
    102  CG        15.7780    3.1670    9.2690 C.3    78  LYS78       0.0038
    103  CD        15.4410    4.6030    8.9470 C.3    78  LYS78       0.0206
    104  CE        14.8090    5.2520   10.1620 C.3    78  LYS78       0.1093
    105  NZ        14.3170    6.6320    9.9240 N.3    78  LYS78      -0.1314
    106  N         17.7310    4.5980   14.0680 N.3    81  ALA81      -0.1245
    107  CA        16.6810    5.6080   14.0810 C.3    81  ALA81       0.1562
    108  C         17.0580    6.8250   13.2390 C.2    81  ALA81       0.2260
    109  O         16.2100    7.4110   12.5790 O.2    81  ALA81      -0.2867
    110  CB        16.3880    6.0290   15.5130 C.3    81  ALA81       0.0290
    111  N         -0.5910    6.0860    7.0890 N.3   112  PRO112     -0.2102
    112  CA        -0.3100    7.4780    6.7160 C.3   112  PRO112      0.1504
    113  C          0.5360    7.4910    5.4370 C.2   112  PRO112      0.2576
    114  O          0.7140    6.4360    4.8240 O.2   112  PRO112     -0.2718
    115  CB         0.5170    7.9690    7.8940 C.3   112  PRO112      0.0282
    116  CG         1.3690    6.7490    8.2160 C.3   112  PRO112      0.0208
    117  CD         0.4550    5.5430    7.9780 C.3   112  PRO112      0.0893
    118  N          1.0620    8.6460    5.0440 N.am  113  ARG113     -0.1966
    119  CA         1.9690    8.7030    3.9030 C.3   113  ARG113      0.1729
    120  C          3.3540    8.2310    4.3480 C.2   113  ARG113      0.2616
    121  O          4.2760    9.0280    4.5500 O.2   113  ARG113     -0.2715
    122  CB         2.0490   10.1150    3.3390 C.3   113  ARG113      0.0348
    123  CG         0.7660   10.6660    2.7770 C.3   113  ARG113      0.0492
    124  CD         1.0540   12.0340    2.1660 C.3   113  ARG113      0.2205
    125  NE        -0.0930   12.8510    1.7920 N.pl3 113  ARG113     -0.0865
    126  CZ        -0.7190   12.8020    0.6150 C.cat 113  ARG113      0.5346
    127  NH1       -0.3690   11.9160   -0.3120 N.pl3 113  ARG113      0.1354
    128  NH2       -1.7280   13.6270    0.3750 N.pl3 113  ARG113      0.1354
    129  N          3.4740    6.9220    4.5180 N.am  114  ILE114     -0.1963
    130  CA         4.6800    6.3020    5.0440 C.3   114  ILE114      0.1727
    131  C          5.9410    6.6940    4.2680 C.2   114  ILE114      0.2617
    132  O          5.9320    6.7650    3.0360 O.2   114  ILE114     -0.2715
    133  CB         4.5370    4.7580    5.0610 C.3   114  ILE114      0.0290
    134  CG1        4.1980    4.2150    3.6660 C.3   114  ILE114      0.0022
    135  CG2        3.4630    4.3190    6.0580 C.3   114  ILE114      0.0023
    136  CD1        4.3370    2.6990    3.5780 C.3   114  ILE114      0.0001
    137  N          7.0080    6.9510    5.0220 N.am  115  GLY115     -0.1940
    138  CA         8.3000    7.2690    4.4600 C.3   115  GLY115      0.2014
    139  C          8.4530    8.7200    4.0430 C.2   115  GLY115      0.2639
    140  O          9.5670    9.1560    3.7620 O.2   115  GLY115     -0.2714
    141  N          7.3550    9.4680    3.9940 N.am  116  CYS116     -0.1953
    142  CA         7.3590   10.7610    3.3040 C.3   116  CYS116      0.1843
    143  C          7.2600   11.9780    4.2100 C.2   116  CYS116      0.2626
    144  O          6.9380   13.0930    3.7630 O.2   116  CYS116     -0.2714
    145  CB         6.2660   10.7770    2.2350 C.3   116  CYS116      0.0997
    146  SG         6.5210    9.4550    1.0160 S.3   116  CYS116     -0.0797
    147  N          7.6160   11.7910    5.4680 N.am  117  GLY117     -0.1940
    148  CA         7.7960   12.9140    6.3670 C.3   117  GLY117      0.2014
    149  C          9.2230   12.9400    6.8540 C.2   117  GLY117      0.2639
    150  O         10.1260   13.3780    6.1370 O.2   117  GLY117     -0.2714
    151  N          9.4470   12.4350    8.0560 N.am  118  LEU118     -0.1963
    152  CA        10.7790   12.4340    8.6320 C.3   118  LEU118      0.1728
    153  C         11.7790   11.5920    7.8290 C.2   118  LEU118      0.2616
    154  O         12.9820   11.8530    7.8830 O.2   118  LEU118     -0.2715
    155  CB        10.7300   11.9330   10.0800 C.3   118  LEU118      0.0311
    156  CG        10.0020   12.8340   11.0780 C.3   118  LEU118      0.0022
    157  CD1       10.0170   12.1920   12.4620 C.3   118  LEU118      0.0001
    158  CD2       10.5900   14.2420   11.1250 C.3   118  LEU118      0.0001
    159  N         11.3080   10.5750    7.1090 N.am  119  ASP119     -0.1971
    160  CA        12.2150    9.7560    6.2950 C.3   119  ASP119      0.1709
    161  C         12.4930   10.3160    4.8880 C.2   119  ASP119      0.2293
    162  O         13.2970    9.7460    4.1660 O.2   119  ASP119     -0.2864
    163  CB        11.7340    8.2970    6.2250 C.3   119  ASP119      0.1436
    164  CG        12.1970    7.4670    7.4280 C.2   119  ASP119      0.3671
    165  OD1       12.9970    7.9800    8.2380 O.co2 119  ASP119     -0.2456
    166  OD2       11.7730    6.2920    7.5570 O.co2 119  ASP119     -0.2456
    167  N         -4.3560    7.9960    5.0230 N.3   144  TYR144     -0.1241
    168  CA        -4.8020    9.1780    5.7700 C.3   144  TYR144      0.1605
    169  C         -3.8010   10.2810    5.5890 C.2   144  TYR144      0.2264
    170  O         -2.6170   10.0370    5.7220 O.2   144  TYR144     -0.2867
    171  CB        -4.9940    8.8030    7.2570 C.3   144  TYR144      0.0534
    172  CG        -6.2810    8.0420    7.4010 C.ar  144  TYR144     -0.0201
    173  CD1       -6.3780    6.7070    7.0070 C.ar  144  TYR144     -0.0009
    174  CD2       -7.4220    8.6650    7.8670 C.ar  144  TYR144     -0.0009
    175  CE1       -7.5680    6.0220    7.0740 C.ar  144  TYR144      0.0417
    176  CE2       -8.6140    7.9910    7.9390 C.ar  144  TYR144      0.0417
    177  CZ        -8.6910    6.6730    7.5410 C.ar  144  TYR144      0.1957
    178  OH        -9.9110    6.0350    7.6050 O.3   144  TYR144     -0.2866
    179  N         -2.5990   14.6190    5.9820 N.3   146  LEU146     -0.1245
    180  CA        -2.6840   15.8560    6.7540 C.3   146  LEU146      0.1561
    181  C         -2.5910   17.0800    5.8510 C.2   146  LEU146      0.2260
    182  O         -2.5170   16.9890    4.6060 O.2   146  LEU146     -0.2867
    183  CB        -1.5610   15.9230    7.8030 C.3   146  LEU146      0.0270
    184  CG        -1.4700   14.7580    8.7980 C.3   146  LEU146      0.0019
    185  CD1       -0.3630   15.0210    9.8080 C.3   146  LEU146      0.0001
    186  CD2       -2.7920   14.5310    9.5020 C.3   146  LEU146      0.0001
@<TRIPOS>BOND
     1   127   126    1
     2   128   126    1
     3   126   125    2
     4   146   145    1
     5   125   124    1
     6   124   123    1
     7   145   142    1
     8   123   122    1
     9   132   131    2
    10   142   141    1
    11   142   143    1
    12   122   119    1
    13   136   134    1
    14   134   133    1
    15   140   139    2
    16   144   143    2
    17   119   120    1
    18   119   118    1
    19   141   139   am
    20   139   138    1
    21   162   161    2
    22   143   147   am
    23   131   137   am
    24   131   130    1
    25   120   129   am
    26   120   121    2
    27   138   137    1
    28   129   130    1
    29   182   181    2
    30   114   113    2
    31   161   160    1
    32   167   168    1
    33   118   113   am
    34   130   133    1
    35   133   135    1
    36   113   112    1
    37   147   148    1
    38   169   170    2
    39   169   168    1
    40   168   171    1
    41    93    92    2
    42   181   180    1
    43   179   180    1
    44   150   149    2
    45    96    94    1
    46   163   160    1
    47   163   164    1
    48   160   159    1
    49    94    91    1
    50    94    95    1
    51   148   149    1
    52    37    36    1
    53   112   111    1
    54   112   115    1
    55   180   183    1
    56   149   151   am
    57    91    92    1
    58    91    90    1
    59    92    97   am
    60   173   175   ar
    61   173   172   ar
    62   175   177   ar
    63   111   117    1
    64   159   153   am
    65   171   172    1
    66     1     2    1
    67   172   174   ar
    68   164   166   ar
    69   164   165   ar
    70   177   178    1
    71   177   176   ar
    72   183   184    1
    73   153   154    2
    74   153   152    1
    75   174   176   ar
    76   115   116    1
    77   117   116    1
    78   151   152    1
    79    97    98    1
    80   101    98    1
    81   101   102    1
    82    98    99    1
    83    36    33    1
    84   152   155    1
    85   184   186    1
    86   184   185    1
    87     2     3    1
    88     4     3    2
    89   103   102    1
    90   103   104    1
    91    33    32    1
    92    33    34    1
    93     3     5   am
    94    19    18    1
    95    99   100    2
    96   105   104    1
    97   155   156    1
    98    34    38   am
    99    34    35    2
   100    41    40    2
   101     5     6    1
   102    18    17    1
   103    18    20    1
   104    17    14    1
   105    14    13    1
   106    14    15    1
   107    38    39    1
   108   156   158    1
   109   156   157    1
   110    13     7   am
   111     8     7    2
   112     7     6    1
   113     6     9    1
   114    76    74    1
   115    40    39    1
   116    40    46   am
   117    75    73    1
   118    16    15    2
   119    15    21   am
   120    39    42    1
   121    47    46    1
   122    47    50    1
   123    47    48    1
   124   109   108    2
   125    73    74    1
   126    73    70    1
   127    50    51    1
   128     9    10    1
   129   108   107    1
   130    21    22    1
   131    43    42    1
   132    43    45    1
   133    42    44    1
   134    48    49    2
   135    69    70    1
   136    69    67   am
   137    70    71    1
   138    11    10   ar
   139   106   107    1
   140   107   110    1
   141    10    12   ar
   142    66    67    1
   143    66    65    1
   144    22    23    1
   145    22    25    1
   146    23    24    2
   147    67    68    2
   148    77    71   am
   149    77    78    1
   150    71    72    2
   151    30    28   ar
   152    30    31   ar
   153    28    26   ar
   154    81    78    1
   155    65    62   am
   156    63    62    2
   157    31    29   ar
   158    78    79    1
   159    26    25    1
   160    26    27   ar
   161    62    61    1
   162    29    27   ar
   163    64    61    1
   164    88    87    1
   165    61    60    1
   166    79    80    2
   167    87    86    1
   168    87    89    1
   169    57    58    1
   170    57    56    1
   171    86    83    1
   172    58    59    1
   173    53    52    1
   174    53    56    1
   175    53    54    1
   176    82    83    1
   177    83    84    1
   178    84    85    2
   179    54    55    2
