@<TRIPOS>MOLECULE
tmp/4j5sB00.pdb
 154 150 0 0 0
SMALL
GASTEIGER

@<TRIPOS>ATOM
      1  N          5.1220   12.3170   32.7740 N.3     8  GLY8       -0.1210
      2  CA         3.7100   12.3200   32.4490 C.3     8  GLY8        0.1956
      3  C          2.8750   11.4580   33.3860 C.2     8  GLY8        0.2612
      4  O          3.3990   10.7690   34.2390 O.2     8  GLY8       -0.2717
      5  N          1.5640   11.5160   33.1880 N.am    9  ASP9       -0.1959
      6  CA         0.5790   10.7410   33.9330 C.3     9  ASP9        0.1840
      7  C          0.7060    9.2520   33.6070 C.2     9  ASP9        0.2622
      8  O          0.6470    8.8620   32.4440 O.2     9  ASP9       -0.2715
      9  CB        -0.7990   11.2720   33.5350 C.3     9  ASP9        0.1450
     10  CG        -1.9560   10.4390   34.0590 C.2     9  ASP9        0.3671
     11  OD1       -1.8510    9.7990   35.1270 O.co2   9  ASP9       -0.2456
     12  OD2       -3.0100   10.4710   33.3940 O.co2   9  ASP9       -0.2456
     13  N          0.8970    8.4270   34.6340 N.am   10  LEU10      -0.1963
     14  CA         0.9590    6.9830   34.4590 C.3    10  LEU10       0.1728
     15  C         -0.2400    6.4800   33.6730 C.2    10  LEU10       0.2616
     16  O         -0.1240    5.5540   32.8720 O.2    10  LEU10      -0.2715
     17  CB         0.9790    6.3000   35.8240 C.3    10  LEU10       0.0311
     18  CG         0.9030    4.7750   35.8120 C.3    10  LEU10       0.0022
     19  CD1        2.1050    4.1440   35.1130 C.3    10  LEU10       0.0001
     20  CD2        0.7510    4.2240   37.2230 C.3    10  LEU10       0.0001
     21  N         -1.4000    7.0810   33.8990 N.am   11  PHE11      -0.1974
     22  CA        -2.6190    6.5400   33.3130 C.3    11  PHE11       0.1639
     23  C         -2.7880    6.8700   31.8310 C.2    11  PHE11       0.2290
     24  O         -3.7280    6.4120   31.1820 O.2    11  PHE11      -0.2864
     25  CB        -3.8310    6.8970   34.1890 C.3    11  PHE11       0.0560
     26  CG        -3.8710    6.0990   35.4590 C.ar   11  PHE11      -0.0200
     27  CD1       -3.2350    6.5380   36.6050 C.ar   11  PHE11      -0.0042
     28  CD2       -4.4770    4.8620   35.4790 C.ar   11  PHE11      -0.0042
     29  CE1       -3.2520    5.7580   37.7520 C.ar   11  PHE11      -0.0003
     30  CE2       -4.4930    4.0980   36.6210 C.ar   11  PHE11      -0.0003
     31  CZ        -3.8670    4.5260   37.7390 C.ar   11  PHE11      -0.0000
     32  N          2.0040    0.5040   45.0880 N.3    22  CYS22      -0.1235
     33  CA         2.1280   -0.0370   46.4450 C.3    22  CYS22       0.1677
     34  C          0.9030    0.2090   47.2870 C.2    22  CYS22       0.2270
     35  O          0.3770    1.3050   47.2740 O.2    22  CYS22      -0.2867
     36  CB         3.2780    0.6270   47.1770 C.3    22  CYS22       0.0956
     37  SG         4.8670    0.4000   46.4590 S.3    22  CYS22      -0.0801
     38  N         -3.3570    9.1750   47.7350 N.3    32  GLY32      -0.1210
     39  CA        -2.3190    9.0560   46.7270 C.3    32  GLY32       0.1956
     40  C         -2.7570    8.4180   45.4220 C.2    32  GLY32       0.2612
     41  O         -3.9390    8.3960   45.0540 O.2    32  GLY32      -0.2717
     42  N         -1.7850    7.8970   44.6900 N.am   33  ILE33      -0.1965
     43  CA        -2.0920    7.3300   43.3910 C.3    33  ILE33       0.1727
     44  C         -2.9570    6.0750   43.5250 C.2    33  ILE33       0.2616
     45  O         -3.6800    5.7060   42.5920 O.2    33  ILE33      -0.2715
     46  CB        -0.8040    7.0510   42.5970 C.3    33  ILE33       0.0290
     47  CG1       -1.1230    6.9250   41.1060 C.3    33  ILE33       0.0022
     48  CG2       -0.0820    5.8180   43.1380 C.3    33  ILE33       0.0023
     49  CD1        0.1230    6.6440   40.2180 C.3    33  ILE33       0.0001
     50  N         -2.9320    5.4440   44.6970 N.am   34  ALA34      -0.1977
     51  CA        -3.7460    4.2510   44.9140 C.3    34  ALA34       0.1597
     52  C         -5.2280    4.5230   44.6620 C.2    34  ALA34       0.2287
     53  O         -5.9460    3.6540   44.1760 O.2    34  ALA34      -0.2864
     54  CB        -3.5320    3.6980   46.3200 C.3    34  ALA34       0.0319
     55  N         -6.5590    6.2670   42.3820 N.3    36  LEU36      -0.1245
     56  CA        -6.8180    6.1660   40.9460 C.3    36  LEU36       0.1561
     57  C         -6.9050    4.7000   40.5020 C.2    36  LEU36       0.2260
     58  O         -7.7400    4.3390   39.6710 O.2    36  LEU36      -0.2867
     59  CB        -5.7210    6.8860   40.1640 C.3    36  LEU36       0.0270
     60  CG        -5.5530    8.3670   40.4890 C.3    36  LEU36       0.0019
     61  CD1       -4.4500    8.9870   39.6240 C.3    36  LEU36       0.0001
     62  CD2       -6.8560    9.1300   40.3290 C.3    36  LEU36       0.0001
     63  N          3.4230   -3.3480   53.2780 N.3    73  LYS73      -0.1245
     64  CA         3.3480   -3.1410   54.7120 C.3    73  LYS73       0.1561
     65  C          1.9760   -3.5690   55.2120 C.2    73  LYS73       0.2260
     66  O          1.0530   -3.7520   54.4260 O.2    73  LYS73      -0.2867
     67  CB         3.5750   -1.6710   54.9970 C.3    73  LYS73       0.0271
     68  CG         2.4110   -0.8470   54.5770 C.3    73  LYS73       0.0035
     69  CD         2.8120    0.5520   54.1900 C.3    73  LYS73       0.0206
     70  CE         1.5730    1.3160   53.7940 C.3    73  LYS73       0.1093
     71  NZ         1.8680    2.5850   53.1020 N.3    73  LYS73      -0.1314
     72  N          4.5180    4.2390   38.7270 N.3   107  PRO107     -0.2102
     73  CA         4.9850    5.5410   39.1980 C.3   107  PRO107      0.1504
     74  C          6.2710    5.3860   40.0170 C.2   107  PRO107      0.2576
     75  O          6.8490    4.2970   40.0570 O.2   107  PRO107     -0.2718
     76  CB         3.8510    5.9850   40.1100 C.3   107  PRO107      0.0282
     77  CG         3.4170    4.6990   40.7580 C.3   107  PRO107      0.0208
     78  CD         3.5830    3.6180   39.6860 C.3   107  PRO107      0.0893
     79  N          6.7070    6.4550   40.6680 N.am  108  ARG108     -0.1966
     80  CA         7.8540    6.3750   41.5990 C.3   108  ARG108      0.1729
     81  C          7.4300    5.6920   42.9070 C.2   108  ARG108      0.2616
     82  O          7.3110    6.3270   43.9760 O.2   108  ARG108     -0.2715
     83  CB         8.4430    7.7520   41.8630 C.3   108  ARG108      0.0348
     84  CG         9.3360    8.2440   40.7440 C.3   108  ARG108      0.0492
     85  CD        10.0500    9.5430   41.1430 C.3   108  ARG108      0.2205
     86  NE         9.2010   10.3000   42.0520 N.pl3 108  ARG108     -0.0865
     87  CZ         9.5470   10.7180   43.2690 C.cat 108  ARG108      0.5346
     88  NH1        8.6600   11.3740   44.0020 N.pl3 108  ARG108      0.1354
     89  NH2       10.7660   10.4960   43.7600 N.pl3 108  ARG108      0.1354
     90  N          7.2270    4.3850   42.8130 N.am  109  ILE109     -0.1963
     91  CA         6.6450    3.6110   43.9160 C.3   109  ILE109      0.1727
     92  C          7.4260    3.7530   45.2200 C.2   109  ILE109      0.2617
     93  O          8.6550    3.7490   45.2340 O.2   109  ILE109     -0.2715
     94  CB         6.5310    2.1140   43.5680 C.3   109  ILE109      0.0290
     95  CG1        7.8930    1.5500   43.1390 C.3   109  ILE109      0.0022
     96  CG2        5.4770    1.8950   42.4700 C.3   109  ILE109      0.0023
     97  CD1        7.9310    0.0240   43.0730 C.3   109  ILE109      0.0001
     98  N          6.6930    3.9030   46.3130 N.am  110  GLY110     -0.1940
     99  CA         7.2810    3.9410   47.6380 C.3   110  GLY110      0.2014
    100  C          7.8500    5.2860   48.0660 C.2   110  GLY110      0.2639
    101  O          8.1980    5.4610   49.2330 O.2   110  GLY110     -0.2714
    102  N          7.9460    6.2400   47.1470 N.am  111  CYS111     -0.1953
    103  CA         8.7850    7.4170   47.3820 C.3   111  CYS111      0.1843
    104  C          8.0070    8.7180   47.4240 C.2   111  CYS111      0.2626
    105  O          8.5960    9.8060   47.3920 O.2   111  CYS111     -0.2714
    106  CB         9.8800    7.4810   46.3250 C.3   111  CYS111      0.0997
    107  SG        10.9580    6.0650   46.4270 S.3   111  CYS111     -0.0797
    108  N          6.6840    8.5970   47.5000 N.am  112  GLY112     -0.1940
    109  CA         5.8180    9.7280   47.7610 C.3   112  GLY112      0.2014
    110  C          5.3400    9.6530   49.1970 C.2   112  GLY112      0.2639
    111  O          6.0830    9.9910   50.1260 O.2   112  GLY112     -0.2714
    112  N          4.1180    9.1710   49.3990 N.am  113  LEU113     -0.1963
    113  CA         3.5440    9.1180   50.7400 C.3   113  LEU113      0.1728
    114  C          4.1810    8.0400   51.6330 C.2   113  LEU113      0.2616
    115  O          4.0410    8.0880   52.8560 O.2   113  LEU113     -0.2715
    116  CB         2.0240    8.9470   50.6570 C.3   113  LEU113      0.0311
    117  CG         1.3120   10.0870   49.9150 C.3   113  LEU113      0.0022
    118  CD1       -0.0970    9.6890   49.5010 C.3   113  LEU113      0.0001
    119  CD2        1.2730   11.3740   50.7530 C.3   113  LEU113      0.0001
    120  N          4.8930    7.0860   51.0400 N.am  114  ASP114     -0.1971
    121  CA         5.6190    6.0800   51.8270 C.3   114  ASP114      0.1709
    122  C          7.0800    6.4540   52.1170 C.2   114  ASP114      0.2293
    123  O          7.7990    5.6940   52.7620 O.2   114  ASP114     -0.2864
    124  CB         5.5480    4.6970   51.1540 C.3   114  ASP114      0.1436
    125  CG         4.3170    3.8920   51.5730 C.2   114  ASP114      0.3671
    126  OD1        3.5680    4.3350   52.4740 O.co2 114  ASP114     -0.2456
    127  OD2        4.1080    2.7970   51.0030 O.co2 114  ASP114     -0.2456
    128  N          6.7960    6.5250   35.2450 N.3   139  TYR139     -0.1227
    129  CA         6.1630    7.7930   34.9600 C.3   139  TYR139      0.1736
    130  C          6.3260    8.7050   36.1500 C.2   139  TYR139      0.2596
    131  O          6.0520    8.3130   37.2890 O.2   139  TYR139     -0.2718
    132  CB         4.6830    7.5770   34.6260 C.3   139  TYR139      0.0548
    133  CG         4.5100    6.9800   33.2500 C.ar  139  TYR139     -0.0200
    134  CD1        4.7080    5.6250   33.0250 C.ar  139  TYR139     -0.0009
    135  CD2        4.2110    7.7790   32.1660 C.ar  139  TYR139     -0.0009
    136  CE1        4.5820    5.0870   31.7570 C.ar  139  TYR139      0.0417
    137  CE2        4.0850    7.2540   30.8990 C.ar  139  TYR139      0.0417
    138  CZ         4.2800    5.9190   30.6910 C.ar  139  TYR139      0.1957
    139  OH         4.1540    5.4360   29.4050 O.3   139  TYR139     -0.2866
    140  N          6.8100    9.9110   35.8680 N.am  140  THR140     -0.1939
    141  CA         7.1020   10.9080   36.8870 C.3   140  THR140      0.2028
    142  C          6.3530   12.1910   36.5930 C.2   140  THR140      0.2642
    143  O          6.0310   12.5040   35.4450 O.2   140  THR140     -0.2714
    144  CB         8.5900   11.2590   36.9090 C.3   140  THR140      0.1808
    145  OG1        8.9390   11.9010   35.6730 O.3   140  THR140     -0.2208
    146  CG2        9.4180   10.0250   37.0770 C.3   140  THR140      0.0379
    147  N          6.1060   12.9540   37.6380 N.am  141  LEU141     -0.1977
    148  CA         5.4790   14.2540   37.4810 C.3   141  LEU141      0.1596
    149  C          6.5550   15.3310   37.4890 C.2   141  LEU141      0.2287
    150  O          7.6950   15.0670   37.8830 O.2   141  LEU141     -0.2864
    151  CB         4.4630   14.4550   38.6030 C.3   141  LEU141      0.0297
    152  CG         3.4700   13.2920   38.6470 C.3   141  LEU141      0.0022
    153  CD1        2.5410   13.4050   39.8480 C.3   141  LEU141      0.0001
    154  CD2        2.6790   13.2290   37.3620 C.3   141  LEU141      0.0001
@<TRIPOS>BOND
     1   139   138    1
     2   138   137   ar
     3   138   136   ar
     4   137   135   ar
     5    24    23    2
     6   136   134   ar
     7    23    22    1
     8   135   133   ar
     9     8     7    2
    10     2     1    1
    11     2     3    1
    12    16    15    2
    13   134   133   ar
    14     5     3   am
    15     5     6    1
    16   133   132    1
    17    22    21    1
    18    22    25    1
    19     3     4    2
    20    12    10   ar
    21     9     6    1
    22     9    10    1
    23     7     6    1
    24     7    13   am
    25    15    21   am
    26    15    14    1
    27    10    11   ar
    28    25    26    1
    29    14    13    1
    30    14    17    1
    31   132   129    1
    32   129   128    1
    33   129   130    1
    34    19    18    1
    35   143   142    2
    36    26    28   ar
    37    26    27   ar
    38    28    30   ar
    39   145   144    1
    40    18    17    1
    41    18    20    1
    42   140   130   am
    43   140   141    1
    44   130   131    2
    45   142   141    1
    46   142   147   am
    47    27    29   ar
    48    30    31   ar
    49   141   144    1
    50   144   146    1
    51   154   152    1
    52   148   149    1
    53   148   147    1
    54   148   151    1
    55   149   150    2
    56    31    29   ar
    57   151   152    1
    58   152   153    1
    59    72    73    1
    60    72    78    1
    61    73    74    1
    62    73    76    1
    63    61    60    1
    64    58    57    2
    65    78    77    1
    66    74    75    2
    67    74    79   am
    68    76    77    1
    69    59    60    1
    70    59    56    1
    71    49    47    1
    72    62    60    1
    73    57    56    1
    74    79    80    1
    75    84    85    1
    76    84    83    1
    77    56    55    1
    78    47    46    1
    79    85    86    1
    80    80    83    1
    81    80    81    1
    82    86    87    2
    83    96    94    1
    84    45    44    2
    85    46    48    1
    86    46    43    1
    87    90    81   am
    88    90    91    1
    89    81    82    2
    90    97    95    1
    91    95    94    1
    92    87    89    1
    93    87    88    1
    94    43    44    1
    95    43    42    1
    96    44    50   am
    97    94    91    1
    98    91    92    1
    99    53    52    2
   100    52    51    1
   101    42    40   am
   102    50    51    1
   103    51    54    1
   104    41    40    2
   105    32    33    1
   106    92    93    2
   107    92    98   am
   108    40    39    1
   109    98    99    1
   110   106   107    1
   111   106   103    1
   112    33    36    1
   113    33    34    1
   114    37    36    1
   115    39    38    1
   116   102   103    1
   117   102   100   am
   118    35    34    2
   119   103   104    1
   120   105   104    2
   121   104   108   am
   122   108   109    1
   123    99   100    1
   124   109   110    1
   125   100   101    2
   126   110   112   am
   127   110   111    2
   128   112   113    1
   129   118   117    1
   130   117   116    1
   131   117   119    1
   132   116   113    1
   133   113   114    1
   134   127   125   ar
   135   120   114   am
   136   120   121    1
   137   124   125    1
   138   124   121    1
   139   125   126   ar
   140   114   115    2
   141   121   122    1
   142   122   123    2
   143    71    70    1
   144    63    64    1
   145    70    69    1
   146    69    68    1
   147    66    65    2
   148    68    67    1
   149    64    67    1
   150    64    65    1
