@<TRIPOS>MOLECULE
tmp/4j5xC00.pdb
 233 223 0 0 0
SMALL
GASTEIGER

@<TRIPOS>ATOM
      1  N        110.2130   13.4330   17.6160 N.3    52  LEU52      -0.1245
      2  CA       109.0040   12.6380   17.6090 C.3    52  LEU52       0.1561
      3  C        108.8250   11.7930   18.8720 C.2    52  LEU52       0.2260
      4  O        107.7260   11.3160   19.1400 O.2    52  LEU52      -0.2867
      5  CB       108.9970   11.7670   16.3510 C.3    52  LEU52       0.0270
      6  CG       109.3070   12.5720   15.0820 C.3    52  LEU52       0.0019
      7  CD1      109.5570   11.6790   13.8700 C.3    52  LEU52       0.0001
      8  CD2      108.1810   13.5500   14.8050 C.3    52  LEU52       0.0001
      9  N        106.6300   13.1060   21.3640 N.3    55  LEU55      -0.1245
     10  CA       105.3950   13.3370   20.6280 C.3    55  LEU55       0.1561
     11  C        104.8320   12.0260   20.0940 C.2    55  LEU55       0.2260
     12  O        104.6070   11.8790   18.8920 O.2    55  LEU55      -0.2867
     13  CB       105.6730   14.2840   19.4670 C.3    55  LEU55       0.0270
     14  CG       106.6000   15.4200   19.8800 C.3    55  LEU55       0.0019
     15  CD1      107.0590   16.2330   18.6940 C.3    55  LEU55       0.0001
     16  CD2      105.8430   16.2800   20.8330 C.3    55  LEU55       0.0001
     17  N        101.6890    9.3790   20.1380 N.3    57  VAL57      -0.1245
     18  CA       100.2620    9.3350   20.4220 C.3    57  VAL57       0.1561
     19  C         99.5880    8.1070   19.8320 C.2    57  VAL57       0.2260
     20  O        100.0040    7.5920   18.7920 O.2    57  VAL57      -0.2867
     21  CB        99.5380   10.5800   19.8740 C.3    57  VAL57       0.0252
     22  CG1       99.8920   11.8090   20.6930 C.3    57  VAL57       0.0019
     23  CG2       99.8730   10.7860   18.4020 C.3    57  VAL57       0.0019
     24  N        103.2340    9.8600   10.0220 N.3    86  LEU86      -0.1245
     25  CA       103.4730   11.0880    9.2690 C.3    86  LEU86       0.1561
     26  C        102.6620   11.3010    7.9730 C.2    86  LEU86       0.2260
     27  O        102.2980   12.4430    7.6940 O.2    86  LEU86      -0.2867
     28  CB       104.9690   11.3290    9.0290 C.3    86  LEU86       0.0270
     29  CG       105.7710   11.8850   10.2140 C.3    86  LEU86       0.0019
     30  CD1      107.0480   12.5790    9.7600 C.3    86  LEU86       0.0001
     31  CD2      104.9200   12.8280   11.0560 C.3    86  LEU86       0.0001
     32  N         99.5300   12.4940    9.4360 N.3    89  MET89      -0.1230
     33  CA        99.6670   13.8700    9.9020 C.3    89  MET89       0.1702
     34  C         99.6770   14.8330    8.7300 C.2    89  MET89       0.2592
     35  O         99.0410   15.8790    8.7800 O.2    89  MET89      -0.2718
     36  CB       100.9430   14.0410   10.7220 C.3    89  MET89       0.0401
     37  CG       101.0040   13.2080   12.0060 C.3    89  MET89       0.0596
     38  SD        99.9610   13.6550   13.4270 S.3    89  MET89      -0.1393
     39  CE        98.3510   13.0010   12.9890 C.3    89  MET89       0.0692
     40  N        100.4000   14.4740    7.6760 N.am   90  ALA90      -0.1980
     41  CA       100.4390   15.2910    6.4690 C.3    90  ALA90       0.1597
     42  C         99.0410   15.5720    5.9280 C.2    90  ALA90       0.2287
     43  O         98.7540   16.6880    5.4980 O.2    90  ALA90      -0.2864
     44  CB       101.2860   14.6250    5.4040 C.3    90  ALA90       0.0319
     45  N         96.1490   15.3460    7.6970 N.3    92  MET92      -0.1230
     46  CA        95.4200   16.1200    8.6960 C.3    92  MET92       0.1702
     47  C         95.7590   17.5930    8.5270 C.2    92  MET92       0.2593
     48  O         94.9110   18.4630    8.7170 O.2    92  MET92      -0.2718
     49  CB        95.7730   15.6450   10.1050 C.3    92  MET92       0.0401
     50  CG        95.0690   16.3840   11.2360 C.3    92  MET92       0.0596
     51  SD        93.2920   16.5400   10.9750 S.3    92  MET92      -0.1393
     52  CE        92.6710   16.4110   12.6540 C.3    92  MET92       0.0692
     53  N         97.0060   17.8610    8.1520 N.am   93  SER93      -0.1952
     54  CA        97.4630   19.2210    7.8910 C.3    93  SER93       0.1924
     55  C         96.6910   19.8590    6.7430 C.2    93  SER93       0.2314
     56  O         96.1540   20.9580    6.8810 O.2    93  SER93      -0.2863
     57  CB        98.9580   19.2250    7.5630 C.3    93  SER93       0.2116
     58  OG        99.2000   18.7050    6.2650 O.3    93  SER93      -0.2180
     59  N         93.4890   20.8630    7.9020 N.3    96  MET96      -0.1230
     60  CA        93.5350   21.9440    8.8810 C.3    96  MET96       0.1702
     61  C         93.8690   23.2640    8.2080 C.2    96  MET96       0.2592
     62  O         93.2120   24.2760    8.4460 O.2    96  MET96      -0.2718
     63  CB        94.5560   21.6450    9.9780 C.3    96  MET96       0.0401
     64  CG        94.1250   20.5490   10.9260 C.3    96  MET96       0.0596
     65  SD        92.5950   20.9640   11.7760 S.3    96  MET96      -0.1393
     66  CE        93.1480   22.3120   12.8160 C.3    96  MET96       0.0692
     67  N         94.8950   23.2410    7.3630 N.am   97  PHE97      -0.1976
     68  CA        95.3240   24.4290    6.6380 C.3    97  PHE97       0.1639
     69  C         94.2170   24.9440    5.7320 C.2    97  PHE97       0.2290
     70  O         93.9370   26.1380    5.7160 O.2    97  PHE97      -0.2864
     71  CB        96.5660   24.1330    5.8020 C.3    97  PHE97       0.0560
     72  CG        97.7710   23.7490    6.6110 C.ar   97  PHE97      -0.0200
     73  CD1       97.9030   24.1560    7.9280 C.ar   97  PHE97      -0.0042
     74  CD2       98.7790   22.9830    6.0470 C.ar   97  PHE97      -0.0042
     75  CE1       99.0170   23.8020    8.6680 C.ar   97  PHE97      -0.0003
     76  CE2       99.8940   22.6300    6.7790 C.ar   97  PHE97      -0.0003
     77  CZ       100.0130   23.0390    8.0920 C.ar   97  PHE97      -0.0000
     78  N        100.8080   27.2660   11.2040 N.3   127  PHE127     -0.1241
     79  CA       101.0030   26.3030   12.2710 C.3   127  PHE127      0.1605
     80  C        100.5040   26.8580   13.6010 C.2   127  PHE127      0.2264
     81  O         99.9650   26.1250   14.4280 O.2   127  PHE127     -0.2867
     82  CB       102.4770   25.9180   12.3710 C.3   127  PHE127      0.0534
     83  CG       102.8200   25.1920   13.6280 C.ar  127  PHE127     -0.0203
     84  CD1      102.6360   23.8250   13.7280 C.ar  127  PHE127     -0.0042
     85  CD2      103.3200   25.8780   14.7150 C.ar  127  PHE127     -0.0042
     86  CE1      102.9480   23.1540   14.8930 C.ar  127  PHE127     -0.0003
     87  CE2      103.6280   25.2200   15.8690 C.ar  127  PHE127     -0.0003
     88  CZ       103.4430   23.8550   15.9660 C.ar  127  PHE127     -0.0000
     89  N         96.6840   26.2610   13.8580 N.3   130  CYS130     -0.1221
     90  CA        96.2740   24.8720   14.0360 C.3   130  CYS130      0.1808
     91  C         96.2690   24.4850   15.5050 C.2   130  CYS130      0.2601
     92  O         95.3260   23.8580   15.9870 O.2   130  CYS130     -0.2717
     93  CB        97.1960   23.9340   13.2590 C.3   130  CYS130      0.0970
     94  SG        97.1440   24.1570   11.4700 S.3   130  CYS130     -0.0800
     95  N         97.3240   24.8740   16.2140 N.am  131  GLN131     -0.1979
     96  CA        97.4400   24.5770   17.6340 C.3   131  GLN131      0.1601
     97  C         96.3690   25.3060   18.4330 C.2   131  GLN131      0.2287
     98  O         95.7850   24.7450   19.3590 O.2   131  GLN131     -0.2864
     99  CB        98.8330   24.9450   18.1450 C.3   131  GLN131      0.0394
    100  CG        99.9500   24.2740   17.3690 C.3   131  GLN131      0.0908
    101  CD        99.7920   22.7700   17.3300 C.2   131  GLN131      0.2608
    102  OE1       99.3770   22.1560   18.3120 O.2   131  GLN131     -0.2717
    103  NE2      100.1150   22.1680   16.1910 N.am  131  GLN131     -0.0878
    104  N         93.3730   23.2720   17.7350 N.3   134  PHE134     -0.1241
    105  CA        93.4830   21.9520   18.3460 C.3   134  PHE134      0.1605
    106  C         93.3220   22.0060   19.8600 C.2   134  PHE134      0.2264
    107  O         92.9390   21.0210   20.4830 O.2   134  PHE134     -0.2867
    108  CB        94.8130   21.2920   17.9800 C.3   134  PHE134      0.0534
    109  CG        94.7970   20.5950   16.6490 C.ar  134  PHE134     -0.0203
    110  CD1       93.7150   19.8220   16.2710 C.ar  134  PHE134     -0.0042
    111  CD2       95.8620   20.7200   15.7720 C.ar  134  PHE134     -0.0042
    112  CE1       93.6980   19.1820   15.0480 C.ar  134  PHE134     -0.0003
    113  CE2       95.8500   20.0830   14.5470 C.ar  134  PHE134     -0.0003
    114  CZ        94.7670   19.3140   14.1850 C.ar  134  PHE134     -0.0000
    115  N         93.2800   14.7850   21.9920 N.3   145  TRP145     -0.1241
    116  CA        92.6120   15.7300   21.1100 C.3   145  TRP145      0.1605
    117  C         91.3900   15.0810   20.4700 C.2   145  TRP145      0.2264
    118  O         91.4930   14.4030   19.4430 O.2   145  TRP145     -0.2867
    119  CB        93.5690   16.2440   20.0330 C.3   145  TRP145      0.0550
    120  CG        94.6300   17.1580   20.5650 C.ar  145  TRP145      0.0003
    121  CD1       94.4870   18.4770   20.8790 C.ar  145  TRP145      0.0946
    122  CD2       96.0010   16.8240   20.8430 C.ar  145  TRP145      0.0152
    123  NE1       95.6790   18.9880   21.3350 N.ar  145  TRP145     -0.2442
    124  CE2       96.6170   18.0000   21.3240 C.ar  145  TRP145      0.0810
    125  CE3       96.7550   15.6560   20.7320 C.ar  145  TRP145      0.0012
    126  CZ2       97.9670   18.0270   21.6960 C.ar  145  TRP145      0.0191
    127  CZ3       98.0930   15.6900   21.1030 C.ar  145  TRP145      0.0001
    128  CH2       98.6850   16.8690   21.5790 C.ar  145  TRP145      0.0015
    129  N         93.4780   11.5300   19.5440 N.3   152  TYR152     -0.1241
    130  CA        94.9190   11.4080   19.6320 C.3   152  TYR152      0.1605
    131  C         95.3180   11.4590   21.0990 C.2   152  TYR152      0.2264
    132  O         95.4540   12.5360   21.6770 O.2   152  TYR152     -0.2867
    133  CB        95.5950   12.5350   18.8550 C.3   152  TYR152      0.0534
    134  CG        95.2630   12.5660   17.3770 C.ar  152  TYR152     -0.0201
    135  CD1       94.1240   13.2120   16.9130 C.ar  152  TYR152     -0.0009
    136  CD2       96.0940   11.9580   16.4460 C.ar  152  TYR152     -0.0009
    137  CE1       93.8180   13.2460   15.5640 C.ar  152  TYR152      0.0417
    138  CE2       95.7950   11.9850   15.0950 C.ar  152  TYR152      0.0417
    139  CZ        94.6580   12.6330   14.6600 C.ar  152  TYR152      0.1957
    140  OH        94.3590   12.6680   13.3160 O.3   152  TYR152     -0.2866
    141  N        105.7710   21.7690   23.1380 N.3   169  MET169     -0.1230
    142  CA       104.6060   21.6400   22.2710 C.3   169  MET169      0.1702
    143  C        103.3890   21.1360   23.0500 C.2   169  MET169      0.2592
    144  O        102.2830   21.6470   22.8900 O.2   169  MET169     -0.2718
    145  CB       104.9270   20.6950   21.1100 C.3   169  MET169      0.0401
    146  CG       104.4240   21.1500   19.7470 C.3   169  MET169      0.0596
    147  SD       102.6460   20.9480   19.5220 S.3   169  MET169     -0.1393
    148  CE       102.0630   22.5950   19.9200 C.3   169  MET169      0.0692
    149  N        103.6000   20.1390   23.9010 N.am  170  LEU170     -0.1980
    150  CA       102.5290   19.6220   24.7460 C.3   170  LEU170      0.1596
    151  C        102.1710   20.5980   25.8520 C.2   170  LEU170      0.2287
    152  O        101.0050   20.9570   26.0190 O.2   170  LEU170     -0.2864
    153  CB       102.9220   18.2900   25.3770 C.3   170  LEU170      0.0297
    154  CG       102.5300   17.0190   24.6320 C.3   170  LEU170      0.0022
    155  CD1      103.5840   16.6460   23.6060 C.3   170  LEU170      0.0001
    156  CD2      102.3070   15.8980   25.6250 C.3   170  LEU170      0.0001
    157  N         99.6230   23.2650   25.3430 N.3   173  HIS173     -0.1241
    158  CA        98.2190   22.8740   25.3830 C.3   173  HIS173      0.1621
    159  C         97.7150   22.7160   26.8120 C.2   173  HIS173      0.2264
    160  O         96.5760   23.0680   27.1170 O.2   173  HIS173     -0.2867
    161  CB        97.9890   21.5900   24.5870 C.3   173  HIS173      0.0745
    162  CG        98.1160   21.7670   23.1060 C.ar  173  HIS173      0.0817
    163  ND1       97.0520   22.1240   22.3060 N.ar  173  HIS173     -0.2268
    164  CD2       99.1800   21.6350   22.2790 C.ar  173  HIS173      0.1154
    165  CE1       97.4550   22.2040   21.0500 C.ar  173  HIS173      0.1986
    166  NE2       98.7420   21.9120   21.0070 N.ar  173  HIS173     -0.2212
    167  N        108.6950   23.8260   15.6500 N.3   253  HIS253     -0.1241
    168  CA       108.0250   23.0980   14.5850 C.3   253  HIS253      0.1621
    169  C        108.7040   23.1930   13.2210 C.2   253  HIS253      0.2264
    170  O        108.8680   22.1810   12.5400 O.2   253  HIS253     -0.2867
    171  CB       106.5880   23.5860   14.4340 C.3   253  HIS253      0.0745
    172  CG       105.9090   23.0420   13.2210 C.ar  253  HIS253      0.0817
    173  ND1      105.3400   21.7890   13.1910 N.ar  253  HIS253     -0.2268
    174  CD2      105.7450   23.5620   11.9830 C.ar  253  HIS253      0.1154
    175  CE1      104.8350   21.5660   11.9920 C.ar  253  HIS253      0.1986
    176  NE2      105.0680   22.6260   11.2390 N.ar  253  HIS253     -0.2212
    177  N        112.1020   21.5740   13.0090 N.3   256  ARG256     -0.1231
    178  CA       111.7140   20.1700   13.1390 C.3   256  ARG256      0.1694
    179  C        111.2800   19.5990   11.7940 C.2   256  ARG256      0.2591
    180  O        111.8150   18.5930   11.3310 O.2   256  ARG256     -0.2718
    181  CB       110.5390   20.0780   14.1090 C.3   256  ARG256      0.0321
    182  CG       110.4540   18.8190   14.9310 C.3   256  ARG256      0.0489
    183  CD       109.5170   19.0520   16.1050 C.3   256  ARG256      0.2205
    184  NE       110.2150   18.9900   17.3850 N.pl3 256  ARG256     -0.0865
    185  CZ       109.6580   19.2880   18.5530 C.cat 256  ARG256      0.5346
    186  NH1      108.3940   19.6840   18.6040 N.pl3 256  ARG256      0.1354
    187  NH2      110.3650   19.1980   19.6720 N.pl3 256  ARG256      0.1354
    188  N        110.3080   20.2620   11.1750 N.am  257  LEU257     -0.1980
    189  CA       109.7560   19.8320    9.8970 C.3   257  LEU257      0.1596
    190  C        110.8270   19.8030    8.8120 C.2   257  LEU257      0.2287
    191  O        110.8730   18.8810    7.9920 O.2   257  LEU257     -0.2864
    192  CB       108.6150   20.7590    9.4860 C.3   257  LEU257      0.0297
    193  CG       107.5980   20.3100    8.4350 C.3   257  LEU257      0.0022
    194  CD1      106.3310   21.1340    8.5720 C.3   257  LEU257      0.0001
    195  CD2      108.1430   20.4300    7.0170 C.3   257  LEU257      0.0001
    196  N        113.0320   16.6000    9.2350 N.3   260  ILE260     -0.1245
    197  CA       112.3250   15.3730    8.8730 C.3   260  ILE260      0.1561
    198  C        112.1170   15.2690    7.3630 C.2   260  ILE260      0.2260
    199  O        112.2730   14.1990    6.7770 O.2   260  ILE260     -0.2867
    200  CB       110.9740   15.2660    9.5890 C.3   260  ILE260      0.0252
    201  CG1      111.1770   15.2950   11.1050 C.3   260  ILE260      0.0019
    202  CG2      110.2640   13.9940    9.1880 C.3   260  ILE260      0.0019
    203  CD1      109.8950   15.2540   11.8960 C.3   260  ILE260      0.0001
    204  N        108.1570   14.0760    2.5620 N.3   266  PHE266     -0.1241
    205  CA       106.7800   13.6720    2.8330 C.3   266  PHE266      0.1605
    206  C        105.8100   14.8470    2.7580 C.2   266  PHE266      0.2264
    207  O        104.6110   14.6950    2.9940 O.2   266  PHE266     -0.2867
    208  CB       106.6790   12.9320    4.1810 C.3   266  PHE266      0.0534
    209  CG       106.6500   13.8320    5.3990 C.ar  266  PHE266     -0.0203
    210  CD1      107.7420   14.6160    5.7390 C.ar  266  PHE266     -0.0042
    211  CD2      105.5380   13.8490    6.2320 C.ar  266  PHE266     -0.0042
    212  CE1      107.7160   15.4250    6.8700 C.ar  266  PHE266     -0.0003
    213  CE2      105.5020   14.6530    7.3640 C.ar  266  PHE266     -0.0003
    214  CZ       106.5940   15.4410    7.6840 C.ar  266  PHE266     -0.0000
    215  N        102.0760   21.9520    2.2770 N.3   271  MET271     -0.1245
    216  CA       103.0340   22.0570    3.3730 C.3   271  MET271      0.1570
    217  C        104.2780   22.8170    2.9420 C.2   271  MET271      0.2261
    218  O        104.7220   23.7410    3.6250 O.2   271  MET271     -0.2867
    219  CB       103.4310   20.6740    3.8650 C.3   271  MET271      0.0387
    220  CG       103.1500   20.4530    5.3250 C.3   271  MET271      0.0595
    221  SD       102.5900   18.7740    5.6280 S.3   271  MET271     -0.1393
    222  CE       103.8080   18.2900    6.8230 C.3   271  MET271      0.0692
    223  N        105.5780   26.2390    4.4910 N.3   275  PHE275     -0.1241
    224  CA       106.8310   26.1390    5.2270 C.3   275  PHE275      0.1605
    225  C        108.0530   26.3130    4.3200 C.2   275  PHE275      0.2264
    226  O        109.1810   25.9870    4.6980 O.2   275  PHE275     -0.2867
    227  CB       106.8680   24.8260    6.0110 C.3   275  PHE275      0.0534
    228  CG       105.7650   24.7080    7.0280 C.ar  275  PHE275     -0.0203
    229  CD1      104.5190   24.2040    6.6770 C.ar  275  PHE275     -0.0042
    230  CD2      105.9680   25.1230    8.3300 C.ar  275  PHE275     -0.0042
    231  CE1      103.5030   24.1060    7.6150 C.ar  275  PHE275     -0.0003
    232  CE2      104.9580   25.0320    9.2670 C.ar  275  PHE275     -0.0003
    233  CZ       103.7270   24.5210    8.9120 C.ar  275  PHE275     -0.0000
@<TRIPOS>BOND
     1   215   216    1
     2   204   205    1
     3   206   205    1
     4   206   207    2
     5   205   208    1
     6   217   216    1
     7   217   218    2
     8   216   219    1
     9   219   220    1
    10   208   209    1
    11   225   226    2
    12   225   224    1
    13   223   224    1
    14   224   227    1
    15   220   221    1
    16   209   210   ar
    17   209   211   ar
    18    44    41    1
    19    43    42    2
    20   221   222    1
    21    70    69    2
    22    69    68    1
    23   210   212   ar
    24    71    72    1
    25    71    68    1
    26    42    41    1
    27   227   228    1
    28    74    72   ar
    29    74    76   ar
    30   211   213   ar
    31    58    57    1
    32    41    40    1
    33    72    73   ar
    34    68    67    1
    35   229   228   ar
    36   229   231   ar
    37    55    56    2
    38    55    54    1
    39   199   198    2
    40    76    77   ar
    41   212   214   ar
    42   195   193    1
    43   228   230   ar
    44    67    61   am
    45   198   197    1
    46   213   214   ar
    47    57    54    1
    48   231   233   ar
    49    40    34   am
    50    27    26    2
    51    45    46    1
    52    54    53    1
    53    59    60    1
    54    73    75   ar
    55    26    25    1
    56   191   190    2
    57    77    75   ar
    58    53    47   am
    59    61    62    2
    60    61    60    1
    61   230   232   ar
    62   193   194    1
    63   193   192    1
    64    47    46    1
    65    47    48    2
    66    46    49    1
    67    34    35    2
    68    34    33    1
    69   190   189    1
    70   197   196    1
    71   197   200    1
    72    60    63    1
    73   233   232   ar
    74    28    25    1
    75    28    29    1
    76   202   200    1
    77    25    24    1
    78    32    33    1
    79   192   189    1
    80   200   201    1
    81    30    29    1
    82   189   188    1
    83    33    36    1
    84    63    64    1
    85    49    50    1
    86    29    31    1
    87    36    37    1
    88    64    65    1
    89    51    50    1
    90    51    52    1
    91   201   203    1
    92   188   179   am
    93    78    79    1
    94   176   174   ar
    95   176   175   ar
    96   180   179    2
    97    94    93    1
    98    65    66    1
    99   179   178    1
   100   174   172   ar
   101   175   173   ar
   102    37    38    1
   103    79    82    1
   104    79    80    1
   105    82    83    1
   106   170   169    2
   107    39    38    1
   108   177   178    1
   109   178   181    1
   110   173   172   ar
   111   169   168    1
   112   172   171    1
   113    93    90    1
   114   140   139    1
   115    80    81    2
   116    83    84   ar
   117    83    85   ar
   118    84    86   ar
   119    89    90    1
   120     7     6    1
   121    90    91    1
   122   181   182    1
   123   114   113   ar
   124   114   112   ar
   125   171   168    1
   126   113   111   ar
   127   168   167    1
   128   139   138   ar
   129   139   137   ar
   130    85    87   ar
   131     8     6    1
   132    86    88   ar
   133   182   183    1
   134   112   110   ar
   135     6     5    1
   136   138   136   ar
   137    91    92    2
   138    91    95   am
   139   137   135   ar
   140   111   109   ar
   141    87    88   ar
   142   183   184    1
   143   103   101   am
   144    95    96    1
   145   110   109   ar
   146     5     2    1
   147   136   134   ar
   148   109   108    1
   149   135   134   ar
   150   101   100    1
   151   101   102    2
   152   100    99    1
   153   134   133    1
   154   184   185    2
   155     2     1    1
   156     2     3    1
   157    96    99    1
   158    96    97    1
   159   104   105    1
   160   108   105    1
   161   105   106    1
   162    23    21    1
   163    97    98    2
   164   185   186    1
   165   185   187    1
   166    15    14    1
   167    20    19    2
   168   133   130    1
   169     3     4    2
   170    12    11    2
   171   118   117    2
   172    13    14    1
   173    13    10    1
   174   147   146    1
   175   147   148    1
   176   129   130    1
   177   130   131    1
   178   146   145    1
   179    19    18    1
   180   106   107    2
   181    21    18    1
   182    21    22    1
   183    14    16    1
   184   119   120    1
   185   119   116    1
   186    11    10    1
   187    17    18    1
   188   117   116    1
   189   120   122   ar
   190   120   121   ar
   191    10     9    1
   192   125   122   ar
   193   125   127   ar
   194   122   124   ar
   195   121   123   ar
   196   166   165   ar
   197   166   164   ar
   198   165   163   ar
   199   131   132    2
   200   127   128   ar
   201   145   142    1
   202   116   115    1
   203   124   123   ar
   204   124   126   ar
   205   128   126   ar
   206   142   143    1
   207   142   141    1
   208   164   162   ar
   209   163   162   ar
   210   144   143    2
   211   143   149   am
   212   162   161    1
   213   155   154    1
   214   149   150    1
   215   161   158    1
   216   154   153    1
   217   154   156    1
   218   150   153    1
   219   150   151    1
   220   157   158    1
   221   158   159    1
   222   151   152    2
   223   159   160    2
