@<TRIPOS>MOLECULE
tmp/4j69A05.pdb
 89 84 0 0 0
SMALL
GASTEIGER

@<TRIPOS>ATOM
      1  N        -11.4020  -17.8760  -10.0950 N.3    43  VAL43      -0.1231
      2  CA       -12.2030  -18.8350   -9.3500 C.3    43  VAL43       0.1692
      3  C        -13.5530  -18.2220   -9.0440 C.2    43  VAL43       0.2592
      4  O        -13.6310  -17.0290   -8.7440 O.2    43  VAL43      -0.2718
      5  CB       -11.5200  -19.2060   -8.0280 C.3    43  VAL43       0.0266
      6  CG1      -12.3160  -20.2650   -7.3040 C.3    43  VAL43       0.0020
      7  CG2      -10.1040  -19.7060   -8.2920 C.3    43  VAL43       0.0020
      8  N        -14.6070  -19.0310   -9.1080 N.am   44  ASN44      -0.1960
      9  CA       -15.9610  -18.5430   -8.8550 C.3    44  ASN44       0.1819
     10  C        -16.9160  -19.7080   -8.6010 C.2    44  ASN44       0.2621
     11  O        -16.8210  -20.7460   -9.2580 O.2    44  ASN44      -0.2715
     12  CB       -16.4660  -17.7150  -10.0390 C.3    44  ASN44       0.1195
     13  CG       -17.7940  -17.0440   -9.7420 C.2    44  ASN44       0.2630
     14  OD1      -17.8580  -16.1340   -8.9190 O.2    44  ASN44      -0.2716
     15  ND2      -18.8560  -17.4980  -10.3920 N.am   44  ASN44      -0.0877
     16  N        -17.8280  -19.5400   -7.6480 N.am   45  THR45      -0.1951
     17  CA       -18.7570  -20.6020   -7.2740 C.3    45  THR45       0.1897
     18  C        -20.1750  -20.1720   -7.5900 C.2    45  THR45       0.2313
     19  O        -20.5620  -19.0350   -7.2850 O.2    45  THR45      -0.2863
     20  CB       -18.6860  -20.8780   -5.7530 C.3    45  THR45       0.1794
     21  OG1      -17.3690  -21.3250   -5.4210 O.3    45  THR45      -0.2208
     22  CG2      -19.6820  -21.9560   -5.3490 C.3    45  THR45       0.0378
     23  N        -12.7520  -15.3530    6.1390 N.3    66  LYS66      -0.1245
     24  CA       -11.3360  -15.7090    6.0340 C.3    66  LYS66       0.1561
     25  C        -10.4080  -14.5690    6.4380 C.2    66  LYS66       0.2260
     26  O         -9.2890  -14.8170    6.8830 O.2    66  LYS66      -0.2867
     27  CB       -10.9730  -16.1840    4.6270 C.3    66  LYS66       0.0271
     28  CG       -11.5640  -17.5240    4.2750 C.3    66  LYS66       0.0035
     29  CD       -10.8680  -18.1440    3.0690 C.3    66  LYS66       0.0206
     30  CE       -11.7340  -19.2360    2.4460 C.3    66  LYS66       0.1093
     31  NZ       -11.0460  -19.9970    1.3480 N.3    66  LYS66      -0.1314
     32  N        -18.2000  -25.2930   -8.4900 N.3    83  ASP83      -0.1239
     33  CA       -16.9870  -24.4910   -8.4400 C.3    83  ASP83       0.1674
     34  C        -16.4650  -24.3740   -9.8420 C.2    83  ASP83       0.2266
     35  O        -16.3890  -25.3800  -10.5510 O.2    83  ASP83      -0.2867
     36  CB       -15.9320  -25.1980   -7.5720 C.3    83  ASP83       0.1410
     37  CG       -14.5440  -24.5320   -7.6480 C.2    83  ASP83       0.3668
     38  OD1      -14.3280  -23.5120   -6.9700 O.co2  83  ASP83      -0.2456
     39  OD2      -13.6600  -25.0460   -8.3770 O.co2  83  ASP83      -0.2456
     40  N        -13.1240  -23.0140  -11.9650 N.3    85  ARG85      -0.1245
     41  CA       -11.7350  -22.6350  -11.7430 C.3    85  ARG85       0.1563
     42  C        -10.9990  -22.6810  -13.0690 C.2    85  ARG85       0.2260
     43  O        -11.1350  -23.6420  -13.8290 O.2    85  ARG85      -0.2867
     44  CB       -11.0960  -23.6220  -10.7630 C.3    85  ARG85       0.0307
     45  CG        -9.9940  -23.0490   -9.8840 C.3    85  ARG85       0.0489
     46  CD        -9.8590  -23.8930   -8.6190 C.3    85  ARG85       0.2205
     47  NE        -9.3860  -23.1370   -7.4630 N.pl3  85  ARG85      -0.0865
     48  CZ       -10.1380  -22.8840   -6.4040 C.cat  85  ARG85       0.5346
     49  NH1      -11.3850  -23.3330   -6.3610 N.pl3  85  ARG85       0.1354
     50  NH2       -9.6510  -22.2060   -5.3830 N.pl3  85  ARG85       0.1354
     51  N        -22.3400  -28.8490   -0.6190 N.3   104  LYS104     -0.1245
     52  CA       -21.5880  -28.3770    0.5340 C.3   104  LYS104      0.1561
     53  C        -22.3040  -27.2490    1.2630 C.2   104  LYS104      0.2260
     54  O        -23.2230  -26.6380    0.7110 O.2   104  LYS104     -0.2867
     55  CB       -20.2260  -27.8820    0.0840 C.3   104  LYS104      0.0271
     56  CG       -19.3550  -28.9720   -0.5200 C.3   104  LYS104      0.0035
     57  CD       -18.0200  -28.3970   -0.9020 C.3   104  LYS104      0.0206
     58  CE       -18.0480  -27.7220   -2.2570 C.3   104  LYS104      0.1093
     59  NZ       -17.0410  -26.6220   -2.3370 N.3   104  LYS104     -0.1314
     60  N        -19.0480  -14.2060   -1.5150 N.3   120  PHE120     -0.1227
     61  CA       -18.9970  -15.6450   -1.2750 C.3   120  PHE120      0.1736
     62  C        -17.6450  -15.9350   -0.6540 C.2   120  PHE120      0.2595
     63  O        -16.6130  -15.6700   -1.2700 O.2   120  PHE120     -0.2718
     64  CB       -19.1660  -16.4240   -2.5720 C.3   120  PHE120      0.0547
     65  CG       -19.4280  -17.8910   -2.3690 C.ar  120  PHE120     -0.0202
     66  CD1      -18.3790  -18.7830   -2.2220 C.ar  120  PHE120     -0.0042
     67  CD2      -20.7350  -18.3710   -2.3240 C.ar  120  PHE120     -0.0042
     68  CE1      -18.6230  -20.1330   -2.0280 C.ar  120  PHE120     -0.0003
     69  CE2      -20.9910  -19.7110   -2.1260 C.ar  120  PHE120     -0.0003
     70  CZ       -19.9350  -20.5930   -1.9780 C.ar  120  PHE120     -0.0000
     71  N        -17.6370  -16.4320    0.5800 N.am  121  ASP121     -0.1960
     72  CA       -16.3760  -16.5830    1.2950 C.3   121  ASP121      0.1840
     73  C        -15.7620  -17.9430    0.9950 C.2   121  ASP121      0.2622
     74  O        -14.5730  -18.0470    0.6560 O.2   121  ASP121     -0.2715
     75  CB       -16.5780  -16.4080    2.8020 C.3   121  ASP121      0.1450
     76  CG       -15.2880  -16.1050    3.5320 C.2   121  ASP121      0.3671
     77  OD1      -14.6320  -15.1050    3.1820 O.co2 121  ASP121     -0.2456
     78  OD2      -14.9230  -16.8580    4.4580 O.co2 121  ASP121     -0.2456
     79  N        -16.5750  -18.9870    1.1070 N.am  122  ALA122     -0.1963
     80  CA       -16.0810  -20.3530    0.9710 C.3   122  ALA122      0.1728
     81  C        -17.2290  -21.3450    0.9960 C.2   122  ALA122      0.2616
     82  O        -18.3840  -20.9690    1.2260 O.2   122  ALA122     -0.2715
     83  CB       -15.0740  -20.6860    2.0850 C.3   122  ALA122      0.0334
     84  N        -16.9160  -22.6090    0.7420 N.am  123  SER123     -0.1950
     85  CA       -17.8910  -23.6650    0.9390 C.3   123  SER123      0.1924
     86  C        -17.1970  -24.7850    1.6950 C.2   123  SER123      0.2314
     87  O        -15.9820  -24.9570    1.5760 O.2   123  SER123     -0.2863
     88  CB       -18.4490  -24.1670   -0.3950 C.3   123  SER123      0.2116
     89  OG       -17.5000  -24.9660   -1.0690 O.3   123  SER123     -0.2180
@<TRIPOS>BOND
     1    43    42    2
     2    42    41    1
     3    40    41    1
     4    41    44    1
     5    44    45    1
     6    35    34    2
     7    15    13   am
     8     1     2    1
     9    12    13    1
    10    12     9    1
    11    45    46    1
    12    34    33    1
    13    13    14    2
    14     2     3    1
    15     2     5    1
    16    11    10    2
    17     8     3   am
    18     8     9    1
    19     3     4    2
    20     9    10    1
    21    46    47    1
    22    10    16   am
    23    32    33    1
    24    33    36    1
    25    39    37   ar
    26     7     5    1
    27     5     6    1
    28    37    36    1
    29    37    38   ar
    30    16    17    1
    31    18    19    2
    32    18    17    1
    33    47    48    2
    34    17    20    1
    35    48    49    1
    36    48    50    1
    37    20    21    1
    38    20    22    1
    39    64    65    1
    40    64    61    1
    41    65    67   ar
    42    65    66   ar
    43    59    58    1
    44    67    69   ar
    45    58    57    1
    46    66    68   ar
    47    69    70   ar
    48    68    70   ar
    49    60    61    1
    50    61    62    1
    51    63    62    2
    52    89    88    1
    53    57    56    1
    54    62    71   am
    55    51    52    1
    56    56    55    1
    57    88    85    1
    58    55    52    1
    59    52    53    1
    60    71    72    1
    61    74    73    2
    62    54    53    2
    63    84    85    1
    64    84    81   am
    65    85    86    1
    66    80    81    1
    67    80    79    1
    68    80    83    1
    69    73    79   am
    70    73    72    1
    71    81    82    2
    72    72    75    1
    73    31    30    1
    74    87    86    2
    75    30    29    1
    76    75    76    1
    77    29    28    1
    78    77    76   ar
    79    76    78   ar
    80    28    27    1
    81    27    24    1
    82    24    23    1
    83    24    25    1
    84    25    26    2
