@<TRIPOS>MOLECULE
tmp/4j6cA00.pdb
 164 153 0 0 0
SMALL
GASTEIGER

@<TRIPOS>ATOM
      1  N        -20.5960  -24.6820    7.4150 N.3    80  GLY80      -0.1210
      2  CA       -21.8290  -24.8240    8.1820 C.3    80  GLY80       0.1956
      3  C        -21.6210  -25.4810    9.5360 C.2    80  GLY80       0.2611
      4  O        -22.5180  -25.4780   10.3780 O.2    80  GLY80      -0.2717
      5  N        -20.4340  -26.0660    9.7500 N.am   81  MET81      -0.1979
      6  CA       -20.1200  -26.6970   11.0370 C.3    81  MET81       0.1605
      7  C        -19.7340  -25.6580   12.0830 C.2    81  MET81       0.2287
      8  O        -19.7120  -25.9620   13.2630 O.2    81  MET81      -0.2864
      9  CB       -18.9770  -27.6930   10.8740 C.3    81  MET81       0.0413
     10  CG       -19.3080  -28.8700    9.9960 C.3    81  MET81       0.0598
     11  SD       -20.5650  -29.9230   10.6660 S.3    81  MET81      -0.1393
     12  CE       -19.7810  -30.3910   12.2450 C.3    81  MET81       0.0692
     13  N        -22.5110  -20.5690   12.5000 N.3    84  VAL84      -0.1245
     14  CA       -23.9090  -20.7640   12.8960 C.3    84  VAL84       0.1561
     15  C        -24.3400  -19.6570   13.8920 C.2    84  VAL84       0.2260
     16  O        -23.5270  -18.8600   14.3290 O.2    84  VAL84      -0.2867
     17  CB       -24.1110  -22.1490   13.5810 C.3    84  VAL84       0.0252
     18  CG1      -24.0830  -23.2820   12.5470 C.3    84  VAL84       0.0019
     19  CG2      -23.0530  -22.3770   14.6710 C.3    84  VAL84       0.0019
     20  N        -25.5630  -19.4270   20.2110 N.3    87  SER87      -0.1217
     21  CA       -26.0790  -20.5320   21.0420 C.3    87  SER87       0.1889
     22  C        -24.9950  -20.9580   22.0260 C.2    87  SER87       0.2288
     23  O        -23.8830  -20.3860   22.0300 O.2    87  SER87      -0.2866
     24  CB       -26.4960  -21.7220   20.1590 C.3    87  SER87       0.2089
     25  OG       -25.3660  -22.4960   19.7580 O.3    87  SER87      -0.2183
     26  N        -23.2000  -23.3180   21.7340 N.3    89  PHE89      -0.1241
     27  CA       -22.1570  -23.8980   20.9050 C.3    89  PHE89       0.1605
     28  C        -21.1070  -22.8560   20.4860 C.2    89  PHE89       0.2264
     29  O        -19.9450  -23.2020   20.2680 O.2    89  PHE89      -0.2867
     30  CB       -22.8010  -24.5500   19.6450 C.3    89  PHE89       0.0534
     31  CG       -21.7990  -25.2440   18.6980 C.ar   89  PHE89      -0.0203
     32  CD1      -21.0620  -26.3600   19.1140 C.ar   89  PHE89      -0.0042
     33  CD2      -21.6090  -24.7740   17.4020 C.ar   89  PHE89      -0.0042
     34  CE1      -20.1660  -26.9790   18.2570 C.ar   89  PHE89      -0.0003
     35  CE2      -20.7170  -25.4090   16.5300 C.ar   89  PHE89      -0.0003
     36  CZ       -19.9990  -26.5030   16.9600 C.ar   89  PHE89      -0.0000
     37  N        -30.4450  -33.2170    7.2070 N.3   173  TYR173     -0.1241
     38  CA       -29.1660  -33.5210    7.8910 C.3   173  TYR173      0.1605
     39  C        -28.2510  -34.3710    7.0340 C.2   173  TYR173      0.2264
     40  O        -27.0540  -34.1160    6.9590 O.2   173  TYR173     -0.2867
     41  CB       -29.3900  -34.1750    9.2600 C.3   173  TYR173      0.0534
     42  CG       -29.8780  -33.1920   10.2980 C.ar  173  TYR173     -0.0201
     43  CD1      -29.2350  -31.9770   10.4870 C.ar  173  TYR173     -0.0009
     44  CD2      -30.9980  -33.4690   11.0850 C.ar  173  TYR173     -0.0009
     45  CE1      -29.6900  -31.0660   11.4340 C.ar  173  TYR173      0.0417
     46  CE2      -31.4550  -32.5550   12.0380 C.ar  173  TYR173      0.0417
     47  CZ       -30.8010  -31.3640   12.1990 C.ar  173  TYR173      0.1957
     48  OH       -31.2510  -30.4510   13.1320 O.3   173  TYR173     -0.2866
     49  N        -26.8080  -32.0260    4.6700 N.3   176  PHE176     -0.1227
     50  CA       -25.9320  -31.1220    5.3890 C.3   176  PHE176      0.1736
     51  C        -24.5560  -31.7820    5.6680 C.2   176  PHE176      0.2595
     52  O        -23.5040  -31.1390    5.4990 O.2   176  PHE176     -0.2718
     53  CB       -26.5800  -30.6840    6.7190 C.3   176  PHE176      0.0547
     54  CG       -25.6410  -29.9370    7.6280 C.ar  176  PHE176     -0.0202
     55  CD1      -25.4350  -28.5830    7.4640 C.ar  176  PHE176     -0.0042
     56  CD2      -24.9460  -30.6020    8.6530 C.ar  176  PHE176     -0.0042
     57  CE1      -24.5640  -27.8860    8.2950 C.ar  176  PHE176     -0.0003
     58  CE2      -24.0710  -29.9060    9.4800 C.ar  176  PHE176     -0.0003
     59  CZ       -23.8830  -28.5510    9.3020 C.ar  176  PHE176     -0.0000
     60  N        -24.5780  -33.0520    6.1090 N.am  177  PHE177     -0.1976
     61  CA       -23.3510  -33.7500    6.5460 C.3   177  PHE177      0.1639
     62  C        -22.4960  -34.3050    5.4150 C.2   177  PHE177      0.2290
     63  O        -21.2780  -34.4010    5.5610 O.2   177  PHE177     -0.2864
     64  CB       -23.6800  -34.8530    7.5710 C.3   177  PHE177      0.0560
     65  CG       -23.9050  -34.3180    8.9670 C.ar  177  PHE177     -0.0200
     66  CD1      -22.8800  -33.6700    9.6490 C.ar  177  PHE177     -0.0042
     67  CD2      -25.1410  -34.4210    9.5760 C.ar  177  PHE177     -0.0042
     68  CE1      -23.0900  -33.1490   10.9260 C.ar  177  PHE177     -0.0003
     69  CE2      -25.3500  -33.9150   10.8580 C.ar  177  PHE177     -0.0003
     70  CZ       -24.3290  -33.2750   11.5250 C.ar  177  PHE177     -0.0000
     71  N        -33.4050  -25.4330    6.9600 N.3   193  MET193     -0.1245
     72  CA       -33.4170  -25.8860    8.3560 C.3   193  MET193      0.1570
     73  C        -33.6610  -24.7400    9.3180 C.2   193  MET193      0.2261
     74  O        -34.4420  -24.8690   10.2650 O.2   193  MET193     -0.2867
     75  CB       -32.1010  -26.5980    8.7100 C.3   193  MET193      0.0387
     76  CG       -31.9710  -27.9720    8.0910 C.3   193  MET193      0.0595
     77  SD       -30.6140  -28.9030    8.8150 S.3   193  MET193     -0.1393
     78  CE       -29.2130  -27.9990    8.1630 C.3   193  MET193      0.0692
     79  N        -31.0550  -21.1990   18.0770 N.3   233  GLY233     -0.1225
     80  CA       -29.7110  -21.7260   18.0460 C.3   233  GLY233      0.1811
     81  C        -29.5100  -22.9550   18.9230 C.2   233  GLY233      0.2280
     82  O        -28.9630  -23.9610   18.4720 O.2   233  GLY233     -0.2866
     83  N        -31.5850  -25.9410   17.3800 N.3   236  GLN236     -0.1231
     84  CA       -30.9830  -26.5850   16.2230 C.3   236  GLN236      0.1698
     85  C        -29.7740  -27.4340   16.6400 C.2   236  GLN236      0.2592
     86  O        -29.5780  -28.5420   16.1420 O.2   236  GLN236     -0.2718
     87  CB       -30.5670  -25.5430   15.2040 C.3   236  GLN236      0.0381
     88  CG       -31.7280  -24.8600   14.5410 C.3   236  GLN236      0.0905
     89  CD       -31.3280  -24.1510   13.2660 C.2   236  GLN236      0.2608
     90  OE1      -31.3670  -22.9220   13.1910 O.2   236  GLN236     -0.2717
     91  NE2      -30.9240  -24.9250   12.2520 N.am  236  GLN236     -0.0878
     92  N        -28.9820  -26.9010   17.5650 N.am  237  ALA237     -0.1980
     93  CA       -27.8100  -27.5960   18.0750 C.3   237  ALA237      0.1597
     94  C        -28.1800  -28.9030   18.7670 C.2   237  ALA237      0.2287
     95  O        -27.5410  -29.9380   18.5360 O.2   237  ALA237     -0.2864
     96  CB       -27.0350  -26.7040   19.0360 C.3   237  ALA237      0.0319
     97  N        -29.5770  -31.4630   16.0510 N.3   240  ALA240     -0.1231
     98  CA       -28.5010  -31.9120   15.1580 C.3   240  ALA240      0.1694
     99  C        -27.5510  -32.8670   15.8910 C.2   240  ALA240      0.2591
    100  O        -27.2470  -33.9450   15.3970 O.2   240  ALA240     -0.2718
    101  CB       -27.7320  -30.7190   14.6060 C.3   240  ALA240      0.0304
    102  N        -27.0960  -32.4540   17.0840 N.am  241  ALA241     -0.1980
    103  CA       -26.1760  -33.2570   17.8820 C.3   241  ALA241      0.1597
    104  C        -26.8600  -34.4890   18.3790 C.2   241  ALA241      0.2287
    105  O        -26.3020  -35.5890   18.3410 O.2   241  ALA241     -0.2864
    106  CB       -25.6550  -32.4350   19.0720 C.3   241  ALA241      0.0319
    107  N        -27.3450  -37.0460   15.2870 N.3   244  GLU244     -0.1231
    108  CA       -26.2190  -37.5030   14.4970 C.3   244  GLU244      0.1699
    109  C        -25.2280  -38.3640   15.2920 C.2   244  GLU244      0.2592
    110  O        -24.7690  -39.3800   14.7970 O.2   244  GLU244     -0.2718
    111  CB       -25.4970  -36.2980   13.8490 C.3   244  GLU244      0.0402
    112  CG       -24.1630  -36.6200   13.1300 C.3   244  GLU244      0.1161
    113  CD       -24.3400  -37.3950   11.8280 C.2   244  GLU244      0.3649
    114  OE1      -25.4960  -37.7480   11.4800 O.co2 244  GLU244     -0.2457
    115  OE2      -23.3060  -37.6590   11.1470 O.co2 244  GLU244     -0.2457
    116  N        -24.9050  -37.9600   16.5210 N.am  245  THR245     -0.1953
    117  CA       -23.8970  -38.6690   17.2980 C.3   245  THR245      0.1897
    118  C        -24.4280  -40.0010   17.7620 C.2   245  THR245      0.2313
    119  O        -23.7340  -41.0090   17.7030 O.2   245  THR245     -0.2863
    120  CB       -23.4850  -37.8700   18.5180 C.3   245  THR245      0.1794
    121  OG1      -24.6580  -37.5090   19.2700 O.3   245  THR245     -0.2208
    122  CG2      -22.7140  -36.6100   18.0940 C.3   245  THR245      0.0378
    123  N        -17.5900  -38.7860   17.2300 N.3   288  VAL288     -0.1301
    124  CA       -16.8670  -37.6220   16.7230 C.3   288  VAL288      0.1246
    125  C        -15.4720  -38.0190   16.2540 C.3   288  VAL288      0.2009
    126  O        -14.6920  -38.7130   17.0100 O.3   288  VAL288     -0.2188
    127  CB       -16.7190  -36.5360   17.8280 C.3   288  VAL288      0.0202
    128  CG1      -16.0640  -35.2790   17.2490 C.3   288  VAL288      0.0016
    129  CG2      -18.0960  -36.2060   18.4560 C.3   288  VAL288      0.0016
    130  N        -13.6120  -32.1570   15.8600 N.3   291  LEU291     -0.1245
    131  CA       -14.4790  -31.0500   16.2380 C.3   291  LEU291      0.1561
    132  C        -13.8910  -29.6890   15.8170 C.2   291  LEU291      0.2260
    133  O        -12.8390  -29.2470   16.3370 O.2   291  LEU291     -0.2867
    134  CB       -14.7330  -31.0730   17.7500 C.3   291  LEU291      0.0270
    135  CG       -15.7720  -30.0640   18.2660 C.3   291  LEU291      0.0019
    136  CD1      -15.1310  -28.6750   18.4040 C.3   291  LEU291      0.0001
    137  CD2      -17.0180  -30.0120   17.3520 C.3   291  LEU291      0.0001
    138  N        -10.8190  -35.8790   18.3470 N.3   317  TYR317     -0.1241
    139  CA       -11.3040  -36.7800   19.3980 C.3   317  TYR317      0.1605
    140  C        -11.0910  -38.2990   19.1320 C.2   317  TYR317      0.2264
    141  O        -10.8200  -39.0700   20.0580 O.2   317  TYR317     -0.2867
    142  CB       -12.7880  -36.5080   19.6290 C.3   317  TYR317      0.0534
    143  CG       -13.0540  -35.2600   20.4520 C.ar  317  TYR317     -0.0201
    144  CD1      -12.7920  -35.2380   21.8180 C.ar  317  TYR317     -0.0009
    145  CD2      -13.5880  -34.1060   19.8650 C.ar  317  TYR317     -0.0009
    146  CE1      -13.0340  -34.1170   22.5670 C.ar  317  TYR317      0.0417
    147  CE2      -13.8330  -32.9750   20.6200 C.ar  317  TYR317      0.0417
    148  CZ       -13.5660  -32.9910   21.9700 C.ar  317  TYR317      0.1957
    149  OH       -13.8060  -31.8730   22.7140 O.3   317  TYR317     -0.2866
    150  N        -20.2910  -31.9250   26.5800 N.3   354  CYS354     -0.1235
    151  CA       -21.5820  -32.2760   26.0030 C.3   354  CYS354      0.1677
    152  C        -22.6760  -32.2260   27.0680 C.2   354  CYS354      0.2270
    153  O        -22.5260  -32.8290   28.1360 O.2   354  CYS354     -0.2867
    154  CB       -21.5200  -33.6670   25.3900 C.3   354  CYS354      0.0956
    155  SG       -23.0960  -34.2160   24.7470 S.3   354  CYS354     -0.0801
    156  N        -17.5850  -36.6070   11.3720 N.3   395  GLN395     -0.1245
    157  CA       -18.4620  -37.5120   12.1190 C.3   395  GLN395      0.1566
    158  C        -18.2000  -38.9440   11.6920 C.2   395  GLN395      0.2260
    159  O        -17.9470  -39.2320   10.4740 O.2   395  GLN395     -0.2867
    160  CB       -19.9640  -37.1800   11.8870 C.3   395  GLN395      0.0367
    161  CG       -20.3350  -35.6810   11.8810 C.3   395  GLN395      0.0905
    162  CD       -20.0650  -34.9920   13.2020 C.2   395  GLN395      0.2608
    163  OE1      -19.4060  -33.9170   13.2450 O.2   395  GLN395     -0.2717
    164  NE2      -20.5760  -35.5860   14.3080 N.am  395  GLN395     -0.0878
@<TRIPOS>BOND
     1    49    50    1
     2    50    51    1
     3    50    53    1
     4    62    63    2
     5    62    61    1
     6    52    51    2
     7    51    60   am
     8    60    61    1
     9    61    64    1
    10    53    54    1
    11    40    39    2
    12    71    72    1
    13    39    38    1
    14    37    38    1
    15     1     2    1
    16    55    54   ar
    17    55    57   ar
    18    64    65    1
    19    54    56   ar
    20    38    41    1
    21    76    75    1
    22    76    77    1
    23    78    77    1
    24     2     3    1
    25    57    59   ar
    26    72    75    1
    27    72    73    1
    28    56    58   ar
    29    65    67   ar
    30    65    66   ar
    31    41    42    1
    32    59    58   ar
    33    73    74    2
    34     3     5   am
    35     3     4    2
    36    67    69   ar
    37    66    68   ar
    38     5     6    1
    39    10    11    1
    40    10     9    1
    41    42    43   ar
    42    42    44   ar
    43   159   158    2
    44    43    45   ar
    45    11    12    1
    46    69    70   ar
    47     9     6    1
    48    68    70   ar
    49     6     7    1
    50    44    46   ar
    51   115   113   ar
    52   156   157    1
    53    45    47   ar
    54   114   113   ar
    55   158   157    1
    56   113   112    1
    57   161   160    1
    58   161   162    1
    59   160   157    1
    60    46    47   ar
    61     7     8    2
    62    47    48    1
    63    91    89   am
    64    13    14    1
    65    18    17    1
    66    14    17    1
    67    14    15    1
    68   112   111    1
    69    90    89    2
    70   162   163    2
    71   162   164   am
    72    89    88    1
    73    17    19    1
    74   111   108    1
    75    15    16    2
    76   108   107    1
    77   108   109    1
    78    88    87    1
    79   101    98    1
    80   110   109    2
    81    98    99    1
    82    98    97    1
    83    87    84    1
    84   109   116   am
    85   100    99    2
    86   132   131    1
    87   132   133    2
    88   130   131    1
    89    99   102   am
    90    86    85    2
    91    84    85    1
    92    84    83    1
    93   131   134    1
    94   125   124    1
    95   125   126    1
    96   116   117    1
    97    35    36   ar
    98    35    33   ar
    99    85    92   am
   100   124   123    1
   101   124   127    1
   102    36    34   ar
   103   102   103    1
   104   128   127    1
   105   117   118    1
   106   117   120    1
   107   137   135    1
   108    33    31   ar
   109    92    93    1
   110   119   118    2
   111   134   135    1
   112   127   129    1
   113   103   104    1
   114   103   106    1
   115    80    79    1
   116    80    81    1
   117    93    94    1
   118    93    96    1
   119   122   120    1
   120    34    32   ar
   121   135   136    1
   122   105   104    2
   123   138   139    1
   124    82    81    2
   125   120   121    1
   126    95    94    2
   127    31    32   ar
   128    31    30    1
   129   140   139    1
   130   140   141    2
   131   139   142    1
   132   142   143    1
   133    30    27    1
   134    25    24    1
   135   145   143   ar
   136   145   147   ar
   137    24    21    1
   138    20    21    1
   139    29    28    2
   140   143   144   ar
   141    28    27    1
   142   147   148   ar
   143    27    26    1
   144    21    22    1
   145   144   146   ar
   146   148   146   ar
   147   148   149    1
   148    22    23    2
   149   155   154    1
   150   154   151    1
   151   151   150    1
   152   151   152    1
   153   152   153    2
