@<TRIPOS>MOLECULE
tmp/4j6iA00.pdb
 211 199 0 0 0
SMALL
GASTEIGER

@<TRIPOS>ATOM
      1  N         13.6840   60.7040   11.4260 N.3   560  LYS560     -0.1245
      2  CA        14.1810   61.9750   10.8800 C.3   560  LYS560      0.1561
      3  C         15.7140   62.0510   10.8820 C.2   560  LYS560      0.2260
      4  O         16.3970   61.1630   11.4010 O.2   560  LYS560     -0.2867
      5  CB        13.6370   63.1810   11.6580 C.3   560  LYS560      0.0271
      6  CG        13.8980   63.1920   13.1590 C.3   560  LYS560      0.0035
      7  CD        13.6490   64.6040   13.6930 C.3   560  LYS560      0.0206
      8  CE        13.6500   64.7170   15.2240 C.3   560  LYS560      0.1093
      9  NZ        12.4880   64.0590   15.8830 N.3   560  LYS560     -0.1314
     10  N         18.7170   64.2250   12.3960 N.3   562  MET562     -0.1245
     11  CA        18.9140   65.2470   13.4340 C.3   562  MET562      0.1570
     12  C         19.7360   66.4710   13.0250 C.2   562  MET562      0.2261
     13  O         20.5500   66.4320   12.0990 O.2   562  MET562     -0.2867
     14  CB        19.5260   64.6230   14.6820 C.3   562  MET562      0.0387
     15  CG        18.6850   63.5190   15.2780 C.3   562  MET562      0.0595
     16  SD        19.4190   62.7390   16.7150 S.3   562  MET562     -0.1393
     17  CE        19.5250   61.1410   15.9250 C.3   562  MET562      0.0692
     18  N         22.3650   68.0760   13.6780 N.3   564  SER564     -0.1217
     19  CA        23.7690   68.0550   14.1070 C.3   564  SER564      0.1889
     20  C         24.7190   67.9910   12.8930 C.2   564  SER564      0.2288
     21  O         24.2940   67.7010   11.7740 O.2   564  SER564     -0.2866
     22  CB        24.0400   66.8580   15.0420 C.3   564  SER564      0.2089
     23  OG        24.9920   65.9340   14.5200 O.3   564  SER564     -0.2183
     24  N         22.9800   62.5150   12.2060 N.3   568  PRO568     -0.2116
     25  CA        22.6120   61.2000   12.7260 C.3   568  PRO568      0.1372
     26  C         21.2050   60.8470   12.3220 C.2   568  PRO568      0.2244
     27  O         20.4100   61.7700   12.1840 O.2   568  PRO568     -0.2868
     28  CB        22.6670   61.3890   14.2530 C.3   568  PRO568      0.0268
     29  CG        23.4040   62.6470   14.4730 C.3   568  PRO568      0.0207
     30  CD        23.0780   63.5070   13.2880 C.3   568  PRO568      0.0892
     31  N         17.6130   59.5430   13.1580 N.3   570  TRP570     -0.1241
     32  CA        16.7040   59.3130   14.2900 C.3   570  TRP570      0.1605
     33  C         15.6180   58.3420   13.8510 C.2   570  TRP570      0.2264
     34  O         14.7080   58.7050   13.1000 O.2   570  TRP570     -0.2867
     35  CB        16.0850   60.6330   14.7440 C.3   570  TRP570      0.0550
     36  CG        15.0180   60.5260   15.7770 C.ar  570  TRP570      0.0003
     37  CD1       13.7300   60.0630   15.6030 C.ar  570  TRP570      0.0946
     38  CD2       15.1110   60.9400   17.1350 C.ar  570  TRP570      0.0152
     39  NE1       13.0300   60.1370   16.7880 N.ar  570  TRP570     -0.2442
     40  CE2       13.8500   60.6770   17.7430 C.ar  570  TRP570      0.0810
     41  CE3       16.1380   61.4960   17.9090 C.ar  570  TRP570      0.0012
     42  CZ2       13.5990   60.9470   19.0800 C.ar  570  TRP570      0.0191
     43  CZ3       15.8850   61.7600   19.2470 C.ar  570  TRP570      0.0001
     44  CH2       14.6230   61.4890   19.8160 C.ar  570  TRP570      0.0015
     45  N         12.6790   55.2280   14.5950 N.3   572  GLU572     -0.1245
     46  CA        11.6820   54.7800   15.5540 C.3   572  GLU572      0.1567
     47  C         11.0700   53.4920   15.0100 C.2   572  GLU572      0.2260
     48  O         10.8230   53.3960   13.8010 O.2   572  GLU572     -0.2867
     49  CB        10.6170   55.8470   15.7550 C.3   572  GLU572      0.0388
     50  CG        11.1740   57.2390   16.0710 C.3   572  GLU572      0.1160
     51  CD        10.4730   57.9360   17.2300 C.2   572  GLU572      0.3649
     52  OE1        9.2870   57.6270   17.4800 O.co2 572  GLU572     -0.2457
     53  OE2       11.1000   58.8140   17.8690 O.co2 572  GLU572     -0.2457
     54  N         19.1080   55.9390   17.4380 N.3   589  ILE589     -0.1245
     55  CA        19.9210   56.9150   16.7210 C.3   589  ILE589      0.1561
     56  C         21.0290   56.2070   15.9730 C.2   589  ILE589      0.2260
     57  O         21.7640   55.4730   16.6130 O.2   589  ILE589     -0.2867
     58  CB        20.5420   57.9280   17.6400 C.3   589  ILE589      0.0252
     59  CG1       19.4540   58.7880   18.2790 C.3   589  ILE589      0.0019
     60  CG2       21.5690   58.7740   16.8850 C.3   589  ILE589      0.0019
     61  CD1       20.0520   59.8230   19.2190 C.3   589  ILE589      0.0001
     62  N         24.6100   56.5670   14.1350 N.3   591  LYS591     -0.1245
     63  CA        25.4810   57.7000   13.8000 C.3   591  LYS591      0.1561
     64  C         26.9540   57.4870   13.3970 C.2   591  LYS591      0.2260
     65  O         27.6940   56.6820   13.9800 O.2   591  LYS591     -0.2867
     66  CB        25.4290   58.6770   14.9810 C.3   591  LYS591      0.0271
     67  CG        26.3420   59.8890   14.8550 C.3   591  LYS591      0.0035
     68  CD        26.1920   60.7860   16.0570 C.3   591  LYS591      0.0206
     69  CE        27.4820   61.1100   16.6800 C.3   591  LYS591      0.1093
     70  NZ        27.6370   62.5550   16.9820 N.3   591  LYS591     -0.1314
     71  N         31.5420   59.4140   15.2900 N.3   594  ASP594     -0.1239
     72  CA        32.0780   59.5920   16.6210 C.3   594  ASP594      0.1674
     73  C         32.8260   58.2900   16.7930 C.2   594  ASP594      0.2266
     74  O         32.4860   57.3430   16.1000 O.2   594  ASP594     -0.2867
     75  CB        31.0210   59.8190   17.7000 C.3   594  ASP594      0.1410
     76  CG        30.4150   61.1630   17.6380 C.2   594  ASP594      0.3668
     77  OD1       30.5270   61.8240   16.5900 O.co2 594  ASP594     -0.2456
     78  OD2       29.7190   61.5100   18.6070 O.co2 594  ASP594     -0.2456
     79  N         32.4860   55.5030   18.5950 N.3   596  LEU596     -0.1245
     80  CA        31.5550   54.9960   19.5940 C.3   596  LEU596      0.1561
     81  C         32.1790   53.8490   20.4200 C.2   596  LEU596      0.2260
     82  O         31.5060   53.2800   21.2720 O.2   596  LEU596     -0.2867
     83  CB        30.2330   54.5640   18.9330 C.3   596  LEU596      0.0270
     84  CG        29.3560   55.7260   18.3900 C.3   596  LEU596      0.0019
     85  CD1       28.0720   55.3320   17.6430 C.3   596  LEU596      0.0001
     86  CD2       29.0090   56.7890   19.4090 C.3   596  LEU596      0.0001
     87  N         32.6240   55.3650   23.6500 N.3   599  ASP599     -0.1239
     88  CA        31.3640   55.4510   24.3660 C.3   599  ASP599      0.1674
     89  C         31.0140   54.0770   24.9630 C.2   599  ASP599      0.2266
     90  O         30.6730   54.0040   26.1430 O.2   599  ASP599     -0.2867
     91  CB        30.2310   55.9440   23.4450 C.3   599  ASP599      0.1410
     92  CG        30.2950   57.4570   23.1280 C.2   599  ASP599      0.3668
     93  OD1       31.1590   57.8880   22.3150 O.co2 599  ASP599     -0.2456
     94  OD2       29.4110   58.2010   23.6250 O.co2 599  ASP599     -0.2456
     95  N         23.0310   54.2740   29.0970 N.3   625  TYR625     -0.1241
     96  CA        22.1190   53.8570   28.0340 C.3   625  TYR625      0.1605
     97  C         22.7950   52.8640   27.0540 C.2   625  TYR625      0.2264
     98  O         24.0220   52.7110   27.0370 O.2   625  TYR625     -0.2867
     99  CB        21.6300   55.0800   27.2350 C.3   625  TYR625      0.0534
    100  CG        22.7790   56.0040   26.8510 C.ar  625  TYR625     -0.0201
    101  CD1       23.4550   55.8360   25.6390 C.ar  625  TYR625     -0.0009
    102  CD2       23.2090   57.0190   27.6940 C.ar  625  TYR625     -0.0009
    103  CE1       24.5370   56.6500   25.2850 C.ar  625  TYR625      0.0417
    104  CE2       24.2820   57.8470   27.3320 C.ar  625  TYR625      0.0417
    105  CZ        24.9320   57.6600   26.1420 C.ar  625  TYR625      0.1957
    106  OH        25.9840   58.4700   25.8080 O.3   625  TYR625     -0.2866
    107  N         22.7360   54.0230   18.9450 N.3   637  ILE637     -0.1231
    108  CA        22.5030   54.5310   20.2900 C.3   637  ILE637      0.1692
    109  C         21.0370   54.3130   20.7110 C.2   637  ILE637      0.2592
    110  O         20.0900   54.4330   19.9080 O.2   637  ILE637     -0.2718
    111  CB        22.8420   56.0270   20.3320 C.3   637  ILE637      0.0266
    112  CG1       24.1870   56.2380   19.6320 C.3   637  ILE637      0.0019
    113  CG2       22.8150   56.6160   21.7290 C.3   637  ILE637      0.0020
    114  CD1       24.9100   57.5550   19.9230 C.3   637  ILE637      0.0001
    115  N         20.8220   54.0680   21.9930 N.am  638  GLU638     -0.1966
    116  CA        19.4670   53.9490   22.4920 C.3   638  GLU638      0.1733
    117  C         18.9130   55.3300   22.6970 C.2   638  GLU638      0.2616
    118  O         19.6270   56.2330   23.1480 O.2   638  GLU638     -0.2715
    119  CB        19.4420   53.1430   23.7860 C.3   638  GLU638      0.0429
    120  CG        18.1550   53.0780   24.5340 C.3   638  GLU638      0.1163
    121  CD        18.2990   52.4210   25.9210 C.2   638  GLU638      0.3649
    122  OE1       17.4270   52.6200   26.7830 O.co2 638  GLU638     -0.2457
    123  OE2       19.3200   51.7430   26.1870 O.co2 638  GLU638     -0.2457
    124  N         17.6730   55.5410   22.2890 N.am  639  ILE639     -0.1963
    125  CA        17.0810   56.8300   22.5590 C.3   639  ILE639      0.1727
    126  C         16.3830   56.7970   23.9110 C.2   639  ILE639      0.2616
    127  O         15.4350   56.0330   24.1030 O.2   639  ILE639     -0.2715
    128  CB        16.0640   57.2470   21.4870 C.3   639  ILE639      0.0290
    129  CG1       16.7610   57.5110   20.1390 C.3   639  ILE639      0.0022
    130  CG2       15.3670   58.5120   21.9470 C.3   639  ILE639      0.0023
    131  CD1       15.8190   58.0140   19.0350 C.3   639  ILE639      0.0001
    132  N         16.9100   57.5390   24.8800 N.am  640  VAL640     -0.1963
    133  CA        16.1920   57.6270   26.1450 C.3   640  VAL640      0.1727
    134  C         15.0400   58.5660   25.9550 C.2   640  VAL640      0.2616
    135  O         15.2560   59.7540   25.6810 O.2   640  VAL640     -0.2715
    136  CB        17.0890   58.1030   27.2660 C.3   640  VAL640      0.0290
    137  CG1       16.2890   58.4200   28.5180 C.3   640  VAL640      0.0023
    138  CG2       18.2340   57.0850   27.4750 C.3   640  VAL640      0.0023
    139  N         13.8360   58.0690   26.2240 N.am  641  LYS641     -0.1963
    140  CA        12.6380   58.8420   25.9440 C.3   641  LYS641      0.1728
    141  C         12.4590   60.0340   26.8730 C.2   641  LYS641      0.2616
    142  O         12.7010   59.9480   28.0800 O.2   641  LYS641     -0.2715
    143  CB        11.3980   57.9370   25.9980 C.3   641  LYS641      0.0311
    144  CG        10.7490   57.6730   24.6150 C.3   641  LYS641      0.0038
    145  CD        11.7460   57.1360   23.5780 C.3   641  LYS641      0.0206
    146  CE        11.0720   56.8670   22.2440 C.3   641  LYS641      0.1093
    147  NZ        10.5530   58.1210   21.6820 N.3   641  LYS641     -0.1314
    148  N         12.0060   61.1400   26.2920 N.am  642  ASP642     -0.1957
    149  CA        11.6790   62.3360   27.0570 C.3   642  ASP642      0.1840
    150  C         12.8800   62.8910   27.8220 C.2   642  ASP642      0.2622
    151  O         12.7710   63.3230   28.9630 O.2   642  ASP642     -0.2715
    152  CB        10.5060   62.0550   28.0070 C.3   642  ASP642      0.1450
    153  CG         9.2630   61.5340   27.2720 C.2   642  ASP642      0.3671
    154  OD1        8.8950   62.1440   26.2340 O.co2 642  ASP642     -0.2456
    155  OD2        8.6500   60.5430   27.7410 O.co2 642  ASP642     -0.2456
    156  N         14.0320   62.8780   27.1750 N.am  643  ALA643     -0.1963
    157  CA        15.2550   63.3780   27.7770 C.3   643  ALA643      0.1728
    158  C         15.7020   64.5670   26.9860 C.2   643  ALA643      0.2616
    159  O         15.5600   64.5770   25.7690 O.2   643  ALA643     -0.2715
    160  CB        16.3300   62.3170   27.8370 C.3   643  ALA643      0.0334
    161  N         16.1690   65.6060   27.6550 N.am  644  THR644     -0.1951
    162  CA        16.6680   66.7520   26.9090 C.3   644  THR644      0.1897
    163  C         17.9960   67.1880   27.4530 C.2   644  THR644      0.2313
    164  O         18.4580   66.7710   28.5210 O.2   644  THR644     -0.2863
    165  CB        15.7090   67.9760   26.9300 C.3   644  THR644      0.1794
    166  OG1       15.6200   68.5020   28.2530 O.3   644  THR644     -0.2208
    167  CG2       14.3320   67.6080   26.4460 C.3   644  THR644      0.0378
    168  N         19.6410   72.7100   25.9090 N.3   648  LYS648     -0.1245
    169  CA        18.3840   73.0220   25.2470 C.3   648  LYS648      0.1561
    170  C         17.4260   73.7190   26.2510 C.2   648  LYS648      0.2260
    171  O         16.6820   74.6450   25.8890 O.2   648  LYS648     -0.2867
    172  CB        17.7530   71.7570   24.6340 C.3   648  LYS648      0.0271
    173  CG        18.4730   71.1960   23.3860 C.3   648  LYS648      0.0035
    174  CD        17.6940   70.0590   22.6830 C.3   648  LYS648      0.0206
    175  CE        18.6400   68.9950   22.0770 C.3   648  LYS648      0.1093
    176  NZ        18.5390   67.6300   22.7290 N.3   648  LYS648     -0.1314
    177  N         22.4710   65.4270   29.8950 N.3   711  MET711     -0.1245
    178  CA        21.0500   65.3890   29.6940 C.3   711  MET711      0.1570
    179  C         20.3340   65.0500   31.0030 C.2   711  MET711      0.2261
    180  O         20.9550   64.5970   31.9890 O.2   711  MET711     -0.2867
    181  CB        20.6680   64.3750   28.5960 C.3   711  MET711      0.0387
    182  CG        21.3990   64.5880   27.2600 C.3   711  MET711      0.0595
    183  SD        20.8480   63.5580   25.8670 S.3   711  MET711     -0.1393
    184  CE        19.1470   64.0690   25.6440 C.3   711  MET711      0.0692
    185  N         22.1930   62.7190   33.3530 N.3   719  PHE719     -0.1241
    186  CA        23.1530   61.7610   32.7900 C.3   719  PHE719      0.1605
    187  C         23.9720   62.3300   31.6260 C.2   719  PHE719      0.2264
    188  O         23.4570   63.1030   30.8310 O.2   719  PHE719     -0.2867
    189  CB        22.4620   60.4610   32.3460 C.3   719  PHE719      0.0534
    190  CG        21.4860   60.6090   31.2190 C.ar  719  PHE719     -0.0203
    191  CD1       21.8740   60.2670   29.9370 C.ar  719  PHE719     -0.0042
    192  CD2       20.1750   60.9840   31.4320 C.ar  719  PHE719     -0.0042
    193  CE1       21.0000   60.3520   28.8790 C.ar  719  PHE719     -0.0003
    194  CE2       19.2890   61.0690   30.3690 C.ar  719  PHE719     -0.0003
    195  CZ        19.7030   60.7500   29.0950 C.ar  719  PHE719     -0.0000
    196  N         26.4280   62.2120   28.0810 N.3   721  ILE721     -0.1231
    197  CA        26.4090   61.5310   26.7890 C.3   721  ILE721      0.1692
    198  C         27.6190   61.9100   25.9370 C.2   721  ILE721      0.2592
    199  O         28.3930   62.7560   26.3220 O.2   721  ILE721     -0.2718
    200  CB        25.1760   61.8810   25.9640 C.3   721  ILE721      0.0266
    201  CG1       25.2160   63.3470   25.5200 C.3   721  ILE721      0.0019
    202  CG2       23.9260   61.3870   26.6180 C.3   721  ILE721      0.0020
    203  CD1       24.0710   63.7470   24.6660 C.3   721  ILE721      0.0001
    204  N         27.7370   61.3340   24.7500 N.am  722  ASP722     -0.1974
    205  CA        28.8120   61.7100   23.8640 C.3   722  ASP722      0.1709
    206  C         30.2190   61.7030   24.4550 C.2   722  ASP722      0.2293
    207  O         30.8290   62.7430   24.6720 O.2   722  ASP722     -0.2864
    208  CB        28.5370   63.0990   23.3050 C.3   722  ASP722      0.1436
    209  CG        29.1040   63.2870   21.9240 C.2   722  ASP722      0.3671
    210  OD1       29.3790   62.2540   21.2740 O.co2 722  ASP722     -0.2456
    211  OD2       29.2860   64.4580   21.5010 O.co2 722  ASP722     -0.2456
@<TRIPOS>BOND
     1     2     3    1
     2     2     1    1
     3     2     5    1
     4     3     4    2
     5     5     6    1
     6    21    20    2
     7    13    12    2
     8    27    26    2
     9    24    25    1
    10    24    30    1
    11    26    25    1
    12    10    11    1
    13    25    28    1
    14    20    19    1
    15    12    11    1
    16    34    33    2
    17    31    32    1
    18     6     7    1
    19    30    29    1
    20    64    63    1
    21    64    65    2
    22    11    14    1
    23    18    19    1
    24     7     8    1
    25    63    62    1
    26    63    66    1
    27    48    47    2
    28    33    32    1
    29    19    22    1
    30    28    29    1
    31    32    35    1
    32    23    22    1
    33    45    46    1
    34    14    15    1
    35    35    36    1
    36    67    66    1
    37    67    68    1
    38    47    46    1
    39     8     9    1
    40    15    16    1
    41    71    72    1
    42    46    49    1
    43    37    36   ar
    44    37    39   ar
    45    49    50    1
    46    36    38   ar
    47    17    16    1
    48    56    57    2
    49    56    55    1
    50    68    69    1
    51    50    51    1
    52    74    73    2
    53    77    76   ar
    54    72    73    1
    55    72    75    1
    56    69    70    1
    57    55    54    1
    58    55    58    1
    59    39    40   ar
    60    60    58    1
    61    38    40   ar
    62    38    41   ar
    63    51    52   ar
    64    51    53   ar
    65    76    75    1
    66    76    78   ar
    67    58    59    1
    68    85    84    1
    69    40    42   ar
    70    41    43   ar
    71    59    61    1
    72    84    83    1
    73    84    86    1
    74    79    80    1
    75    83    80    1
    76   107   108    1
    77   131   129    1
    78    42    44   ar
    79    43    44   ar
    80    80    81    1
    81   112   114    1
    82   112   111    1
    83   110   109    2
    84   129   128    1
    85   108   111    1
    86   108   109    1
    87   111   113    1
    88    81    82    2
    89   109   115   am
    90   210   209   ar
    91   128   130    1
    92   128   125    1
    93   211   209   ar
    94   147   146    1
    95   209   208    1
    96   115   116    1
    97   175   174    1
    98   175   176    1
    99   146   145    1
   100   124   125    1
   101   124   117   am
   102    93    92   ar
   103   116   117    1
   104   116   119    1
   105   125   126    1
   106   174   173    1
   107   117   118    2
   108    92    91    1
   109    92    94   ar
   110   208   205    1
   111   173   172    1
   112    91    88    1
   113   145   144    1
   114    87    88    1
   115   119   120    1
   116   205   206    1
   117   205   204    1
   118   126   127    2
   119   126   132   am
   120    88    89    1
   121   206   207    2
   122   120   121    1
   123   144   143    1
   124   172   169    1
   125   203   201    1
   126   204   198   am
   127   132   133    1
   128    89    90    2
   129   169   168    1
   130   169   170    1
   131   103   101   ar
   132   103   105   ar
   133   201   200    1
   134   101   100   ar
   135   184   183    1
   136   135   134    2
   137   159   158    2
   138   106   105    1
   139   183   182    1
   140   171   170    2
   141   121   123   ar
   142   121   122   ar
   143   198   199    2
   144   198   197    1
   145   140   143    1
   146   140   139    1
   147   140   141    1
   148   134   133    1
   149   134   139   am
   150   200   202    1
   151   200   197    1
   152   105   104   ar
   153   133   136    1
   154   154   153   ar
   155   148   141   am
   156   148   149    1
   157   167   165    1
   158   197   196    1
   159   100    99    1
   160   100   102   ar
   161   141   142    2
   162   162   165    1
   163   162   163    1
   164   162   161    1
   165   165   166    1
   166   158   161   am
   167   158   157    1
   168    98    97    2
   169    97    96    1
   170   149   150    1
   171   149   152    1
   172   156   157    1
   173   156   150   am
   174    99    96    1
   175   182   181    1
   176   136   138    1
   177   136   137    1
   178   153   155   ar
   179   153   152    1
   180   104   102   ar
   181   163   164    2
   182   157   160    1
   183   150   151    2
   184    96    95    1
   185   181   178    1
   186   193   195   ar
   187   193   191   ar
   188   195   194   ar
   189   178   177    1
   190   178   179    1
   191   191   190   ar
   192   194   192   ar
   193   188   187    2
   194   179   180    2
   195   190   192   ar
   196   190   189    1
   197   187   186    1
   198   189   186    1
   199   186   185    1
