@<TRIPOS>MOLECULE
tmp/4j6oA01.pdb
 88 81 0 0 0
SMALL
GASTEIGER

@<TRIPOS>ATOM
      1  N         47.5270   39.4510   31.5020 N.3     5  ASN5       -0.1225
      2  CA        48.2480   38.3520   30.8780 C.3     5  ASN5        0.1785
      3  C         49.6120   38.7510   30.2950 C.2     5  ASN5        0.2597
      4  O         50.4410   37.9070   29.9700 O.2     5  ASN5       -0.2718
      5  CB        47.3740   37.6090   29.8750 C.3     5  ASN5        0.1169
      6  CG        46.9050   38.4910   28.7710 C.2     5  ASN5        0.2627
      7  OD1       47.7190   39.0130   28.0010 O.2     5  ASN5       -0.2716
      8  ND2       45.5850   38.6860   28.6810 N.am    5  ASN5       -0.0877
      9  N         49.8830   40.0430   30.2170 N.am    6  ASN6       -0.1974
     10  CA        51.1350   40.4790   29.6340 C.3     6  ASN6        0.1688
     11  C         52.3370   40.4140   30.6120 C.2     6  ASN6        0.2292
     12  O         52.4490   41.1960   31.5400 O.2     6  ASN6       -0.2864
     13  CB        50.9330   41.8850   29.0770 C.3     6  ASN6        0.1181
     14  CG        52.0650   42.3200   28.2080 C.2     6  ASN6        0.2629
     15  OD1       53.2030   41.9280   28.4400 O.2     6  ASN6       -0.2716
     16  ND2       51.7750   43.1340   27.1980 N.am    6  ASN6       -0.0877
     17  N         55.5470   40.0030   29.1990 N.3     8  LYS8       -0.1245
     18  CA        56.5860   39.9810   28.1840 C.3     8  LYS8        0.1561
     19  C         57.9590   40.4180   28.7010 C.2     8  LYS8        0.2260
     20  O         58.9910   40.0610   28.1130 O.2     8  LYS8       -0.2867
     21  CB        56.1540   40.7830   26.9770 C.3     8  LYS8        0.0271
     22  CG        55.0340   40.1240   26.1970 C.3     8  LYS8        0.0035
     23  CD        54.6930   41.0000   24.9950 C.3     8  LYS8        0.0206
     24  CE        53.5510   40.4390   24.1930 C.3     8  LYS8        0.1093
     25  NZ        53.1710   41.3860   23.0970 N.3     8  LYS8       -0.1314
     26  N         51.5000   35.6670   28.5990 N.3   145  VAL145     -0.1245
     27  CA        52.4100   35.8080   27.4590 C.3   145  VAL145      0.1561
     28  C         53.7200   36.3220   28.0260 C.2   145  VAL145      0.2260
     29  O         53.7870   37.4310   28.5960 O.2   145  VAL145     -0.2867
     30  CB        51.8330   36.7930   26.3930 C.3   145  VAL145      0.0252
     31  CG1       52.7110   36.8120   25.1650 C.3   145  VAL145      0.0019
     32  CG2       50.3720   36.3610   26.0080 C.3   145  VAL145      0.0019
     33  N         56.8640   37.7360   24.0640 N.3   149  GLY149     -0.1225
     34  CA        55.9110   37.0020   23.2450 C.3   149  GLY149      0.1811
     35  C         56.4220   35.6860   22.6780 C.2   149  GLY149      0.2280
     36  O         55.7930   35.0960   21.8100 O.2   149  GLY149     -0.2866
     37  N         46.2740   30.9970   18.7270 N.3   160  GLU160     -0.1245
     38  CA        46.9290   32.2650   18.3940 C.3   160  GLU160      0.1567
     39  C         46.0690   33.5130   18.5590 C.2   160  GLU160      0.2260
     40  O         46.5050   34.4970   19.1620 O.2   160  GLU160     -0.2867
     41  CB        47.4770   32.2150   16.9730 C.3   160  GLU160      0.0388
     42  CG        48.1780   33.4990   16.5730 C.3   160  GLU160      0.1160
     43  CD        48.9110   33.3790   15.2640 C.2   160  GLU160      0.3649
     44  OE1       48.8280   32.3090   14.6110 O.co2 160  GLU160     -0.2457
     45  OE2       49.5880   34.3600   14.8980 O.co2 160  GLU160     -0.2457
     46  N         45.6720   34.7810   22.1920 N.3   163  GLN163     -0.1231
     47  CA        46.8340   35.1110   23.0080 C.3   163  GLN163      0.1698
     48  C         46.9250   36.5910   23.3000 C.2   163  GLN163      0.2592
     49  O         46.8240   37.4400   22.4110 O.2   163  GLN163     -0.2718
     50  CB        48.1260   34.6060   22.3910 C.3   163  GLN163      0.0381
     51  CG        48.2090   33.0730   22.3500 C.3   163  GLN163      0.0905
     52  CD        49.3860   32.6090   21.5350 C.2   163  GLN163      0.2608
     53  OE1       50.1710   33.4180   21.0800 O.2   163  GLN163     -0.2717
     54  NE2       49.4880   31.3060   21.3020 N.am  163  GLN163     -0.0878
     55  N         47.0500   36.8930   24.5790 N.am  164  GLY164     -0.1957
     56  CA        47.1550   38.2690   24.9920 C.3   164  GLY164      0.1869
     57  C         45.8200   38.9450   25.1920 C.2   164  GLY164      0.2309
     58  O         45.7780   40.0950   25.5960 O.2   164  GLY164     -0.2863
     59  N         47.4880   25.1670   14.9650 N.3   198  TYR198     -0.1241
     60  CA        48.2820   26.2760   15.4930 C.3   198  TYR198      0.1605
     61  C         49.5100   26.6190   14.6230 C.2   198  TYR198      0.2264
     62  O         50.3150   25.7480   14.2540 O.2   198  TYR198     -0.2867
     63  CB        48.7250   25.9680   16.9400 C.3   198  TYR198      0.0534
     64  CG        49.4650   27.0990   17.6150 C.ar  198  TYR198     -0.0201
     65  CD1       48.7770   28.1910   18.1190 C.ar  198  TYR198     -0.0009
     66  CD2       50.8530   27.0670   17.7630 C.ar  198  TYR198     -0.0009
     67  CE1       49.4310   29.2520   18.7440 C.ar  198  TYR198      0.0417
     68  CE2       51.5190   28.0980   18.4080 C.ar  198  TYR198      0.0417
     69  CZ        50.8160   29.1860   18.8980 C.ar  198  TYR198      0.1957
     70  OH        51.4380   30.2530   19.5330 O.3   198  TYR198     -0.2866
     71  N         51.0720   29.8380   15.4120 N.3   200  GLY200     -0.1210
     72  CA        51.4480   31.0550   16.0980 C.3   200  GLY200      0.1956
     73  C         52.9530   31.1070   16.3750 C.2   200  GLY200      0.2612
     74  O         53.6660   30.0890   16.3540 O.2   200  GLY200     -0.2717
     75  N         53.4320   32.3180   16.6470 N.am  201  LYS201     -0.1965
     76  CA        54.8410   32.5510   16.8880 C.3   201  LYS201      0.1728
     77  C         55.3000   31.9920   18.2330 C.2   201  LYS201      0.2616
     78  O         56.3930   31.4340   18.3280 O.2   201  LYS201     -0.2715
     79  CB        55.1270   34.0560   16.8290 C.3   201  LYS201      0.0311
     80  CG        56.3580   34.5040   17.6200 C.3   201  LYS201      0.0038
     81  CD        56.3480   36.0150   17.8540 C.3   201  LYS201      0.0206
     82  CE        57.4450   36.4530   18.8110 C.3   201  LYS201      0.1093
     83  NZ        57.1420   37.8240   19.3290 N.3   201  LYS201     -0.1314
     84  N         54.4800   32.1700   19.2670 N.am  202  ALA202     -0.1977
     85  CA        54.8840   31.7680   20.6230 C.3   202  ALA202      0.1597
     86  C         54.8360   30.2700   20.7810 C.2   202  ALA202      0.2287
     87  O         53.9080   29.6060   20.3070 O.2   202  ALA202     -0.2864
     88  CB        54.0090   32.3710   21.6360 C.3   202  ALA202      0.0319
@<TRIPOS>BOND
     1    62    61    2
     2    44    43   ar
     3    61    60    1
     4    45    43   ar
     5    59    60    1
     6    43    42    1
     7    71    72    1
     8    60    63    1
     9    72    73    1
    10    74    73    2
    11    73    75   am
    12    42    41    1
    13    75    76    1
    14    79    76    1
    15    79    80    1
    16    76    77    1
    17    63    64    1
    18    41    38    1
    19    64    66   ar
    20    64    65   ar
    21    80    81    1
    22    66    68   ar
    23    81    82    1
    24    65    67   ar
    25    77    78    2
    26    77    84   am
    27    38    39    1
    28    38    37    1
    29    68    69   ar
    30    39    40    2
    31    67    69   ar
    32    82    83    1
    33    69    70    1
    34    84    85    1
    35    87    86    2
    36    85    86    1
    37    85    88    1
    38    53    52    2
    39    54    52   am
    40    52    51    1
    41    36    35    2
    42    46    47    1
    43    51    50    1
    44    50    47    1
    45    49    48    2
    46    35    34    1
    47    47    48    1
    48    25    24    1
    49    34    33    1
    50    48    55   am
    51    24    23    1
    52    55    56    1
    53    56    57    1
    54    23    22    1
    55    31    30    1
    56    57    58    2
    57    32    30    1
    58    22    21    1
    59    30    27    1
    60    21    18    1
    61    16    14   am
    62    27    28    1
    63    27    26    1
    64     7     6    2
    65    28    29    2
    66    20    19    2
    67    18    19    1
    68    18    17    1
    69    14    15    2
    70    14    13    1
    71     8     6   am
    72     6     5    1
    73    13    10    1
    74    10     9    1
    75    10    11    1
    76     5     2    1
    77     4     3    2
    78     9     3   am
    79     3     2    1
    80    11    12    2
    81     2     1    1
