@<TRIPOS>MOLECULE
tmp/4j6oA03.pdb
 129 125 0 0 0
SMALL
GASTEIGER

@<TRIPOS>ATOM
      1  N         50.1080   19.1960   35.5270 N.3    19  ASP19      -0.1239
      2  CA        49.1260   18.9990   36.5950 C.3    19  ASP19       0.1674
      3  C         49.6790   18.1870   37.7580 C.2    19  ASP19       0.2266
      4  O         50.1430   17.0480   37.5890 O.2    19  ASP19      -0.2867
      5  CB        47.9460   18.2030   36.0370 C.3    19  ASP19       0.1410
      6  CG        47.3320   18.8100   34.8200 C.2    19  ASP19       0.3668
      7  OD1       48.0020   19.2490   33.8390 O.co2  19  ASP19      -0.2456
      8  OD2       46.0510   18.7700   34.7930 O.co2  19  ASP19      -0.2456
      9  N         47.7070   17.8200   40.9050 N.3    21  HIS21      -0.1241
     10  CA        46.6090   17.0380   41.4860 C.3    21  HIS21       0.1621
     11  C         47.0530   16.3790   42.8180 C.2    21  HIS21       0.2264
     12  O         46.9150   15.1620   43.0210 O.2    21  HIS21      -0.2867
     13  CB        46.1290   15.9770   40.4920 C.3    21  HIS21       0.0745
     14  CG        45.3240   16.5450   39.3740 C.ar   21  HIS21       0.0817
     15  ND1       44.1950   17.3060   39.6020 N.ar   21  HIS21      -0.2268
     16  CD2       45.4520   16.4460   38.0330 C.ar   21  HIS21       0.1154
     17  CE1       43.6980   17.7040   38.4480 C.ar   21  HIS21       0.1986
     18  NE2       44.4280   17.1810   37.4780 N.ar   21  HIS21      -0.2212
     19  N         45.7160   23.0090   37.9710 N.3    65  ASP65      -0.1239
     20  CA        45.1710   21.6990   38.4210 C.3    65  ASP65       0.1674
     21  C         46.0390   21.1880   39.5750 C.2    65  ASP65       0.2266
     22  O         46.5950   20.0840   39.5570 O.2    65  ASP65      -0.2867
     23  CB        45.0690   20.6950   37.2870 C.3    65  ASP65       0.1410
     24  CG        43.6470   20.6830   36.6500 C.2    65  ASP65       0.3668
     25  OD1       42.8870   21.6040   36.9780 O.co2  65  ASP65      -0.2456
     26  OD2       43.3200   19.8020   35.8440 O.co2  65  ASP65      -0.2456
     27  N         42.0830   14.6350   43.6560 N.3    69  ARG69      -0.1245
     28  CA        42.5680   13.2810   43.3530 C.3    69  ARG69       0.1563
     29  C         43.6650   12.7870   44.2580 C.2    69  ARG69       0.2260
     30  O         43.5600   11.7160   44.8560 O.2    69  ARG69      -0.2867
     31  CB        43.0330   13.0920   41.9180 C.3    69  ARG69       0.0307
     32  CG        41.9040   13.2530   40.8840 C.3    69  ARG69       0.0489
     33  CD        42.4060   12.9430   39.4940 C.3    69  ARG69       0.2205
     34  NE        41.3220   12.9900   38.4900 N.pl3  69  ARG69      -0.0865
     35  CZ        41.2180   13.9230   37.5520 C.cat  69  ARG69       0.5346
     36  NH1       42.0880   14.9380   37.4900 N.pl3  69  ARG69       0.1354
     37  NH2       40.2110   13.8790   36.6680 N.pl3  69  ARG69       0.1354
     38  N         40.9740   23.8440   35.3980 N.3    95  ASN95      -0.1225
     39  CA        39.5540   23.7020   35.5960 C.3    95  ASN95       0.1785
     40  C         39.2140   23.2450   37.0230 C.2    95  ASN95       0.2597
     41  O         38.1910   23.6610   37.6220 O.2    95  ASN95      -0.2718
     42  CB        38.9570   22.7620   34.5060 C.3    95  ASN95       0.1169
     43  CG        39.7430   21.4080   34.3090 C.2    95  ASN95       0.2627
     44  OD1       41.0150   21.2930   34.3090 O.2    95  ASN95      -0.2716
     45  ND2       38.9420   20.3660   34.0980 N.am   95  ASN95      -0.0877
     46  N         40.0330   22.3420   37.5630 N.am   96  HIS96      -0.1975
     47  CA        39.7410   21.8340   38.8890 C.3    96  HIS96       0.1656
     48  C         39.9030   22.9230   39.9230 C.2    96  HIS96       0.2291
     49  O         39.1620   22.9230   40.9290 O.2    96  HIS96      -0.2864
     50  CB        40.6850   20.6380   39.2190 C.3    96  HIS96       0.0771
     51  CG        40.3610   19.3980   38.4430 C.ar   96  HIS96       0.0820
     52  ND1       39.7630   18.3010   39.0140 N.ar   96  HIS96      -0.2267
     53  CD2       40.5520   19.0880   37.1290 C.ar   96  HIS96       0.1154
     54  CE1       39.5760   17.3750   38.0910 C.ar   96  HIS96       0.1986
     55  NE2       40.0350   17.8300   36.9380 N.ar   96  HIS96      -0.2212
     56  N         35.4710   13.6610   40.1130 N.3   113  HIS113     -0.1241
     57  CA        36.8260   13.7130   39.5730 C.3   113  HIS113      0.1621
     58  C         37.8150   14.1250   40.6200 C.2   113  HIS113      0.2264
     59  O         38.7670   14.8630   40.2940 O.2   113  HIS113     -0.2867
     60  CB        36.8910   14.6810   38.4120 C.3   113  HIS113      0.0745
     61  CG        36.0090   14.2880   37.2710 C.ar  113  HIS113      0.0817
     62  ND1       34.9720   15.0750   36.8290 N.ar  113  HIS113     -0.2268
     63  CD2       35.9960   13.1780   36.4970 C.ar  113  HIS113      0.1154
     64  CE1       34.3720   14.4790   35.8150 C.ar  113  HIS113      0.1986
     65  NE2       34.9680   13.3250   35.5960 N.ar  113  HIS113     -0.2212
     66  N         46.5540   26.5390   30.9320 N.3   155  HIS155     -0.1241
     67  CA        46.2490   25.1400   31.3010 C.3   155  HIS155      0.1621
     68  C         45.8290   24.3070   30.0970 C.2   155  HIS155      0.2264
     69  O         46.4670   23.2730   29.8110 O.2   155  HIS155     -0.2867
     70  CB        45.1630   25.1000   32.3760 C.3   155  HIS155      0.0745
     71  CG        44.7890   23.7290   32.7580 C.ar  155  HIS155      0.0817
     72  ND1       45.6250   22.9280   33.5150 N.ar  155  HIS155     -0.2268
     73  CD2       43.7080   22.9860   32.4570 C.ar  155  HIS155      0.1154
     74  CE1       45.0580   21.7430   33.6710 C.ar  155  HIS155      0.1986
     75  NE2       43.8860   21.7530   33.0480 N.ar  155  HIS155     -0.2212
     76  N         35.9400   17.8440   21.4950 N.3   191  ARG191     -0.1245
     77  CA        36.9530   18.8590   21.7690 C.3   191  ARG191      0.1563
     78  C         37.6250   19.2660   20.4580 C.2   191  ARG191      0.2260
     79  O         37.9530   18.4230   19.6290 O.2   191  ARG191     -0.2867
     80  CB        38.0390   18.3480   22.7370 C.3   191  ARG191      0.0307
     81  CG        37.5890   18.2900   24.1720 C.3   191  ARG191      0.0489
     82  CD        38.7520   18.1260   25.1400 C.3   191  ARG191      0.2205
     83  NE        38.2640   18.1030   26.5080 N.pl3 191  ARG191     -0.0865
     84  CZ        38.0100   16.9890   27.1860 C.cat 191  ARG191      0.5346
     85  NH1       38.2140   15.8060   26.6120 N.pl3 191  ARG191      0.1354
     86  NH2       37.5550   17.0520   28.4330 N.pl3 191  ARG191      0.1354
     87  N         46.7150   19.9290   29.0680 N.3   208  HIS208     -0.1226
     88  CA        45.2900   19.6970   28.9460 C.3   208  HIS208      0.1752
     89  C         44.9370   18.2610   29.2450 C.2   208  HIS208      0.2597
     90  O         44.9960   17.8550   30.3930 O.2   208  HIS208     -0.2718
     91  CB        44.7560   20.1230   27.5560 C.3   208  HIS208      0.0759
     92  CG        43.2670   20.2910   27.5170 C.ar  208  HIS208      0.0818
     93  ND1       42.4630   20.2730   28.6360 N.ar  208  HIS208     -0.2268
     94  CD2       42.4550   20.5390   26.4620 C.ar  208  HIS208      0.1154
     95  CE1       41.1910   20.4490   28.2590 C.ar  208  HIS208      0.1986
     96  NE2       41.1730   20.6200   26.9570 N.ar  208  HIS208     -0.2212
     97  N         44.5110   17.4770   28.2590 N.am  209  THR209     -0.1939
     98  CA        44.1830   16.1010   28.6070 C.3   209  THR209      0.2013
     99  C         45.5080   15.3610   28.8820 C.2   209  THR209      0.2484
    100  O         46.5310   15.5470   28.1980 O.2   209  THR209     -0.2729
    101  CB        43.3250   15.4250   27.5020 C.3   209  THR209      0.1807
    102  OG1       44.0630   15.3700   26.2940 O.3   209  THR209     -0.2208
    103  CG2       42.0900   16.2280   27.2700 C.3   209  THR209      0.0379
    104  N         45.5060   14.4990   29.8890 N.am  210  PRO210     -0.2726
    105  CA        46.7510   13.8120   30.2720 C.3   210  PRO210      0.1402
    106  C         47.2410   12.8130   29.2170 C.2   210  PRO210      0.2269
    107  O         46.4390   12.1610   28.5240 O.2   210  PRO210     -0.2865
    108  CB        46.3880   13.1020   31.5980 C.3   210  PRO210      0.0296
    109  CG        44.9200   13.1120   31.6520 C.3   210  PRO210      0.0237
    110  CD        44.4580   14.3360   30.8960 C.3   210  PRO210      0.0939
    111  N         51.1800   17.4990   30.4970 N.3   224  ASP224     -0.1239
    112  CA        50.4810   16.7170   31.5270 C.3   224  ASP224      0.1674
    113  C         50.6480   15.2280   31.2890 C.2   224  ASP224      0.2266
    114  O         49.8960   14.6550   30.4910 O.2   224  ASP224     -0.2867
    115  CB        48.9830   17.0670   31.5280 C.3   224  ASP224      0.1410
    116  CG        48.2110   16.3140   32.6020 C.2   224  ASP224      0.3668
    117  OD1       48.8620   15.5900   33.3650 O.co2 224  ASP224     -0.2456
    118  OD2       46.9550   16.4820   32.6960 O.co2 224  ASP224     -0.2456
    119  N         47.7250    9.7080   38.0730 N.3   229  PHE229     -0.1241
    120  CA        47.2050    8.4630   37.5210 C.3   229  PHE229      0.1605
    121  C         48.2480    7.3550   37.4780 C.2   229  PHE229      0.2264
    122  O         48.0390    6.3260   36.8390 O.2   229  PHE229     -0.2867
    123  CB        46.6520    8.7240   36.1150 C.3   229  PHE229      0.0534
    124  CG        45.6330    9.7990   36.0770 C.ar  229  PHE229     -0.0203
    125  CD1       44.4420    9.6390   36.7820 C.ar  229  PHE229     -0.0042
    126  CD2       45.8490   11.0030   35.3970 C.ar  229  PHE229     -0.0042
    127  CE1       43.4650   10.6580   36.7280 C.ar  229  PHE229     -0.0003
    128  CE2       44.8700   12.0530   35.3640 C.ar  229  PHE229     -0.0003
    129  CZ        43.6650   11.8460   36.0480 C.ar  229  PHE229     -0.0000
@<TRIPOS>BOND
     1    79    78    2
     2    78    77    1
     3    76    77    1
     4    77    80    1
     5    80    81    1
     6    81    82    1
     7    82    83    1
     8   102   101    1
     9    94    96   ar
    10    94    92   ar
    11    83    84    2
    12    85    84    1
    13    96    95   ar
    14    84    86    1
    15   103   101    1
    16   101    98    1
    17    92    91    1
    18    92    93   ar
    19    91    88    1
    20   100    99    2
    21    97    98    1
    22    97    89   am
    23    95    93   ar
    24   107   106    2
    25    98    99    1
    26    99   104   am
    27    88    87    1
    28    88    89    1
    29   106   105    1
    30    89    90    2
    31    69    68    2
    32   104   105    1
    33   104   110    1
    34    68    67    1
    35   105   108    1
    36   114   113    2
    37   111   112    1
    38   110   109    1
    39    66    67    1
    40   113   112    1
    41    67    70    1
    42   112   115    1
    43   115   116    1
    44   108   109    1
    45    70    71    1
    46    73    71   ar
    47    73    75   ar
    48   116   118   ar
    49   116   117   ar
    50    71    72   ar
    51    75    74   ar
    52    72    74   ar
    53     7     6   ar
    54    45    43   am
    55    44    43    2
    56    43    42    1
    57    42    39    1
    58     8     6   ar
    59     6     5    1
    60   128   126   ar
    61   128   129   ar
    62   126   124   ar
    63    38    39    1
    64     1     2    1
    65    65    64   ar
    66    65    63   ar
    67    39    40    1
    68    64    62   ar
    69    26    24   ar
    70     5     2    1
    71   129   127   ar
    72   124   123    1
    73   124   125   ar
    74   123   120    1
    75    63    61   ar
    76     2     3    1
    77    24    25   ar
    78    24    23    1
    79    37    35    1
    80   127   125   ar
    81    62    61   ar
    82   122   121    2
    83    55    53   ar
    84    55    54   ar
    85    40    46   am
    86    40    41    2
    87    53    51   ar
    88    61    60    1
    89    23    20    1
    90    18    16   ar
    91    18    17   ar
    92   121   120    1
    93    36    35    1
    94   120   119    1
    95    35    34    2
    96    46    47    1
    97     4     3    2
    98    19    20    1
    99    16    14   ar
   100    54    52   ar
   101    60    57    1
   102    20    21    1
   103    51    52   ar
   104    51    50    1
   105    17    15   ar
   106    34    33    1
   107    47    50    1
   108    47    48    1
   109    14    15   ar
   110    14    13    1
   111    33    32    1
   112    22    21    2
   113    57    56    1
   114    57    58    1
   115    48    49    2
   116    59    58    2
   117    13    10    1
   118    32    31    1
   119     9    10    1
   120    10    11    1
   121    31    28    1
   122    11    12    2
   123    28    27    1
   124    28    29    1
   125    29    30    2
