@<TRIPOS>MOLECULE
tmp/4j6rA02.pdb
 94 91 0 0 0
SMALL
GASTEIGER

@<TRIPOS>ATOM
      1  N         -9.2390   -5.7490   60.6390 N.3    95  GLU95      -0.1231
      2  CA       -10.6380   -5.9910   60.3080 C.3    95  GLU95       0.1684
      3  C        -11.1290   -4.8860   59.3700 C.2    95  GLU95       0.2434
      4  O        -11.2370   -3.7250   59.7680 O.2    95  GLU95      -0.2733
      5  CB       -11.4910   -6.0270   61.5760 C.3    95  GLU95       0.0402
      6  CG       -12.9120   -6.5310   61.3590 C.3    95  GLU95       0.1161
      7  CD       -13.6450   -6.7850   62.6640 C.2    95  GLU95       0.3649
      8  OE1      -12.9970   -6.7350   63.7300 O.co2  95  GLU95      -0.2457
      9  OE2      -14.8670   -7.0380   62.6280 O.co2  95  GLU95      -0.2457
     10  N        -11.4450   -5.2490   58.1240 N.am   96  PRO96      -0.2729
     11  CA       -11.7600   -4.2450   57.0990 C.3    96  PRO96       0.1401
     12  C        -12.8960   -3.2900   57.4680 C.2    96  PRO96       0.2269
     13  O        -13.8800   -3.6730   58.1060 O.2    96  PRO96      -0.2865
     14  CB       -12.1730   -5.0980   55.8940 C.3    96  PRO96       0.0296
     15  CG       -11.4590   -6.3950   56.0880 C.3    96  PRO96       0.0237
     16  CD       -11.4530   -6.6170   57.5810 C.3    96  PRO96       0.0939
     17  N        -15.6410   -2.5580   51.6440 N.3   136  LYS136     -0.1245
     18  CA       -14.6530   -3.2290   52.4810 C.3   136  LYS136      0.1561
     19  C        -13.6370   -3.9640   51.6120 C.2   136  LYS136      0.2260
     20  O        -14.0050   -4.8100   50.7960 O.2   136  LYS136     -0.2867
     21  CB       -15.3390   -4.1850   53.4550 C.3   136  LYS136      0.0271
     22  CG       -16.2130   -3.4690   54.4790 C.3   136  LYS136      0.0035
     23  CD       -16.6980   -4.3970   55.5810 C.3   136  LYS136      0.0206
     24  CE       -17.5950   -5.4930   55.0360 C.3   136  LYS136      0.1093
     25  NZ       -18.7750   -4.9700   54.2780 N.3   136  LYS136     -0.1314
     26  N        -11.9080   -6.5740   51.3340 N.3   138  VAL138     -0.1245
     27  CA       -11.7020   -7.9530   51.7690 C.3   138  VAL138      0.1561
     28  C        -10.8590   -8.7680   50.7870 C.2   138  VAL138      0.2260
     29  O        -11.2370   -8.9680   49.6250 O.2   138  VAL138     -0.2867
     30  CB       -13.0470   -8.6730   51.9970 C.3   138  VAL138      0.0252
     31  CG1      -12.8220  -10.0360   52.6460 C.3   138  VAL138      0.0019
     32  CG2      -13.9640   -7.8320   52.8580 C.3   138  VAL138      0.0019
     33  N        -16.4720  -12.3630   50.3440 N.3   145  LEU145     -0.1231
     34  CA       -17.0110  -12.2400   51.6810 C.3   145  LEU145      0.1693
     35  C        -17.3920  -10.8030   51.9990 C.2   145  LEU145      0.2592
     36  O        -16.7120   -9.8670   51.5820 O.2   145  LEU145     -0.2718
     37  CB       -15.9740  -12.7110   52.6970 C.3   145  LEU145      0.0284
     38  CG       -15.4540  -14.1420   52.5360 C.3   145  LEU145      0.0019
     39  CD1      -14.4220  -14.4520   53.6090 C.3   145  LEU145      0.0001
     40  CD2      -16.6050  -15.1300   52.6040 C.3   145  LEU145      0.0001
     41  N        -18.4790  -10.6400   52.7440 N.am  146  ASN146     -0.1974
     42  CA       -18.8920   -9.3340   53.2470 C.3   146  ASN146      0.1688
     43  C        -19.0400   -8.3030   52.1280 C.2   146  ASN146      0.2292
     44  O        -18.8610   -7.1050   52.3550 O.2   146  ASN146     -0.2864
     45  CB       -17.8880   -8.8090   54.2870 C.3   146  ASN146      0.1181
     46  CG       -17.8620   -9.6380   55.5730 C.2   146  ASN146      0.2629
     47  OD1      -18.7350  -10.4770   55.8080 O.2   146  ASN146     -0.2716
     48  ND2      -16.8440   -9.3890   56.4120 N.am  146  ASN146     -0.0877
     49  N         -8.1790  -16.5160   53.3390 N.3   233  PHE233     -0.1227
     50  CA        -8.6980  -15.2640   53.8580 C.3   233  PHE233      0.1736
     51  C         -7.9950  -15.0090   55.1760 C.2   233  PHE233      0.2595
     52  O         -7.1590  -15.8030   55.6080 O.2   233  PHE233     -0.2718
     53  CB       -10.2100  -15.3570   54.0750 C.3   233  PHE233      0.0547
     54  CG       -10.6210  -16.4330   55.0510 C.ar  233  PHE233     -0.0202
     55  CD1      -10.7810  -17.7430   54.6280 C.ar  233  PHE233     -0.0042
     56  CD2      -10.8490  -16.1340   56.3800 C.ar  233  PHE233     -0.0042
     57  CE1      -11.1590  -18.7320   55.5150 C.ar  233  PHE233     -0.0003
     58  CE2      -11.2280  -17.1210   57.2770 C.ar  233  PHE233     -0.0003
     59  CZ       -11.3830  -18.4200   56.8390 C.ar  233  PHE233     -0.0000
     60  N         -8.3170  -13.9040   55.8290 N.am  234  ASN234     -0.1960
     61  CA        -7.7150  -13.6420   57.1250 C.3   234  ASN234      0.1819
     62  C         -8.7620  -13.3690   58.1900 C.2   234  ASN234      0.2621
     63  O         -9.8390  -12.8380   57.9130 O.2   234  ASN234     -0.2715
     64  CB        -6.7160  -12.4870   57.0450 C.3   234  ASN234      0.1195
     65  CG        -7.3810  -11.1650   56.7400 C.2   234  ASN234      0.2630
     66  OD1       -7.8980  -10.4960   57.6370 O.2   234  ASN234     -0.2716
     67  ND2       -7.3640  -10.7740   55.4730 N.am  234  ASN234     -0.0877
     68  N         -8.4320  -13.7630   59.4140 N.am  235  CYS235     -0.1968
     69  CA        -9.2910  -13.5610   60.5680 C.3   235  CYS235      0.1712
     70  C         -8.3900  -13.2700   61.7540 C.2   235  CYS235      0.2296
     71  O         -7.4600  -14.0270   62.0210 O.2   235  CYS235     -0.2864
     72  CB       -10.1080  -14.8250   60.8370 C.3   235  CYS235      0.0983
     73  SG       -11.2620  -14.7050   62.2300 S.3   235  CYS235     -0.0798
     74  N        -14.1630  -15.9710   63.6810 N.3   296  CYS296     -0.1221
     75  CA       -14.7460  -14.9360   62.8530 C.3   296  CYS296      0.1808
     76  C        -15.9470  -15.4970   62.1150 C.2   296  CYS296      0.2601
     77  O        -16.0550  -16.7030   61.9030 O.2   296  CYS296     -0.2717
     78  CB       -13.7170  -14.3450   61.8880 C.3   296  CYS296      0.0970
     79  SG       -12.6750  -15.5600   61.0270 S.3   296  CYS296     -0.0800
     80  N        -16.8630  -14.6090   61.7610 N.am  297  GLU297     -0.1965
     81  CA       -18.0680  -14.9860   61.0490 C.3   297  GLU297      0.1733
     82  C        -18.2870  -13.9890   59.9220 C.2   297  GLU297      0.2617
     83  O        -18.2910  -12.7770   60.1460 O.2   297  GLU297     -0.2715
     84  CB       -19.2550  -14.9830   62.0090 C.3   297  GLU297      0.0429
     85  CG       -20.5830  -15.3570   61.3810 C.3   297  GLU297      0.1163
     86  CD       -21.7140  -15.3600   62.3970 C.2   297  GLU297      0.3649
     87  OE1      -21.4220  -15.2540   63.6060 O.co2 297  GLU297     -0.2457
     88  OE2      -22.8900  -15.4660   61.9870 O.co2 297  GLU297     -0.2457
     89  N        -18.4720  -14.5030   58.7130 N.am  298  SER298     -0.1950
     90  CA       -18.6220  -13.6560   57.5350 C.3   298  SER298      0.1924
     91  C        -19.8310  -14.1080   56.7330 C.2   298  SER298      0.2314
     92  O        -20.3770  -15.1830   56.9750 O.2   298  SER298     -0.2863
     93  CB       -17.3770  -13.7420   56.6580 C.3   298  SER298      0.2116
     94  OG       -16.1960  -13.5210   57.4080 O.3   298  SER298     -0.2180
@<TRIPOS>BOND
     1    29    28    2
     2    33    34    1
     3    28    27    1
     4    20    19    2
     5    26    27    1
     6    36    35    2
     7    19    18    1
     8    17    18    1
     9    34    35    1
    10    34    37    1
    11    27    30    1
    12    30    31    1
    13    30    32    1
    14    35    41   am
    15    43    44    2
    16    43    42    1
    17    18    21    1
    18    38    40    1
    19    38    37    1
    20    38    39    1
    21    41    42    1
    22    42    45    1
    23    49    50    1
    24    21    22    1
    25    50    53    1
    26    50    51    1
    27    53    54    1
    28    25    24    1
    29    45    46    1
    30    22    23    1
    31    55    54   ar
    32    55    57   ar
    33    24    23    1
    34    54    56   ar
    35    51    52    2
    36    51    60   am
    37    67    65   am
    38    57    59   ar
    39    46    47    2
    40    46    48   am
    41    60    61    1
    42    14    15    1
    43    14    11    1
    44    15    16    1
    45    56    58   ar
    46    93    94    1
    47    93    90    1
    48    91    92    2
    49    91    90    1
    50    65    64    1
    51    65    66    2
    52    59    58   ar
    53    64    61    1
    54    11    12    1
    55    11    10    1
    56    61    62    1
    57    12    13    2
    58    90    89    1
    59    16    10    1
    60    63    62    2
    61    10     3   am
    62    62    68   am
    63    89    82   am
    64     3     4    2
    65     3     2    1
    66    68    69    1
    67    82    83    2
    68    82    81    1
    69     2     1    1
    70     2     5    1
    71    69    72    1
    72    69    70    1
    73    72    73    1
    74    79    78    1
    75    79    73    1
    76    81    80    1
    77    81    84    1
    78     6     5    1
    79     6     7    1
    80    85    84    1
    81    85    86    1
    82    70    71    2
    83    80    76   am
    84    78    75    1
    85    77    76    2
    86    88    86   ar
    87    76    75    1
    88    86    87   ar
    89     9     7   ar
    90     7     8   ar
    91    75    74    1
