@<TRIPOS>MOLECULE
tmp/4j6sB00.pdb
 224 213 0 0 0
SMALL
GASTEIGER

@<TRIPOS>ATOM
      1  N         -6.7720    2.8510  -26.8540 N.3    19  GLU19      -0.1245
      2  CA        -5.6170    2.0010  -26.6100 C.3    19  GLU19       0.1567
      3  C         -4.4910    2.7270  -25.8560 C.2    19  GLU19       0.2260
      4  O         -3.8490    2.1670  -24.9970 O.2    19  GLU19      -0.2867
      5  CB        -5.0670    1.4740  -27.9240 C.3    19  GLU19       0.0388
      6  CG        -4.0210    0.3860  -27.7230 C.3    19  GLU19       0.1160
      7  CD        -3.2300    0.0440  -28.9780 C.2    19  GLU19       0.3649
      8  OE1       -3.3960    0.7060  -30.0400 O.co2  19  GLU19      -0.2457
      9  OE2       -2.4220   -0.9030  -28.8910 O.co2  19  GLU19      -0.2457
     10  N         -9.4890   -0.4190  -22.5230 N.3    24  TYR24      -0.1241
     11  CA        -9.7260   -1.5050  -23.4580 C.3    24  TYR24       0.1605
     12  C        -11.1810   -1.8160  -23.6860 C.2    24  TYR24       0.2264
     13  O        -11.5440   -2.2470  -24.7780 O.2    24  TYR24      -0.2867
     14  CB        -8.9450   -2.7230  -23.0330 C.3    24  TYR24       0.0534
     15  CG        -7.4650   -2.3950  -22.9600 C.ar   24  TYR24      -0.0201
     16  CD1       -6.6930   -2.2700  -24.1160 C.ar   24  TYR24      -0.0009
     17  CD2       -6.8470   -2.1730  -21.7460 C.ar   24  TYR24      -0.0009
     18  CE1       -5.3400   -1.9580  -24.0580 C.ar   24  TYR24       0.0417
     19  CE2       -5.4900   -1.8620  -21.6660 C.ar   24  TYR24       0.0417
     20  CZ        -4.7390   -1.7520  -22.8240 C.ar   24  TYR24       0.1957
     21  OH        -3.4100   -1.4180  -22.7370 O.3    24  TYR24      -0.2866
     22  N         -6.1210   -6.8310  -29.8770 N.3    51  VAL51      -0.1245
     23  CA        -5.5120   -6.2600  -28.6660 C.3    51  VAL51       0.1561
     24  C         -6.5730   -5.8450  -27.6400 C.2    51  VAL51       0.2260
     25  O         -6.4040   -6.0840  -26.4360 O.2    51  VAL51      -0.2867
     26  CB        -4.5860   -5.0620  -29.0060 C.3    51  VAL51       0.0252
     27  CG1       -4.1840   -4.2910  -27.7550 C.3    51  VAL51       0.0019
     28  CG2       -3.3540   -5.5530  -29.7180 C.3    51  VAL51       0.0019
     29  N         -8.1620   -8.9960  -26.1450 N.3    54  LYS54      -0.1231
     30  CA        -7.1740   -9.7700  -25.4020 C.3    54  LYS54       0.1693
     31  C         -6.9790   -9.1780  -24.0210 C.2    54  LYS54       0.2592
     32  O         -6.9820   -9.9060  -23.0400 O.2    54  LYS54      -0.2718
     33  CB        -5.8480   -9.8090  -26.1580 C.3    54  LYS54       0.0285
     34  CG        -4.7180  -10.5770  -25.4780 C.3    54  LYS54       0.0035
     35  CD        -5.0270  -12.0710  -25.3210 C.3    54  LYS54       0.0206
     36  CE        -4.1500  -12.7120  -24.2540 C.3    54  LYS54       0.1093
     37  NZ        -2.7150  -12.5500  -24.6000 N.3    54  LYS54      -0.1314
     38  N         -6.8380   -7.8520  -23.9630 N.am   55  ASN55      -0.1974
     39  CA        -6.7560   -7.0940  -22.6980 C.3    55  ASN55       0.1688
     40  C         -8.0200   -7.1500  -21.8550 C.2    55  ASN55       0.2292
     41  O         -7.9410   -7.2420  -20.6480 O.2    55  ASN55      -0.2864
     42  CB        -6.4390   -5.6140  -22.9530 C.3    55  ASN55       0.1181
     43  CG        -4.9750   -5.3730  -23.2790 C.2    55  ASN55       0.2629
     44  OD1       -4.1630   -5.1140  -22.3900 O.2    55  ASN55      -0.2716
     45  ND2       -4.6280   -5.4660  -24.5590 N.am   55  ASN55      -0.0877
     46  N         -9.2580  -13.0940  -16.7910 N.3    61  ARG61      -0.1245
     47  CA        -8.4720  -14.2970  -16.5550 C.3    61  ARG61       0.1563
     48  C         -7.5970  -14.0850  -15.3330 C.2    61  ARG61       0.2260
     49  O         -7.5550  -14.9240  -14.4480 O.2    61  ARG61      -0.2867
     50  CB        -7.5850  -14.6280  -17.7550 C.3    61  ARG61       0.0307
     51  CG        -8.3430  -15.2120  -18.9170 C.3    61  ARG61       0.0489
     52  CD        -7.5000  -15.1730  -20.1710 C.3    61  ARG61       0.2205
     53  NE        -6.4360  -16.1720  -20.1560 N.pl3  61  ARG61      -0.0865
     54  CZ        -5.3430  -16.1260  -20.9150 C.cat  61  ARG61       0.5346
     55  NH1       -5.1210  -15.1120  -21.7520 N.pl3  61  ARG61       0.1354
     56  NH2       -4.4590  -17.0990  -20.8220 N.pl3  61  ARG61       0.1354
     57  N         -7.9160  -16.1950  -11.8090 N.3    65  ARG65      -0.1245
     58  CA        -6.8580  -17.0780  -11.3090 C.3    65  ARG65       0.1563
     59  C         -6.5820  -16.7990   -9.8570 C.2    65  ARG65       0.2260
     60  O         -6.5120  -17.7320   -9.0530 O.2    65  ARG65      -0.2867
     61  CB        -5.5880  -16.9960  -12.1690 C.3    65  ARG65       0.0307
     62  CG        -5.7880  -17.6870  -13.5140 C.3    65  ARG65       0.0489
     63  CD        -4.5010  -18.0540  -14.2250 C.3    65  ARG65       0.2205
     64  NE        -3.8270  -16.8820  -14.7720 N.pl3  65  ARG65      -0.0865
     65  CZ        -3.9690  -16.4110  -16.0150 C.cat  65  ARG65       0.5346
     66  NH1       -3.2870  -15.3280  -16.3800 N.pl3  65  ARG65       0.1354
     67  NH2       -4.7830  -16.9970  -16.8950 N.pl3  65  ARG65       0.1354
     68  N         -7.0330  -18.8560  -35.3440 N.3   129  LYS129     -0.1245
     69  CA        -6.2090  -18.8960  -34.1330 C.3   129  LYS129      0.1561
     70  C         -6.9210  -18.1570  -32.9810 C.2   129  LYS129      0.2260
     71  O         -6.9650  -18.6220  -31.8440 O.2   129  LYS129     -0.2867
     72  CB        -4.8430  -18.2420  -34.4140 C.3   129  LYS129      0.0271
     73  CG        -3.8880  -18.2710  -33.2460 C.3   129  LYS129      0.0035
     74  CD        -2.6580  -17.4370  -33.5500 C.3   129  LYS129      0.0206
     75  CE        -2.8950  -15.9930  -33.1750 C.3   129  LYS129      0.1093
     76  NZ        -2.7320  -15.8470  -31.7050 N.3   129  LYS129     -0.1314
     77  N        -10.3050  -21.6120  -25.9340 N.3   136  ARG136     -0.1231
     78  CA        -9.3480  -22.0390  -24.9170 C.3   136  ARG136      0.1694
     79  C         -9.5900  -21.2960  -23.5950 C.2   136  ARG136      0.2592
     80  O         -9.6080  -21.9130  -22.5320 O.2   136  ARG136     -0.2718
     81  CB        -7.8950  -21.8290  -25.3770 C.3   136  ARG136      0.0321
     82  CG        -6.8970  -22.3070  -24.3420 C.3   136  ARG136      0.0489
     83  CD        -5.4560  -22.2960  -24.8160 C.3   136  ARG136      0.2205
     84  NE        -5.0740  -21.1500  -25.6590 N.pl3 136  ARG136     -0.0865
     85  CZ        -4.2970  -20.1290  -25.2770 C.cat 136  ARG136      0.5346
     86  NH1       -3.8210  -20.0600  -24.0440 N.pl3 136  ARG136      0.1354
     87  NH2       -4.0010  -19.1650  -26.1370 N.pl3 136  ARG136      0.1354
     88  N         -9.7760  -19.9780  -23.6620 N.am  137  TYR137     -0.1976
     89  CA       -10.0100  -19.1940  -22.4580 C.3   137  TYR137      0.1639
     90  C        -11.2740  -19.6520  -21.7150 C.2   137  TYR137      0.2290
     91  O        -11.2920  -19.6610  -20.4800 O.2   137  TYR137     -0.2864
     92  CB       -10.0770  -17.6990  -22.7810 C.3   137  TYR137      0.0560
     93  CG        -8.8460  -17.1590  -23.4750 C.ar  137  TYR137     -0.0198
     94  CD1       -7.5820  -17.6370  -23.1870 C.ar  137  TYR137     -0.0009
     95  CD2       -8.9510  -16.1480  -24.4120 C.ar  137  TYR137     -0.0009
     96  CE1       -6.4590  -17.1340  -23.8260 C.ar  137  TYR137      0.0417
     97  CE2       -7.8330  -15.6390  -25.0610 C.ar  137  TYR137      0.0417
     98  CZ        -6.5880  -16.1380  -24.7640 C.ar  137  TYR137      0.1957
     99  OH        -5.4700  -15.6360  -25.4050 O.3   137  TYR137     -0.2866
    100  N          5.2100  -14.5840  -38.4920 N.3   174  PRO174     -0.2102
    101  CA         4.8200  -14.3960  -37.0840 C.3   174  PRO174      0.1504
    102  C          3.4830  -15.0360  -36.6820 C.2   174  PRO174      0.2575
    103  O          3.3420  -15.5510  -35.5690 O.2   174  PRO174     -0.2718
    104  CB         4.7340  -12.8740  -36.9570 C.3   174  PRO174      0.0282
    105  CG         5.7450  -12.3760  -37.9240 C.3   174  PRO174      0.0208
    106  CD         5.7390  -13.3410  -39.0790 C.3   174  PRO174      0.0893
    107  N          2.5170  -14.9870  -37.5850 N.am  175  ILE175     -0.1980
    108  CA         1.2140  -15.5650  -37.3440 C.3   175  ILE175      0.1595
    109  C          1.3010  -17.0930  -37.2640 C.2   175  ILE175      0.2287
    110  O          0.7190  -17.6990  -36.3740 O.2   175  ILE175     -0.2864
    111  CB         0.2020  -15.1060  -38.4150 C.3   175  ILE175      0.0276
    112  CG1       -0.0230  -13.5860  -38.3120 C.3   175  ILE175      0.0022
    113  CG2       -1.1270  -15.8350  -38.2660 C.3   175  ILE175      0.0022
    114  CD1       -0.7650  -12.9710  -39.4930 C.3   175  ILE175      0.0001
    115  N          3.0210  -17.8250  -34.0030 N.3   178  GLY178     -0.1225
    116  CA         2.1150  -17.5180  -32.8970 C.3   178  GLY178      0.1811
    117  C          1.0740  -18.6070  -32.7040 C.2   178  GLY178      0.2280
    118  O          0.7810  -19.0120  -31.5680 O.2   178  GLY178     -0.2866
    119  N          2.6840  -21.4980  -31.2390 N.3   181  LEU181     -0.1231
    120  CA         2.9400  -21.1820  -29.8430 C.3   181  LEU181      0.1693
    121  C          1.6950  -21.4330  -29.0200 C.2   181  LEU181      0.2592
    122  O          1.7480  -22.1460  -28.0290 O.2   181  LEU181     -0.2718
    123  CB         3.4180  -19.7330  -29.6770 C.3   181  LEU181      0.0284
    124  CG         3.5580  -19.2510  -28.2290 C.3   181  LEU181      0.0019
    125  CD1        4.4110  -20.1940  -27.3950 C.3   181  LEU181      0.0001
    126  CD2        4.1590  -17.8600  -28.2010 C.3   181  LEU181      0.0001
    127  N          0.5740  -20.8610  -29.4420 N.am  182  ASN182     -0.1974
    128  CA        -0.6620  -21.0020  -28.6840 C.3   182  ASN182      0.1688
    129  C         -1.2560  -22.4040  -28.7550 C.2   182  ASN182      0.2292
    130  O         -1.7680  -22.9060  -27.7550 O.2   182  ASN182     -0.2864
    131  CB        -1.6880  -19.9690  -29.1240 C.3   182  ASN182      0.1181
    132  CG        -1.3140  -18.5660  -28.6950 C.2   182  ASN182      0.2629
    133  OD1       -0.2370  -18.3200  -28.1540 O.2   182  ASN182     -0.2716
    134  ND2       -2.2080  -17.6350  -28.9360 N.am  182  ASN182     -0.0877
    135  N          0.5390  -24.5500  -26.3940 N.3   185  VAL185     -0.1245
    136  CA         0.0530  -24.2450  -25.0440 C.3   185  VAL185      0.1561
    137  C         -1.3030  -24.8850  -24.7780 C.2   185  VAL185      0.2260
    138  O         -1.5320  -25.4060  -23.6880 O.2   185  VAL185     -0.2867
    139  CB        -0.0220  -22.7160  -24.7850 C.3   185  VAL185      0.0252
    140  CG1       -0.7920  -22.4040  -23.4980 C.3   185  VAL185      0.0019
    141  CG2        1.3850  -22.1270  -24.7100 C.3   185  VAL185      0.0019
    142  N         -0.5310  -28.5130  -23.9380 N.3   188  TYR188     -0.1227
    143  CA         0.0190  -28.6940  -22.6010 C.3   188  TYR188      0.1736
    144  C         -0.9830  -28.3850  -21.4780 C.2   188  TYR188      0.2595
    145  O         -1.1200  -29.1860  -20.5570 O.2   188  TYR188     -0.2718
    146  CB         1.2880  -27.8600  -22.4060 C.3   188  TYR188      0.0548
    147  CG         2.0830  -28.2450  -21.1690 C.ar  188  TYR188     -0.0200
    148  CD1        1.8050  -27.6680  -19.9370 C.ar  188  TYR188     -0.0009
    149  CD2        3.1050  -29.1890  -21.2350 C.ar  188  TYR188     -0.0009
    150  CE1        2.5200  -28.0220  -18.8070 C.ar  188  TYR188      0.0417
    151  CE2        3.8250  -29.5500  -20.1150 C.ar  188  TYR188      0.0417
    152  CZ         3.5310  -28.9670  -18.9070 C.ar  188  TYR188      0.1957
    153  OH         4.2540  -29.3350  -17.7980 O.3   188  TYR188     -0.2866
    154  N         -1.6780  -27.2460  -21.5420 N.am  189  GLU189     -0.1979
    155  CA        -2.4810  -26.7750  -20.4040 C.3   189  GLU189      0.1602
    156  C         -3.9000  -27.3110  -20.3580 C.2   189  GLU189      0.2287
    157  O         -4.4420  -27.4950  -19.2750 O.2   189  GLU189     -0.2864
    158  CB        -2.5130  -25.2450  -20.3580 C.3   189  GLU189      0.0415
    159  CG        -1.1470  -24.6220  -20.0890 C.3   189  GLU189      0.1163
    160  CD        -1.2050  -23.1500  -19.7080 C.2   189  GLU189      0.3649
    161  OE1       -2.0300  -22.3990  -20.2760 O.co2 189  GLU189     -0.2457
    162  OE2       -0.4050  -22.7410  -18.8430 O.co2 189  GLU189     -0.2457
    163  N         11.4160  -12.9940  -31.8250 N.3   225  LEU225     -0.1231
    164  CA        10.6900  -12.6550  -30.6110 C.3   225  LEU225      0.1693
    165  C          9.7790  -13.8220  -30.2080 C.2   225  LEU225      0.2591
    166  O          9.7910  -14.2750  -29.0600 O.2   225  LEU225     -0.2718
    167  CB         9.8510  -11.3990  -30.8560 C.3   225  LEU225      0.0284
    168  CG         9.7740  -10.4370  -29.6820 C.3   225  LEU225      0.0019
    169  CD1       10.9850   -9.5120  -29.7020 C.3   225  LEU225      0.0001
    170  CD2        8.4620   -9.6620  -29.7300 C.3   225  LEU225      0.0001
    171  N          9.0050  -14.3080  -31.1780 N.am  226  ILE226     -0.1980
    172  CA         8.0600  -15.3940  -30.9570 C.3   226  ILE226      0.1595
    173  C          8.8070  -16.7150  -30.7900 C.2   226  ILE226      0.2287
    174  O          8.4400  -17.5190  -29.9370 O.2   226  ILE226     -0.2864
    175  CB         7.0210  -15.4710  -32.0960 C.3   226  ILE226      0.0276
    176  CG1        6.2100  -14.1710  -32.1250 C.3   226  ILE226      0.0022
    177  CG2        6.0990  -16.6780  -31.9170 C.3   226  ILE226      0.0022
    178  CD1        5.2480  -14.0370  -33.2850 C.3   226  ILE226      0.0001
    179  N          9.9280  -17.4520  -27.3240 N.3   229  LEU229     -0.1245
    180  CA         8.8810  -17.9490  -26.4640 C.3   229  LEU229      0.1561
    181  C          8.6700  -19.4500  -26.6720 C.2   229  LEU229      0.2260
    182  O          8.4930  -20.2120  -25.6970 O.2   229  LEU229     -0.2867
    183  CB         7.5920  -17.1600  -26.7100 C.3   229  LEU229      0.0270
    184  CG         7.6790  -15.6700  -26.3570 C.3   229  LEU229      0.0019
    185  CD1        6.4440  -14.9450  -26.8720 C.3   229  LEU229      0.0001
    186  CD2        7.8520  -15.4660  -24.8550 C.3   229  LEU229      0.0001
    187  N         11.5230  -21.0040  -24.8600 N.3   232  ASP232     -0.1225
    188  CA        11.3580  -20.8710  -23.4200 C.3   232  ASP232      0.1805
    189  C         10.3820  -21.9180  -22.9090 C.2   232  ASP232      0.2597
    190  O         10.6710  -22.6230  -21.9450 O.2   232  ASP232     -0.2718
    191  CB        10.8600  -19.4780  -23.0620 C.3   232  ASP232      0.1424
    192  CG        11.8870  -18.4110  -23.3330 C.2   232  ASP232      0.3668
    193  OD1       13.0680  -18.7450  -23.5780 O.co2 232  ASP232     -0.2456
    194  OD2       11.5060  -17.2290  -23.2980 O.co2 232  ASP232     -0.2456
    195  N          9.2330  -22.0260  -23.5670 N.am  233  ASN233     -0.1974
    196  CA         8.2610  -23.0360  -23.1990 C.3   233  ASN233      0.1688
    197  C          8.8610  -24.4380  -23.2460 C.2   233  ASN233      0.2292
    198  O          8.7730  -25.1830  -22.2770 O.2   233  ASN233     -0.2864
    199  CB         7.0410  -22.9600  -24.1120 C.3   233  ASN233      0.1181
    200  CG         6.1250  -21.7900  -23.7830 C.2   233  ASN233      0.2629
    201  OD1        6.3170  -21.0780  -22.8050 O.2   233  ASN233     -0.2716
    202  ND2        5.1040  -21.6050  -24.5950 N.am  233  ASN233     -0.0877
    203  N         11.1920  -25.1300  -20.4500 N.3   236  LEU236     -0.1231
    204  CA        10.3930  -25.3160  -19.2440 C.3   236  LEU236      0.1693
    205  C          9.6950  -26.6790  -19.1950 C.2   236  LEU236      0.2592
    206  O          9.6440  -27.3250  -18.1320 O.2   236  LEU236     -0.2718
    207  CB         9.3450  -24.2040  -19.1150 C.3   236  LEU236      0.0284
    208  CG         8.3880  -24.3260  -17.9130 C.3   236  LEU236      0.0019
    209  CD1        9.1570  -24.3100  -16.5960 C.3   236  LEU236      0.0001
    210  CD2        7.3430  -23.2230  -17.9160 C.3   236  LEU236      0.0001
    211  N          9.1590  -27.1020  -20.3420 N.am  237  TRP237     -0.1976
    212  CA         8.3940  -28.3620  -20.4430 C.3   237  TRP237      0.1640
    213  C          9.2900  -29.6030  -20.4030 C.2   237  TRP237      0.2290
    214  O          8.8510  -30.6700  -19.9920 O.2   237  TRP237     -0.2864
    215  CB         7.5190  -28.3940  -21.7100 C.3   237  TRP237      0.0576
    216  CG         6.4050  -27.3720  -21.7360 C.ar  237  TRP237      0.0006
    217  CD1        5.8430  -26.7580  -20.6680 C.ar  237  TRP237      0.0946
    218  CD2        5.7190  -26.8600  -22.8920 C.ar  237  TRP237      0.0152
    219  NE1        4.8640  -25.8900  -21.0760 N.ar  237  TRP237     -0.2442
    220  CE2        4.7690  -25.9340  -22.4380 C.ar  237  TRP237      0.0810
    221  CE3        5.8170  -27.0970  -24.2680 C.ar  237  TRP237      0.0012
    222  CZ2        3.9230  -25.2390  -23.3050 C.ar  237  TRP237      0.0191
    223  CZ3        4.9640  -26.3990  -25.1370 C.ar  237  TRP237      0.0001
    224  CH2        4.0380  -25.4850  -24.6480 C.ar  237  TRP237      0.0015
@<TRIPOS>BOND
     1   114   112    1
     2   106   100    1
     3   106   105    1
     4   100   101    1
     5   111   112    1
     6   111   113    1
     7   111   108    1
     8   105   104    1
     9   107   108    1
    10   107   102   am
    11   108   109    1
    12   109   110    2
    13   101   104    1
    14   101   102    1
    15   102   103    2
    16    68    69    1
    17    72    69    1
    18    72    73    1
    19    69    70    1
    20   115   116    1
    21    74    73    1
    22    74    75    1
    23   178   176    1
    24    75    76    1
    25    70    71    2
    26   116   117    1
    27   117   118    2
    28   176   175    1
    29   175   177    1
    30   175   172    1
    31   163   164    1
    32   119   120    1
    33   171   172    1
    34   171   165   am
    35   172   173    1
    36   167   164    1
    37   167   168    1
    38   173   174    2
    39   164   165    1
    40   165   166    2
    41     8     7   ar
    42    22    23    1
    43   120   123    1
    44   120   121    1
    45   170   168    1
    46    28    26    1
    47   169   168    1
    48   123   124    1
    49   127   121   am
    50   127   128    1
    51   131   132    1
    52   131   128    1
    53   121   122    2
    54    26    23    1
    55    26    27    1
    56     7     9   ar
    57     7     6    1
    58   134   132   am
    59   129   128    1
    60   129   130    2
    61   132   133    2
    62    23    24    1
    63   124   126    1
    64   124   125    1
    65     5     6    1
    66     5     2    1
    67    24    25    2
    68   179   180    1
    69   185   184    1
    70     1     2    1
    71   183   180    1
    72   183   184    1
    73   181   180    1
    74   181   182    2
    75     2     3    1
    76   135   136    1
    77   184   186    1
    78    33    34    1
    79    33    30    1
    80    29    30    1
    81    87    85    1
    82    77    78    1
    83     3     4    2
    84    84    85    2
    85    84    83    1
    86    34    35    1
    87    99    98    1
    88    30    31    1
    89    81    78    1
    90    81    82    1
    91    35    36    1
    92    85    86    1
    93   223   224   ar
    94   223   221   ar
    95    97    98   ar
    96    97    95   ar
    97   136   139    1
    98   136   137    1
    99    78    79    1
   100   187   188    1
   101    83    82    1
   102   139   141    1
   103   139   140    1
   104   137   138    2
   105    13    12    2
   106    98    96   ar
   107   224   222   ar
   108    37    36    1
   109   202   200   am
   110    45    43   am
   111    95    93   ar
   112   221   218   ar
   113    16    18   ar
   114    16    15   ar
   115   199   200    1
   116   199   196    1
   117    18    20   ar
   118    31    38   am
   119    31    32    2
   120    38    39    1
   121   142   143    1
   122    96    94   ar
   123   200   201    2
   124    12    11    1
   125    88    79   am
   126    88    89    1
   127    79    80    2
   128   193   192   ar
   129   195   196    1
   130   195   189   am
   131    93    94   ar
   132    93    92    1
   133    11    14    1
   134    11    10    1
   135   188   191    1
   136   188   189    1
   137   192   194   ar
   138   192   191    1
   139   222   220   ar
   140    43    42    1
   141    43    44    2
   142   197   196    1
   143   197   198    2
   144    14    15    1
   145    15    17   ar
   146    42    39    1
   147   189   190    2
   148   218   220   ar
   149   218   216   ar
   150    20    21    1
   151    20    19   ar
   152    92    89    1
   153    39    40    1
   154   143   146    1
   155   143   144    1
   156    89    90    1
   157   220   219   ar
   158   146   147    1
   159    40    41    2
   160    55    54    1
   161    17    19   ar
   162   216   215    1
   163   216   217   ar
   164    90    91    2
   165   215   212    1
   166   154   144   am
   167   154   155    1
   168   144   145    2
   169   149   147   ar
   170   149   151   ar
   171   147   148   ar
   172   219   217   ar
   173    54    56    1
   174    54    53    2
   175   203   204    1
   176   212   213    1
   177   212   211    1
   178   155   158    1
   179   155   156    1
   180   213   214    2
   181   158   159    1
   182   156   157    2
   183   211   205   am
   184   161   160   ar
   185    52    53    1
   186    52    51    1
   187   151   152   ar
   188   159   160    1
   189   148   150   ar
   190   160   162   ar
   191   204   205    1
   192   204   207    1
   193   205   206    2
   194   207   208    1
   195    51    50    1
   196   152   150   ar
   197   152   153    1
   198   210   208    1
   199   208   209    1
   200    50    47    1
   201    67    65    1
   202    46    47    1
   203    47    48    1
   204    66    65    1
   205    65    64    2
   206    48    49    2
   207    64    63    1
   208    63    62    1
   209    62    61    1
   210    61    58    1
   211    57    58    1
   212    58    59    1
   213    59    60    2
