@<TRIPOS>MOLECULE
tmp/4j6sA00.pdb
 228 217 0 0 0
SMALL
GASTEIGER

@<TRIPOS>ATOM
      1  N         -7.7410    2.6170    5.1510 N.3    44  ASN44      -0.1240
      2  CA        -6.8020    2.4690    4.0600 C.3    44  ASN44       0.1653
      3  C         -7.4040    1.7460    2.8720 C.2    44  ASN44       0.2266
      4  O         -7.1290    2.1000    1.7200 O.2    44  ASN44      -0.2867
      5  CB        -5.5090    1.8050    4.5320 C.3    44  ASN44       0.1155
      6  CG        -4.6280    2.7680    5.3360 C.2    44  ASN44       0.2627
      7  OD1       -4.2470    3.8410    4.8510 O.2    44  ASN44      -0.2716
      8  ND2       -4.3040    2.3910    6.5620 N.am   44  ASN44      -0.0877
      9  N         -9.3100    4.3300    1.1240 N.3    47  SER47      -0.1202
     10  CA        -8.3810    5.2510    0.5150 C.3    47  SER47       0.2020
     11  C         -7.8010    4.6190   -0.7260 C.2    47  SER47       0.2618
     12  O         -7.7430    5.2730   -1.7770 O.2    47  SER47      -0.2717
     13  CB        -7.2460    5.6330    1.4850 C.3    47  SER47       0.2103
     14  OG        -6.1780    6.3830    0.8590 O.3    47  SER47      -0.2182
     15  N         -7.3940    3.3580   -0.5970 N.am   48  VAL48      -0.1979
     16  CA        -6.7290    2.6410   -1.6770 C.3    48  VAL48       0.1595
     17  C         -7.6510    2.3570   -2.8740 C.2    48  VAL48       0.2287
     18  O         -7.2670    2.5170   -4.0300 O.2    48  VAL48      -0.2864
     19  CB        -6.1050    1.3190   -1.1700 C.3    48  VAL48       0.0276
     20  CG1       -5.6450    0.4410   -2.3360 C.3    48  VAL48       0.0022
     21  CG2       -4.9260    1.6190   -0.2630 C.3    48  VAL48       0.0022
     22  N         -8.3810    5.6950   -4.6330 N.3    51  LYS51      -0.1231
     23  CA        -7.1440    6.2520   -5.2080 C.3    51  LYS51       0.1693
     24  C         -6.8250    5.5620   -6.5370 C.2    51  LYS51       0.2592
     25  O         -6.5090    6.2270   -7.5330 O.2    51  LYS51      -0.2718
     26  CB        -5.9780    6.1270   -4.2340 C.3    51  LYS51       0.0285
     27  CG        -4.6490    6.6700   -4.7270 C.3    51  LYS51       0.0035
     28  CD        -4.6670    8.1800   -4.9370 C.3    51  LYS51       0.0206
     29  CE        -3.5170    8.6170   -5.8250 C.3    51  LYS51       0.1093
     30  NZ        -2.2120    8.2270   -5.2190 N.3    51  LYS51      -0.1314
     31  N         -6.9500    4.2360   -6.5490 N.am   52  ASN52      -0.1974
     32  CA        -6.7930    3.4370   -7.7740 C.3    52  ASN52       0.1688
     33  C         -7.8580    3.6860   -8.8230 C.2    52  ASN52       0.2292
     34  O         -7.5740    3.6870  -10.0120 O.2    52  ASN52      -0.2864
     35  CB        -6.7900    1.9380   -7.4770 C.3    52  ASN52       0.1181
     36  CG        -5.4790    1.4540   -6.9140 C.2    52  ASN52       0.2629
     37  OD1       -4.6130    1.0260   -7.6660 O.2    52  ASN52      -0.2716
     38  ND2       -5.3100    1.5420   -5.5840 N.am   52  ASN52      -0.0877
     39  N         -7.0890    9.5670  -14.0630 N.3    58  ARG58      -0.1245
     40  CA        -6.0610   10.6270  -14.1690 C.3    58  ARG58       0.1563
     41  C         -4.9990   10.2540  -15.1890 C.2    58  ARG58       0.2260
     42  O         -4.5910   11.0730  -16.0020 O.2    58  ARG58      -0.2867
     43  CB        -5.3540   10.8750  -12.8470 C.3    58  ARG58       0.0307
     44  CG        -6.2000   11.6240  -11.8390 C.3    58  ARG58       0.0489
     45  CD        -5.6360   11.4830  -10.4440 C.3    58  ARG58       0.2205
     46  NE        -4.4500   12.3020  -10.2660 N.pl3  58  ARG58      -0.0865
     47  CZ        -3.5260   12.0980   -9.3290 C.cat  58  ARG58       0.5346
     48  NH1       -3.6200   11.0850   -8.4740 N.pl3  58  ARG58       0.1354
     49  NH2       -2.5000   12.9190   -9.2330 N.pl3  58  ARG58       0.1354
     50  N         -4.3620   12.2270  -18.7700 N.3    62  ARG62      -0.1245
     51  CA        -3.0890   12.8910  -19.0930 C.3    62  ARG62       0.1563
     52  C         -2.5760   12.4950  -20.4690 C.2    62  ARG62       0.2260
     53  O         -2.1640   13.3440  -21.2610 O.2    62  ARG62      -0.2867
     54  CB        -2.0470   12.6260  -18.0160 C.3    62  ARG62       0.0307
     55  CG        -2.3820   13.3800  -16.7440 C.3    62  ARG62       0.0489
     56  CD        -1.2040   13.5520  -15.8060 C.3    62  ARG62       0.2205
     57  NE        -0.8460   12.3050  -15.1420 N.pl3  62  ARG62      -0.0865
     58  CZ        -1.2720   11.9200  -13.9400 C.cat  62  ARG62       0.5346
     59  NH1       -0.8640   10.7540  -13.4590 N.pl3  62  ARG62       0.1354
     60  NH2       -2.1010   12.6700  -13.2180 N.pl3  62  ARG62       0.1354
     61  N         -6.5170   12.5270    8.3680 N.3   123  PHE123     -0.1241
     62  CA        -6.5360   11.6320    7.2260 C.3   123  PHE123      0.1605
     63  C         -7.6270   12.1020    6.2820 C.2   123  PHE123      0.2264
     64  O         -7.3500   12.4610    5.1520 O.2   123  PHE123     -0.2867
     65  CB        -6.8170   10.1920    7.6550 C.3   123  PHE123      0.0534
     66  CG        -6.5860    9.1540    6.5780 C.ar  123  PHE123     -0.0203
     67  CD1       -6.4810    9.4710    5.2430 C.ar  123  PHE123     -0.0042
     68  CD2       -6.4830    7.8340    6.9260 C.ar  123  PHE123     -0.0042
     69  CE1       -6.2610    8.4810    4.2960 C.ar  123  PHE123     -0.0003
     70  CE2       -6.2640    6.8410    5.9890 C.ar  123  PHE123     -0.0003
     71  CZ        -6.1610    7.1580    4.6740 C.ar  123  PHE123     -0.0000
     72  N         -7.1110   15.5470    4.5390 N.3   126  LYS126     -0.1245
     73  CA        -6.0980   15.4010    3.5010 C.3   126  LYS126      0.1561
     74  C         -6.7050   14.7550    2.2640 C.2   126  LYS126      0.2260
     75  O         -6.4950   15.2210    1.1520 O.2   126  LYS126     -0.2867
     76  CB        -4.9420   14.5510    3.9990 C.3   126  LYS126      0.0271
     77  CG        -3.8160   14.3830    3.0000 C.3   126  LYS126      0.0035
     78  CD        -2.8190   13.3650    3.5150 C.3   126  LYS126      0.0206
     79  CE        -3.2300   11.9650    3.1330 C.3   126  LYS126      0.1093
     80  NZ        -2.8410   11.7520    1.7150 N.3   126  LYS126     -0.1314
     81  N         -8.2120   18.4640   -5.3270 N.3   133  ARG133     -0.1231
     82  CA        -7.0440   18.6950   -6.1630 C.3   133  ARG133      0.1694
     83  C         -7.1800   17.9640   -7.4900 C.2   133  ARG133      0.2592
     84  O         -6.9070   18.5450   -8.5360 O.2   133  ARG133     -0.2718
     85  CB        -5.7510   18.2590   -5.4720 C.3   133  ARG133      0.0321
     86  CG        -4.5190   18.5330   -6.3070 C.3   133  ARG133      0.0489
     87  CD        -3.2200   18.3100   -5.5370 C.3   133  ARG133      0.2205
     88  NE        -3.1850   17.1430   -4.6490 N.pl3 133  ARG133     -0.0865
     89  CZ        -2.5570   15.9830   -4.9090 C.cat 133  ARG133      0.5346
     90  NH1       -1.8880   15.7940   -6.0500 N.pl3 133  ARG133      0.1354
     91  NH2       -2.5930   14.9920   -4.0170 N.pl3 133  ARG133      0.1354
     92  N         -7.6040   16.7010   -7.4510 N.am  134  TYR134     -0.1976
     93  CA        -7.7730   15.9240   -8.6790 C.3   134  TYR134      0.1639
     94  C         -8.8120   16.5430   -9.6430 C.2   134  TYR134      0.2290
     95  O         -8.6730   16.4750  -10.8670 O.2   134  TYR134     -0.2864
     96  CB        -8.1310   14.4780   -8.3580 C.3   134  TYR134      0.0560
     97  CG        -7.1550   13.7540   -7.4610 C.ar  134  TYR134     -0.0198
     98  CD1       -5.8090   13.9960   -7.5230 C.ar  134  TYR134     -0.0009
     99  CD2       -7.5910   12.7910   -6.5750 C.ar  134  TYR134     -0.0009
    100  CE1       -4.9140   13.3220   -6.7000 C.ar  134  TYR134      0.0417
    101  CE2       -6.7120   12.1090   -5.7520 C.ar  134  TYR134      0.0417
    102  CZ        -5.3690   12.3690   -5.8190 C.ar  134  TYR134      0.1957
    103  OH        -4.4890   11.6840   -4.9990 O.3   134  TYR134     -0.2866
    104  N          3.6170    9.4540    9.7580 N.3   171  PRO171     -0.2102
    105  CA         3.3860    9.2780    8.3190 C.3   171  PRO171      0.1504
    106  C          2.2620   10.1460    7.7460 C.2   171  PRO171      0.2575
    107  O          2.4130   10.7000    6.6780 O.2   171  PRO171     -0.2718
    108  CB         3.0340    7.7910    8.1930 C.3   171  PRO171      0.0282
    109  CG         3.7800    7.1540    9.3240 C.3   171  PRO171      0.0208
    110  CD         3.7680    8.1550   10.4470 C.3   171  PRO171      0.0893
    111  N          1.1470   10.2510    8.4430 N.am  172  ILE172     -0.1980
    112  CA         0.0120   10.9990    7.9370 C.3   172  ILE172      0.1595
    113  C          0.3780   12.4860    7.8400 C.2   172  ILE172      0.2287
    114  O          0.0600   13.1560    6.8460 O.2   172  ILE172     -0.2864
    115  CB        -1.2630   10.7420    8.8040 C.3   172  ILE172      0.0276
    116  CG1       -1.7180    9.2770    8.6880 C.3   172  ILE172      0.0022
    117  CG2       -2.4120   11.6800    8.4080 C.3   172  ILE172      0.0022
    118  CD1       -2.7280    8.8490    9.7420 C.3   172  ILE172      0.0001
    119  N          2.6920   12.8310    4.9670 N.3   175  GLY175     -0.1225
    120  CA         1.9590   12.6250    3.7190 C.3   175  GLY175      0.1811
    121  C          1.1700   13.8450    3.3430 C.2   175  GLY175      0.2280
    122  O          1.0740   14.1990    2.1540 O.2   175  GLY175     -0.2866
    123  N          3.4430   16.3920    2.1590 N.3   178  LEU178     -0.1231
    124  CA         3.8920   15.9960    0.8300 C.3   178  LEU178      0.1693
    125  C          2.8510   16.4090   -0.1860 C.2   178  LEU178      0.2592
    126  O          3.1590   17.0900   -1.1400 O.2   178  LEU178     -0.2718
    127  CB         4.1770   14.4970    0.7440 C.3   178  LEU178      0.0284
    128  CG         4.4820   13.9340   -0.6470 C.3   178  LEU178      0.0019
    129  CD1        5.6160   14.6740   -1.2960 C.3   178  LEU178      0.0001
    130  CD2        4.8200   12.4590   -0.5690 C.3   178  LEU178      0.0001
    131  N          1.6050   16.0290    0.0270 N.am  179  ASN179     -0.1974
    132  CA         0.5590   16.3600   -0.9480 C.3   179  ASN179      0.1688
    133  C          0.2280   17.8490   -1.0020 C.2   179  ASN179      0.2292
    134  O          0.0450   18.3980   -2.0740 O.2   179  ASN179     -0.2864
    135  CB        -0.6920   15.5350   -0.6820 C.3   179  ASN179      0.1181
    136  CG        -0.4760   14.0690   -0.9700 C.2   179  ASN179      0.2629
    137  OD1        0.6420   13.6240   -1.2190 O.2   179  ASN179     -0.2716
    138  ND2       -1.5450   13.3070   -0.9250 N.am  179  ASN179     -0.0877
    139  N          2.7360   19.5530   -3.0050 N.3   182  VAL182     -0.1245
    140  CA         2.4370   19.2890   -4.4300 C.3   182  VAL182      0.1561
    141  C          1.2540   20.1140   -4.9470 C.2   182  VAL182      0.2260
    142  O          1.2290   20.5370   -6.0940 O.2   182  VAL182     -0.2867
    143  CB         2.1590   17.7850   -4.6860 C.3   182  VAL182      0.0252
    144  CG1        1.5820   17.5460   -6.0770 C.3   182  VAL182      0.0019
    145  CG2        3.4340   16.9790   -4.5080 C.3   182  VAL182      0.0019
    146  N          2.7890   23.5190   -5.6430 N.3   185  TYR185     -0.1227
    147  CA         3.5890   23.5620   -6.8590 C.3   185  TYR185      0.1736
    148  C          2.7550   23.4270   -8.1340 C.2   185  TYR185      0.2595
    149  O          2.8960   24.2520   -9.0410 O.2   185  TYR185     -0.2718
    150  CB         4.7040   22.5090   -6.8380 C.3   185  TYR185      0.0548
    151  CG         5.7470   22.7070   -7.9260 C.ar  185  TYR185     -0.0200
    152  CD1        5.5850   22.1460   -9.1840 C.ar  185  TYR185     -0.0009
    153  CD2        6.8950   23.4710   -7.6950 C.ar  185  TYR185     -0.0009
    154  CE1        6.5300   22.3320  -10.1820 C.ar  185  TYR185      0.0417
    155  CE2        7.8480   23.6610   -8.6880 C.ar  185  TYR185      0.0417
    156  CZ         7.6560   23.0890   -9.9320 C.ar  185  TYR185      0.1957
    157  OH         8.5820   23.2710  -10.9370 O.3   185  TYR185     -0.2866
    158  N          1.8900   22.4110   -8.1980 N.am  186  GLU186     -0.1979
    159  CA         1.2060   22.0310   -9.4620 C.3   186  GLU186      0.1602
    160  C         -0.0950   22.7740   -9.7890 C.2   186  GLU186      0.2287
    161  O         -0.4180   22.9640  -10.9580 O.2   186  GLU186     -0.2864
    162  CB         0.9230   20.5270   -9.4960 C.3   186  GLU186      0.0415
    163  CG         2.1800   19.6650   -9.5210 C.3   186  GLU186      0.1163
    164  CD         1.9080   18.2130   -9.9030 C.2   186  GLU186      0.3649
    165  OE1        0.8600   17.6460   -9.5000 O.co2 186  GLU186     -0.2457
    166  OE2        2.7590   17.6340  -10.6030 O.co2 186  GLU186     -0.2457
    167  N         10.3620    6.5320    4.3480 N.3   222  LEU222     -0.1231
    168  CA         9.8120    6.2760    3.0350 C.3   222  LEU222      0.1693
    169  C          9.1850    7.5530    2.4640 C.2   222  LEU222      0.2591
    170  O          9.4330    7.9350    1.3230 O.2   222  LEU222     -0.2718
    171  CB         8.7550    5.1820    3.1370 C.3   222  LEU222      0.0284
    172  CG         8.7130    4.2090    1.9710 C.3   222  LEU222      0.0019
    173  CD1        9.7190    3.0910    2.1990 C.3   222  LEU222      0.0001
    174  CD2        7.2870    3.6770    1.7910 C.3   222  LEU222      0.0001
    175  N          8.3720    8.2120    3.2760 N.am  223  ILE223     -0.1980
    176  CA         7.6860    9.4340    2.8730 C.3   223  ILE223      0.1595
    177  C          8.6720   10.6070    2.8380 C.2   223  ILE223      0.2287
    178  O          8.6280   11.4250    1.9330 O.2   223  ILE223     -0.2864
    179  CB         6.4860    9.7250    3.8010 C.3   223  ILE223      0.0276
    180  CG1        5.4640    8.5740    3.6980 C.3   223  ILE223      0.0022
    181  CG2        5.8330   11.0640    3.4560 C.3   223  ILE223      0.0022
    182  CD1        4.3040    8.6300    4.6800 C.3   223  ILE223      0.0001
    183  N         10.4490   11.0310   -0.3940 N.3   226  LEU226     -0.1245
    184  CA         9.6610   11.6600   -1.4350 C.3   226  LEU226      0.1561
    185  C          9.6120   13.1700   -1.2510 C.2   226  LEU226      0.2260
    186  O          9.5840   13.9230   -2.2110 O.2   226  LEU226     -0.2867
    187  CB         8.2480   11.0960   -1.4280 C.3   226  LEU226      0.0270
    188  CG         8.1350    9.6010   -1.7310 C.3   226  LEU226      0.0019
    189  CD1        6.7180    9.1170   -1.4320 C.3   226  LEU226      0.0001
    190  CD2        8.5350    9.3200   -3.1740 C.3   226  LEU226      0.0001
    191  N         13.0530   14.1300   -2.6020 N.3   229  ASP229     -0.1225
    192  CA        13.1140   13.9760   -4.0470 C.3   229  ASP229      0.1805
    193  C         12.4500   15.1650   -4.7230 C.2   229  ASP229      0.2597
    194  O         13.0140   15.7680   -5.6190 O.2   229  ASP229     -0.2718
    195  CB        12.4250   12.6860   -4.4960 C.3   229  ASP229      0.1424
    196  CG        13.1670   11.4430   -4.0670 C.2   229  ASP229      0.3668
    197  OD1       14.3510   11.5460   -3.6440 O.co2 229  ASP229     -0.2456
    198  OD2       12.5450   10.3580   -4.1640 O.co2 229  ASP229     -0.2456
    199  N         11.2460   15.5020   -4.2840 N.am  230  ASN230     -0.1974
    200  CA        10.5210   16.6410   -4.8330 C.3   230  ASN230      0.1688
    201  C         11.3170   17.9200   -4.6800 C.2   230  ASN230      0.2292
    202  O         11.5010   18.6400   -5.6490 O.2   230  ASN230     -0.2864
    203  CB         9.1640   16.8040   -4.1460 C.3   230  ASN230      0.1181
    204  CG         8.1180   15.8240   -4.6560 C.2   230  ASN230      0.2629
    205  OD1        8.3180   15.1070   -5.6570 O.2   230  ASN230     -0.2716
    206  ND2        6.9740   15.8080   -3.9760 N.am  230  ASN230     -0.0877
    207  N         14.1960   18.0780   -7.0060 N.3   233  LEU233     -0.1231
    208  CA        13.6620   18.3490   -8.3380 C.3   233  LEU233      0.1693
    209  C         13.2100   19.7820   -8.5080 C.2   233  LEU233      0.2592
    210  O         13.4280   20.3540   -9.5580 O.2   233  LEU233     -0.2718
    211  CB        12.4830   17.4270   -8.6470 C.3   233  LEU233      0.0284
    212  CG        11.7940   17.6590   -9.9940 C.3   233  LEU233      0.0019
    213  CD1       12.7650   17.4650  -11.1430 C.3   233  LEU233      0.0001
    214  CD2       10.5830   16.7520  -10.1670 C.3   233  LEU233      0.0001
    215  N         12.5750   20.3470   -7.4860 N.am  234  TRP234     -0.1976
    216  CA        12.0480   21.7220   -7.5430 C.3   234  TRP234      0.1640
    217  C         13.1460   22.7870   -7.4720 C.2   234  TRP234      0.2290
    218  O         12.9760   23.8770   -8.0200 O.2   234  TRP234     -0.2864
    219  CB        11.0000   21.9700   -6.4330 C.3   234  TRP234      0.0576
    220  CG         9.7350   21.1460   -6.5860 C.ar  234  TRP234      0.0006
    221  CD1        9.2670   20.5780   -7.7350 C.ar  234  TRP234      0.0946
    222  CD2        8.7790   20.8140   -5.5600 C.ar  234  TRP234      0.0152
    223  NE1        8.0940   19.9080   -7.4910 N.ar  234  TRP234     -0.2442
    224  CE2        7.7720   20.0350   -6.1670 C.ar  234  TRP234      0.0810
    225  CE3        8.6780   21.0990   -4.1930 C.ar  234  TRP234      0.0012
    226  CZ2        6.6860   19.5310   -5.4600 C.ar  234  TRP234      0.0191
    227  CZ3        7.5880   20.5900   -3.4830 C.ar  234  TRP234      0.0001
    228  CH2        6.6130   19.8110   -4.1210 C.ar  234  TRP234      0.0015
@<TRIPOS>BOND
     1    53    52    2
     2    52    51    1
     3    51    50    1
     4    51    54    1
     5    54    55    1
     6    55    56    1
     7    42    41    2
     8    56    57    1
     9    41    40    1
    10    57    58    2
    11    40    39    1
    12    40    43    1
    13    58    59    1
    14    58    60    1
    15    43    44    1
    16    44    45    1
    17   213   212    1
    18   161   160    2
    19   157   156    1
    20    95    94    2
    21   166   164   ar
    22    45    46    1
    23    46    47    2
    24   154   156   ar
    25   154   152   ar
    26   214   212    1
    27    34    33    2
    28   212   211    1
    29   156   155   ar
    30   164   163    1
    31   164   165   ar
    32   160   159    1
    33    94    93    1
    34   210   209    2
    35   163   162    1
    36   162   159    1
    37   159   158    1
    38    47    49    1
    39    47    48    1
    40   152   151   ar
    41   149   148    2
    42    33    32    1
    43   155   153   ar
    44    93    96    1
    45    93    92    1
    46   211   208    1
    47    84    83    2
    48   209   208    1
    49   209   215   am
    50    96    97    1
    51   208   207    1
    52   158   148   am
    53   148   147    1
    54   218   217    2
    55   151   153   ar
    56   151   150    1
    57    32    35    1
    58    32    31    1
    59   221   223   ar
    60   221   220   ar
    61    37    36    2
    62   216   215    1
    63   216   217    1
    64   216   219    1
    65    25    24    2
    66    98    97   ar
    67    98   100   ar
    68   223   224   ar
    69    83    92   am
    70    83    82    1
    71    35    36    1
    72    97    99   ar
    73    36    38   am
    74   147   150    1
    75   147   146    1
    76   100   102   ar
    77   220   219    1
    78   220   222   ar
    79    99   101   ar
    80    31    24   am
    81    24    23    1
    82    86    87    1
    83    86    85    1
    84   224   222   ar
    85   224   226   ar
    86    82    85    1
    87    82    81    1
    88   142   141    2
    89   144   143    1
    90    90    89    1
    91    29    30    1
    92    29    28    1
    93   102   101   ar
    94   102   103    1
    95   205   204    2
    96   202   201    2
    97   194   193    2
    98   222   225   ar
    99    87    88    1
   100   226   228   ar
   101    23    22    1
   102    23    26    1
   103   141   140    1
   104    28    27    1
   105    89    88    2
   106    89    91    1
   107   200   201    1
   108   200   199    1
   109   200   203    1
   110    27    26    1
   111   193   199   am
   112   193   192    1
   113   143   145    1
   114   143   140    1
   115   204   203    1
   116   204   206   am
   117   195   196    1
   118   195   192    1
   119   140   139    1
   120   225   227   ar
   121   198   196   ar
   122   228   227   ar
   123   196   197   ar
   124   192   191    1
   125    18    17    2
   126   190   188    1
   127    17    16    1
   128    20    19    1
   129   186   185    2
   130   134   133    2
   131    12    11    2
   132   188   189    1
   133   188   187    1
   134    16    19    1
   135    16    15    1
   136   184   187    1
   137   184   185    1
   138   184   183    1
   139   129   128    1
   140   137   136    2
   141    19    21    1
   142   126   125    2
   143   133   132    1
   144   136   138   am
   145   136   135    1
   146   132   135    1
   147   132   131    1
   148    11    15   am
   149    11    10    1
   150   128   130    1
   151   128   127    1
   152   125   131   am
   153   125   124    1
   154    10     9    1
   155    10    13    1
   156   127   124    1
   157   124   123    1
   158    14    13    1
   159    75    74    2
   160   170   169    2
   161    80    79    1
   162     4     3    2
   163   174   172    1
   164   178   177    2
   165   172   173    1
   166   172   171    1
   167   122   121    2
   168    74    73    1
   169   169   168    1
   170   169   175   am
   171   177   176    1
   172     3     2    1
   173   176   175    1
   174   176   179    1
   175    77    78    1
   176    77    76    1
   177   168   171    1
   178   168   167    1
   179    79    78    1
   180   121   120    1
   181   181   179    1
   182    73    76    1
   183    73    72    1
   184   180   179    1
   185   180   182    1
   186   120   119    1
   187     2     5    1
   188     2     1    1
   189    69    71   ar
   190    69    67   ar
   191     5     6    1
   192    71    70   ar
   193     7     6    2
   194    64    63    2
   195    67    66   ar
   196     6     8   am
   197    70    68   ar
   198    63    62    1
   199    66    68   ar
   200    66    65    1
   201   107   106    2
   202   114   113    2
   203    62    65    1
   204    62    61    1
   205   106   105    1
   206   106   111   am
   207   113   112    1
   208   112   111    1
   209   112   115    1
   210   108   105    1
   211   108   109    1
   212   105   104    1
   213   117   115    1
   214   116   115    1
   215   116   118    1
   216   109   110    1
   217   104   110    1
