@<TRIPOS>MOLECULE
tmp/4j70K00.pdb
 169 160 0 0 0
SMALL
GASTEIGER

@<TRIPOS>ATOM
      1  N         11.8470 -141.7040    9.6340 N.3     1  THR1       -0.1218
      2  CA        11.5920 -140.5120    8.7790 C.3     1  THR1        0.1862
      3  C         12.0910 -140.6880    7.3640 C.2     1  THR1        0.2287
      4  O         13.2530 -141.0130    7.1670 O.2     1  THR1       -0.2866
      5  CB        12.3150 -139.3030    9.4230 C.3     1  THR1        0.1770
      6  OG1       11.8160 -139.2120   10.7740 O.3     1  THR1       -0.2211
      7  CG2       12.0600 -137.9840    8.6610 C.3     1  THR1        0.0375
      8  N          5.2090 -140.2310   10.0340 N.3    19  ARG19      -0.1231
      9  CA         5.3330 -141.1400   11.1980 C.3    19  ARG19       0.1694
     10  C          6.2820 -140.5770   12.2790 C.2    19  ARG19       0.2592
     11  O          7.2840 -139.9490   11.9700 O.2    19  ARG19      -0.2718
     12  CB         5.7700 -142.5640   10.7440 C.3    19  ARG19       0.0321
     13  CG         5.6680 -143.6620   11.8070 C.3    19  ARG19       0.0489
     14  CD         5.8570 -145.0530   11.2220 C.3    19  ARG19       0.2205
     15  NE         4.6770 -145.5120   10.4910 N.pl3  19  ARG19      -0.0865
     16  CZ         4.5040 -146.7470   10.0010 C.cat  19  ARG19       0.5346
     17  NH1        5.4300 -147.6760   10.1560 N.pl3  19  ARG19       0.1354
     18  NH2        3.3960 -147.0630    9.3410 N.pl3  19  ARG19       0.1354
     19  N          5.9410 -140.7940   13.5360 N.am   20  ALA20      -0.1966
     20  CA         6.8550 -140.5780   14.6480 C.3    20  ALA20       0.1728
     21  C          6.7940 -141.7990   15.5870 C.2    20  ALA20       0.2616
     22  O          5.7030 -142.3040   15.9450 O.2    20  ALA20      -0.2715
     23  CB         6.4970 -139.3140   15.4010 C.3    20  ALA20       0.0334
     24  N          7.9780 -142.2510   15.9940 N.am   21  THR21      -0.1951
     25  CA         8.1380 -143.4770   16.7610 C.3    21  THR21       0.1897
     26  C          8.8890 -143.2170   18.0510 C.2    21  THR21       0.2313
     27  O          9.6860 -142.3330   18.1040 O.2    21  THR21      -0.2863
     28  CB         8.8970 -144.5120   15.9150 C.3    21  THR21       0.1794
     29  OG1        9.6130 -143.8430   14.8630 O.3    21  THR21      -0.2208
     30  CG2        7.9180 -145.4180   15.2500 C.3    21  THR21       0.0378
     31  N          2.1330 -136.1880   11.8080 N.3    31  VAL31      -0.1245
     32  CA         3.1440 -135.2430   12.2970 C.3    31  VAL31       0.1561
     33  C          3.5010 -134.4270   11.0850 C.2    31  VAL31       0.2260
     34  O          3.6630 -134.9900   10.0040 O.2    31  VAL31      -0.2867
     35  CB         4.4150 -135.9890   12.8000 C.3    31  VAL31       0.0252
     36  CG1        5.5760 -135.0400   13.0730 C.3    31  VAL31       0.0019
     37  CG2        4.0960 -136.8220   14.0260 C.3    31  VAL31       0.0019
     38  N          5.9450 -132.7640    9.0600 N.3    33  LYS33      -0.1245
     39  CA         7.4020 -132.6930    8.8630 C.3    33  LYS33       0.1561
     40  C          7.8510 -131.6280    7.8440 C.2    33  LYS33       0.2260
     41  O          9.0410 -131.5560    7.4920 O.2    33  LYS33      -0.2867
     42  CB         8.0050 -134.0680    8.4870 C.3    33  LYS33       0.0271
     43  CG         7.9150 -135.1190    9.5870 C.3    33  LYS33       0.0035
     44  CD         8.5420 -136.4390    9.1610 C.3    33  LYS33       0.0206
     45  CE         8.0770 -137.5210   10.1270 C.3    33  LYS33       0.1093
     46  NZ         8.5950 -138.9110    9.8910 N.3    33  LYS33      -0.1314
     47  N         11.9600 -131.6500    8.1160 N.3    45  MET45      -0.1230
     48  CA        12.2000 -132.0260    9.5000 C.3    45  MET45       0.1702
     49  C         12.7610 -133.4720    9.6000 C.2    45  MET45       0.2592
     50  O         12.0380 -134.4420    9.4070 O.2    45  MET45      -0.2718
     51  CB        10.8700 -131.9170   10.2170 C.3    45  MET45       0.0401
     52  CG        10.9410 -131.8250   11.7130 C.3    45  MET45       0.0596
     53  SD         9.4050 -131.2420   12.4820 S.3    45  MET45      -0.1393
     54  CE         8.8590 -132.8760   12.9870 C.3    45  MET45       0.0692
     55  N         14.0480 -133.6280    9.8760 N.am   46  ALA46      -0.1966
     56  CA        14.5690 -134.9340   10.2700 C.3    46  ALA46       0.1728
     57  C         15.5370 -134.8530   11.4580 C.2    46  ALA46       0.2617
     58  O         16.1150 -133.7890   11.7200 O.2    46  ALA46      -0.2715
     59  CB        15.2010 -135.6320    9.1050 C.3    46  ALA46       0.0334
     60  N         15.6970 -135.9580   12.1950 N.am   47  GLY47      -0.1940
     61  CA        16.4620 -135.9330   13.4520 C.3    47  GLY47       0.2014
     62  C         15.5540 -135.7240   14.6540 C.2    47  GLY47       0.2639
     63  O         14.7760 -136.5870   14.9870 O.2    47  GLY47      -0.2714
     64  N         15.6360 -134.5680   15.2860 N.am   48  GLY48      -0.1939
     65  CA        14.8440 -134.2960   16.4500 C.3    48  GLY48       0.2014
     66  C         13.7620 -133.3270   16.0670 C.2    48  GLY48       0.2638
     67  O         14.0280 -132.3400   15.3610 O.2    48  GLY48      -0.2714
     68  N         12.5320 -133.6220   16.4820 N.am   49  ALA49      -0.1977
     69  CA        11.3900 -132.8630   16.0090 C.3    49  ALA49       0.1597
     70  C         11.4300 -131.4680   16.6000 C.2    49  ALA49       0.2287
     71  O         11.2950 -130.4840   15.8980 O.2    49  ALA49      -0.2864
     72  CB        10.1280 -133.5640   16.3910 C.3    49  ALA49       0.0319
     73  N         20.0230 -132.2280   17.2190 N.3    96  SER96      -0.1202
     74  CA        19.9370 -133.2380   16.2170 C.3    96  SER96       0.2020
     75  C         18.9450 -132.7790   15.1570 C.2    96  SER96       0.2619
     76  O         17.7360 -132.7500   15.3700 O.2    96  SER96      -0.2717
     77  CB        19.5510 -134.5920   16.8320 C.3    96  SER96       0.2103
     78  OG        19.1450 -135.5400   15.8340 O.3    96  SER96      -0.2182
     79  N         19.4580 -132.3810   14.0180 N.am   97  MET97      -0.1965
     80  CA        18.5750 -131.9920   12.9390 C.3    97  MET97       0.1736
     81  C         19.2660 -132.1160   11.5670 C.2    97  MET97       0.2617
     82  O         20.4630 -131.9340   11.4620 O.2    97  MET97      -0.2715
     83  CB        17.9890 -130.6040   13.1870 C.3    97  MET97       0.0427
     84  CG        18.9990 -129.5400   13.4560 C.3    97  MET97       0.0599
     85  SD        18.3310 -128.1210   14.3570 S.3    97  MET97      -0.1393
     86  CE        17.8600 -127.0790   12.9450 C.3    97  MET97       0.0692
     87  N         18.4900 -132.5120   10.5600 N.am   98  GLY98      -0.1955
     88  CA        18.9260 -132.6080    9.1820 C.3    98  GLY98       0.1869
     89  C         17.7740 -132.0890    8.3380 C.2    98  GLY98       0.2309
     90  O         16.7000 -132.7140    8.2740 O.2    98  GLY98      -0.2863
     91  N         20.7200 -128.0300    2.0760 N.3   114  TYR114     -0.1241
     92  CA        20.7320 -129.0010    3.1580 C.3   114  TYR114      0.1605
     93  C         21.5540 -128.4090    4.3140 C.2   114  TYR114      0.2264
     94  O         22.7030 -127.9510    4.1040 O.2   114  TYR114     -0.2867
     95  CB        21.3540 -130.2860    2.6590 C.3   114  TYR114      0.0534
     96  CG        21.7140 -131.2480    3.7590 C.ar  114  TYR114     -0.0201
     97  CD1       20.7610 -132.1090    4.3010 C.ar  114  TYR114     -0.0009
     98  CD2       23.0060 -131.3020    4.2630 C.ar  114  TYR114     -0.0009
     99  CE1       21.0790 -132.9870    5.3140 C.ar  114  TYR114      0.0417
    100  CE2       23.3240 -132.1780    5.2780 C.ar  114  TYR114      0.0417
    101  CZ        22.3660 -133.0220    5.7900 C.ar  114  TYR114      0.1957
    102  OH        22.7100 -133.8890    6.8020 O.3   114  TYR114     -0.2866
    103  N         22.5610 -129.2570    8.5040 N.3   116  ASP116     -0.1225
    104  CA        22.4230 -130.1770    9.6390 C.3   116  ASP116      0.1805
    105  C         23.0560 -129.6750   10.9400 C.2   116  ASP116      0.2598
    106  O         23.7020 -128.6190   10.9770 O.2   116  ASP116     -0.2718
    107  CB        22.8590 -131.6240    9.3130 C.3   116  ASP116      0.1424
    108  CG        24.3450 -131.7430    9.0730 C.2   116  ASP116      0.3668
    109  OD1       25.1020 -130.8480    9.5410 O.co2 116  ASP116     -0.2456
    110  OD2       24.7730 -132.7160    8.3920 O.co2 116  ASP116     -0.2456
    111  N         22.8380 -130.4300   12.0150 N.am  117  SER117     -0.1938
    112  CA        23.2540 -129.9880   13.3260 C.3   117  SER117      0.2055
    113  C         24.7390 -130.0860   13.4920 C.2   117  SER117      0.2643
    114  O         25.2780 -129.4410   14.3650 O.2   117  SER117     -0.2714
    115  CB        22.4890 -130.6670   14.4740 C.3   117  SER117      0.2130
    116  OG        22.3020 -132.0390   14.2840 O.3   117  SER117     -0.2179
    117  N         25.3950 -130.8620   12.6340 N.am  118  ASP118     -0.1971
    118  CA        26.8650 -130.8000   12.4690 C.3   118  ASP118      0.1709
    119  C         27.3710 -129.4460   11.9990 C.2   118  ASP118      0.2293
    120  O         28.5430 -129.1300   12.1780 O.2   118  ASP118     -0.2864
    121  CB        27.3430 -131.8490   11.4790 C.3   118  ASP118      0.1436
    122  CG        27.4310 -133.2480   12.0900 C.2   118  ASP118      0.3671
    123  OD1       27.4780 -134.2290   11.3170 O.co2 118  ASP118     -0.2456
    124  OD2       27.4670 -133.3900   13.3310 O.co2 118  ASP118     -0.2456
    125  N         16.6200 -137.0930    3.2150 N.3   129  VAL129     -0.1231
    126  CA        17.1120 -137.1690    4.5600 C.3   129  VAL129      0.1692
    127  C         16.1820 -138.0190    5.3920 C.2   129  VAL129      0.2593
    128  O         14.9620 -137.7660    5.4330 O.2   129  VAL129     -0.2718
    129  CB        17.2250 -135.7540    5.1740 C.3   129  VAL129      0.0266
    130  CG1       17.6340 -135.8080    6.6380 C.3   129  VAL129      0.0020
    131  CG2       18.2500 -134.9590    4.4040 C.3   129  VAL129      0.0020
    132  N         16.7670 -139.0090    6.0700 N.am  130  GLY130     -0.1942
    133  CA        16.0880 -139.7560    7.1410 C.3   130  GLY130      0.2014
    134  C         16.4010 -141.2340    7.0610 C.2   130  GLY130      0.2639
    135  O         17.1280 -141.6860    6.1850 O.2   130  GLY130     -0.2714
    136  N         15.8020 -142.0020    7.9470 N.am  131  SER131     -0.1949
    137  CA        15.9790 -143.4270    7.9400 C.3   131  SER131      0.1924
    138  C         15.5140 -144.0830    6.6580 C.2   131  SER131      0.2314
    139  O         15.8860 -145.2340    6.3870 O.2   131  SER131     -0.2863
    140  CB        15.2290 -144.0340    9.1300 C.3   131  SER131      0.2116
    141  OG        13.8280 -143.9590    8.9960 O.3   131  SER131     -0.2180
    142  N         15.8430 -142.4550    3.5940 N.3   133  GLN133     -0.1231
    143  CA        16.4810 -141.7710    2.5020 C.3   133  GLN133      0.1698
    144  C         16.9370 -142.6440    1.3060 C.2   133  GLN133      0.2592
    145  O         16.7850 -142.2570    0.1340 O.2   133  GLN133     -0.2718
    146  CB        17.6430 -140.9480    3.0240 C.3   133  GLN133      0.0381
    147  CG        18.9030 -141.7210    3.2490 C.3   133  GLN133      0.0905
    148  CD        19.9390 -140.9080    3.9850 C.2   133  GLN133      0.2608
    149  OE1       19.6310 -140.0080    4.8200 O.2   133  GLN133     -0.2717
    150  NE2       21.1980 -141.2350    3.7110 N.am  133  GLN133     -0.0878
    151  N         17.5080 -143.8030    1.5860 N.am  134  THR134     -0.1953
    152  CA        18.0760 -144.5990    0.5030 C.3   134  THR134      0.1897
    153  C         17.0220 -145.1140   -0.4960 C.2   134  THR134      0.2313
    154  O         17.3240 -145.2740   -1.6920 O.2   134  THR134     -0.2863
    155  CB        18.9530 -145.7800    1.0250 C.3   134  THR134      0.1794
    156  OG1       18.1550 -146.6680    1.8110 O.3   134  THR134     -0.2208
    157  CG2       20.1430 -145.3030    1.8240 C.3   134  THR134      0.0378
    158  N         10.3280 -147.1150    9.9510 N.3   170  TYR170     -0.1241
    159  CA        10.2360 -145.8460   10.6880 C.3   170  TYR170      0.1605
    160  C          9.6370 -144.7140    9.8650 C.2   170  TYR170      0.2264
    161  O          9.5130 -143.5820   10.3670 O.2   170  TYR170     -0.2867
    162  CB        11.5950 -145.4890   11.3280 C.3   170  TYR170      0.0534
    163  CG        11.9390 -146.5510   12.3170 C.ar  170  TYR170     -0.0201
    164  CD1       11.1630 -146.7190   13.4620 C.ar  170  TYR170     -0.0009
    165  CD2       12.9670 -147.4700   12.0710 C.ar  170  TYR170     -0.0009
    166  CE1       11.4520 -147.7340   14.3720 C.ar  170  TYR170      0.0417
    167  CE2       13.2550 -148.4770   12.9690 C.ar  170  TYR170      0.0417
    168  CZ        12.5010 -148.6190   14.1190 C.ar  170  TYR170      0.1957
    169  OH        12.7380 -149.6500   15.0410 O.3   170  TYR170     -0.2866
@<TRIPOS>BOND
     1   154   153    2
     2   153   152    1
     3   145   144    2
     4   152   155    1
     5   152   151    1
     6   155   156    1
     7   155   157    1
     8   144   151   am
     9   144   143    1
    10    91    92    1
    11   143   146    1
    12   143   142    1
    13    95    92    1
    14    95    96    1
    15   146   147    1
    16    92    93    1
    17   125   126    1
    18   147   148    1
    19   150   148   am
    20    96    98   ar
    21    96    97   ar
    22   148   149    2
    23    94    93    2
    24    98   100   ar
    25    97    99   ar
    26   131   129    1
    27   126   129    1
    28   126   127    1
    29   129   130    1
    30   100   101   ar
    31    99   101   ar
    32   127   128    2
    33   127   132   am
    34   101   102    1
    35   132   133    1
    36   135   134    2
    37   139   138    2
    38   138   137    1
    39   134   133    1
    40   134   136   am
    41     4     3    2
    42     3     2    1
    43    41    40    2
    44    40    39    1
    45   137   136    1
    46   137   140    1
    47    47    48    1
    48    90    89    2
    49    89    88    1
    50   110   108   ar
    51    42    39    1
    52    42    43    1
    53   103   104    1
    54     7     5    1
    55     2     5    1
    56     2     1    1
    57    39    38    1
    58   141   140    1
    59   108   107    1
    60   108   109   ar
    61    59    56    1
    62    44    43    1
    63    44    45    1
    64    88    87    1
    65   107   104    1
    66    18    16    1
    67    50    49    2
    68     5     6    1
    69    48    49    1
    70    48    51    1
    71    49    55   am
    72   104   105    1
    73   160   161    2
    74   160   159    1
    75    55    56    1
    76    46    45    1
    77   158   159    1
    78    16    17    1
    79    16    15    2
    80    34    33    2
    81     8     9    1
    82    51    52    1
    83    56    57    1
    84    15    14    1
    85    87    81   am
    86   159   162    1
    87    12     9    1
    88    12    13    1
    89   105   106    2
    90   105   111   am
    91    33    32    1
    92     9    10    1
    93    14    13    1
    94   123   122   ar
    95   162   163    1
    96    57    58    2
    97    57    60   am
    98    82    81    2
    99   121   122    1
   100   121   118    1
   101    81    80    1
   102    52    53    1
   103    31    32    1
   104    11    10    2
   105   119   120    2
   106   119   118    1
   107   111   112    1
   108   165   163   ar
   109   165   167   ar
   110   122   124   ar
   111    60    61    1
   112    10    19   am
   113    32    35    1
   114   163   164   ar
   115   118   117    1
   116    53    54    1
   117   117   113   am
   118    35    36    1
   119    35    37    1
   120    80    83    1
   121    80    79    1
   122    86    85    1
   123   167   168   ar
   124    83    84    1
   125   112   113    1
   126   112   115    1
   127    61    62    1
   128    84    85    1
   129   164   166   ar
   130   113   114    2
   131    19    20    1
   132    79    75   am
   133   168   166   ar
   134   168   169    1
   135   116   115    1
   136    20    23    1
   137    20    21    1
   138    62    63    2
   139    62    64   am
   140    29    28    1
   141    75    76    2
   142    75    74    1
   143    30    28    1
   144    64    65    1
   145    67    66    2
   146    21    22    2
   147    21    24   am
   148    78    77    1
   149    71    70    2
   150    28    25    1
   151    24    25    1
   152    69    72    1
   153    69    68    1
   154    69    70    1
   155    66    65    1
   156    66    68   am
   157    74    77    1
   158    74    73    1
   159    25    26    1
   160    26    27    2
