@<TRIPOS>MOLECULE
tmp/4j71B00.pdb
 100 94 0 0 0
SMALL
GASTEIGER

@<TRIPOS>ATOM
      1  N        -28.4850    2.8380   42.5930 N.3    27  ILE27      -0.1245
      2  CA       -29.0890    2.1080   41.4870 C.3    27  ILE27       0.1561
      3  C        -30.0720    2.9870   40.7370 C.2    27  ILE27       0.2260
      4  O        -30.7330    2.5350   39.8020 O.2    27  ILE27      -0.2867
      5  CB       -29.8820    0.8940   41.9880 C.3    27  ILE27       0.0252
      6  CG1      -31.0060    1.3650   42.9190 C.3    27  ILE27       0.0019
      7  CG2      -28.9590   -0.0990   42.6760 C.3    27  ILE27       0.0019
      8  CD1      -32.1030    0.3450   43.1290 C.3    27  ILE27       0.0001
      9  N        -31.6910    6.8710   44.4540 N.3    35  VAL35      -0.1245
     10  CA       -32.2760    5.6070   44.8970 C.3    35  VAL35       0.1561
     11  C        -31.1800    4.5910   45.1880 C.2    35  VAL35       0.2260
     12  O        -30.3370    4.3150   44.3320 O.2    35  VAL35      -0.2867
     13  CB       -33.2340    5.0140   43.8450 C.3    35  VAL35       0.0252
     14  CG1      -33.9150    3.7700   44.3920 C.3    35  VAL35       0.0019
     15  CG2      -34.2750    6.0400   43.4190 C.3    35  VAL35       0.0019
     16  N        -35.4960   -1.1000   48.1740 N.3    48  ALA48      -0.1245
     17  CA       -35.0700    0.1360   47.5490 C.3    48  ALA48       0.1562
     18  C        -35.2750    1.2700   48.5410 C.2    48  ALA48       0.2260
     19  O        -36.2720    1.3000   49.2640 O.2    48  ALA48      -0.2867
     20  CB       -35.8630    0.3900   46.2760 C.3    48  ALA48       0.0290
     21  N        -35.5690    5.2510   48.3280 N.3    50  LYS50      -0.1245
     22  CA       -35.6460    6.4970   47.5990 C.3    50  LYS50       0.1561
     23  C        -35.3290    7.6470   48.5470 C.2    50  LYS50       0.2260
     24  O        -36.0280    7.8590   49.5380 O.2    50  LYS50      -0.2867
     25  CB       -37.0420    6.6620   46.9970 C.3    50  LYS50       0.0271
     26  CG       -37.1810    7.8130   46.0190 C.3    50  LYS50       0.0035
     27  CD       -38.5580    7.7950   45.3740 C.3    50  LYS50       0.0206
     28  CE       -38.7240    8.9210   44.3700 C.3    50  LYS50       0.1093
     29  NZ       -40.1140    8.9700   43.8330 N.3    50  LYS50      -0.1314
     30  N        -45.9990   -1.2630   44.6090 N.3    75  VAL75      -0.1245
     31  CA       -44.8080   -1.2880   45.4340 C.3    75  VAL75       0.1561
     32  C        -45.1880   -0.7320   46.7980 C.2    75  VAL75       0.2260
     33  O        -45.7320    0.3640   46.9010 O.2    75  VAL75      -0.2867
     34  CB       -43.6850   -0.4330   44.8330 C.3    75  VAL75       0.0252
     35  CG1      -44.0660    1.0370   44.8880 C.3    75  VAL75       0.0019
     36  CG2      -42.3880   -0.6740   45.5840 C.3    75  VAL75       0.0019
     37  N        -38.7400    0.9640   50.1450 N.3    97  LEU97      -0.1231
     38  CA       -39.7340    0.3570   49.2740 C.3    97  LEU97       0.1693
     39  C        -39.3490   -1.0570   48.8690 C.2    97  LEU97       0.2592
     40  O        -38.1790   -1.4290   48.9230 O.2    97  LEU97      -0.2718
     41  CB       -39.9150    1.2250   48.0280 C.3    97  LEU97       0.0284
     42  CG       -40.4750    2.6290   48.2750 C.3    97  LEU97       0.0019
     43  CD1      -39.9720    3.6160   47.2330 C.3    97  LEU97       0.0001
     44  CD2      -41.9970    2.6050   48.3040 C.3    97  LEU97       0.0001
     45  N        -40.3420   -1.8430   48.4640 N.am   98  ASP98      -0.1960
     46  CA       -40.0880   -3.1690   47.9140 C.3    98  ASP98       0.1840
     47  C        -39.0420   -3.0750   46.8090 C.2    98  ASP98       0.2622
     48  O        -38.9690   -2.0750   46.0920 O.2    98  ASP98      -0.2715
     49  CB       -41.3730   -3.7720   47.3400 C.3    98  ASP98       0.1450
     50  CG       -42.3630   -4.1740   48.4130 C.2    98  ASP98       0.3671
     51  OD1      -41.9190   -4.5710   49.5100 O.co2  98  ASP98      -0.2456
     52  OD2      -43.5870   -4.0940   48.1560 O.co2  98  ASP98      -0.2456
     53  N        -38.2340   -4.1170   46.6730 N.am   99  TYR99      -0.1960
     54  CA       -37.2290   -4.1600   45.6210 C.3    99  TYR99       0.1771
     55  C        -37.6210   -5.1620   44.5460 C.2    99  TYR99       0.2619
     56  O        -37.5880   -6.3680   44.7690 O.2    99  TYR99      -0.2715
     57  CB       -35.8630   -4.5210   46.1990 C.3    99  TYR99       0.0574
     58  CG       -34.7700   -4.5950   45.1640 C.ar   99  TYR99      -0.0198
     59  CD1      -34.1290   -3.4470   44.7200 C.ar   99  TYR99      -0.0009
     60  CD2      -34.3770   -5.8130   44.6280 C.ar   99  TYR99      -0.0009
     61  CE1      -33.1260   -3.5090   43.7720 C.ar   99  TYR99       0.0417
     62  CE2      -33.3750   -5.8840   43.6790 C.ar   99  TYR99       0.0417
     63  CZ       -32.7540   -4.7300   43.2550 C.ar   99  TYR99       0.1957
     64  OH       -31.7550   -4.7960   42.3100 O.3    99  TYR99      -0.2866
     65  N        -37.9940   -4.6480   43.3800 N.am  100  VAL100     -0.1964
     66  CA       -38.3810   -5.4800   42.2510 C.3   100  VAL100      0.1712
     67  C        -37.6490   -4.9550   41.0190 C.2   100  VAL100      0.2458
     68  O        -38.0450   -3.9460   40.4400 O.2   100  VAL100     -0.2730
     69  CB       -39.9020   -5.4270   42.0320 C.3   100  VAL100      0.0289
     70  CG1      -40.3450   -6.5370   41.0960 C.3   100  VAL100      0.0023
     71  CG2      -40.6230   -5.5420   43.3680 C.3   100  VAL100      0.0023
     72  N        -36.5750   -5.6500   40.6160 N.am  101  PRO101     -0.2727
     73  CA       -35.5790   -5.1400   39.6720 C.3   101  PRO101      0.1402
     74  C        -36.0130   -5.1700   38.2050 C.2   101  PRO101      0.2269
     75  O        -35.6100   -4.3060   37.4260 O.2   101  PRO101     -0.2865
     76  CB       -34.3900   -6.0750   39.8940 C.3   101  PRO101      0.0296
     77  CG       -35.0130   -7.3670   40.3000 C.3   101  PRO101      0.0237
     78  CD       -36.2760   -7.0280   41.0460 C.3   101  PRO101      0.0939
     79  N        -43.0290   -2.6470   37.7040 N.3   153  LEU153     -0.1245
     80  CA       -42.0690   -3.6170   38.2160 C.3   153  LEU153      0.1561
     81  C        -42.6010   -5.0390   38.1070 C.2   153  LEU153      0.2260
     82  O        -43.8090   -5.2670   38.1890 O.2   153  LEU153     -0.2867
     83  CB       -41.7130   -3.2840   39.6650 C.3   153  LEU153      0.0270
     84  CG       -41.2020   -1.8550   39.8220 C.3   153  LEU153      0.0019
     85  CD1      -40.5960   -1.6580   41.1970 C.3   153  LEU153      0.0001
     86  CD2      -40.1890   -1.5240   38.7310 C.3   153  LEU153      0.0001
     87  N        -45.0960    1.4820   40.4480 N.3   164  CYS164     -0.1221
     88  CA       -44.1790    2.2010   41.3310 C.3   164  CYS164      0.1808
     89  C        -43.9850    3.6670   40.9450 C.2   164  CYS164      0.2601
     90  O        -44.5650    4.1480   39.9730 O.2   164  CYS164     -0.2717
     91  CB       -42.8190    1.4950   41.3930 C.3   164  CYS164      0.0970
     92  SG       -41.7430    1.8090   39.9700 S.3   164  CYS164     -0.0800
     93  N        -43.1600    4.3600   41.7300 N.am  165  ASP165     -0.1973
     94  CA       -42.8300    5.7740   41.5210 C.3   165  ASP165      0.1709
     95  C        -44.0440    6.6940   41.5680 C.2   165  ASP165      0.2293
     96  O        -44.6890    6.9520   40.5480 O.2   165  ASP165     -0.2864
     97  CB       -42.0700    5.9830   40.2100 C.3   165  ASP165      0.1436
     98  CG       -41.6400    7.4300   40.0160 C.2   165  ASP165      0.3671
     99  OD1      -41.8450    8.2430   40.9430 O.co2 165  ASP165     -0.2456
    100  OD2      -41.0970    7.7560   38.9390 O.co2 165  ASP165     -0.2456
@<TRIPOS>BOND
     1    75    74    2
     2    79    80    1
     3    81    82    2
     4    81    80    1
     5    74    73    1
     6    80    83    1
     7    86    84    1
     8   100    98   ar
     9    83    84    1
    10    73    76    1
    11    73    72    1
    12     4     3    2
    13    84    85    1
    14    76    77    1
    15    92    91    1
    16    90    89    2
    17    98    97    1
    18    98    99   ar
    19    97    94    1
    20    77    78    1
    21    68    67    2
    22    87    88    1
    23    96    95    2
    24    72    67   am
    25    72    78    1
    26     3     2    1
    27    89    88    1
    28    89    93   am
    29    67    66    1
    30    70    69    1
    31    88    91    1
    32     2     5    1
    33     2     1    1
    34    94    95    1
    35    94    93    1
    36     5     7    1
    37     5     6    1
    38    69    66    1
    39    69    71    1
    40    66    65    1
    41    64    63    1
    42     6     8    1
    43    63    62   ar
    44    63    61   ar
    45    65    55   am
    46    15    13    1
    47    62    60   ar
    48    61    59   ar
    49    29    28    1
    50    13    14    1
    51    13    10    1
    52    12    11    2
    53    28    27    1
    54     9    10    1
    55    55    56    2
    56    55    54    1
    57    30    31    1
    58    60    58   ar
    59    59    58   ar
    60    34    35    1
    61    34    31    1
    62    34    36    1
    63    10    11    1
    64    58    57    1
    65    27    26    1
    66    31    32    1
    67    54    57    1
    68    54    53    1
    69    26    25    1
    70    48    47    2
    71    20    17    1
    72    53    47   am
    73    32    33    2
    74    47    46    1
    75    25    22    1
    76    43    42    1
    77    49    46    1
    78    49    50    1
    79    17    16    1
    80    17    18    1
    81    22    21    1
    82    22    23    1
    83    46    45    1
    84    41    42    1
    85    41    38    1
    86    52    50   ar
    87    42    44    1
    88    50    51   ar
    89    45    39   am
    90    18    19    2
    91    23    24    2
    92    39    40    2
    93    39    38    1
    94    38    37    1
