@<TRIPOS>MOLECULE
tmp/4j73A00.pdb
 175 163 0 0 0
SMALL
GASTEIGER

@<TRIPOS>ATOM
      1  N         -2.0730    4.5290  -28.9450 N.3    14  ARG14      -0.1245
      2  CA        -1.8370    4.3700  -27.5200 C.3    14  ARG14       0.1563
      3  C         -0.6290    3.5050  -27.2290 C.2    14  ARG14       0.2260
      4  O         -0.5090    2.3870  -27.7350 O.2    14  ARG14      -0.2867
      5  CB        -3.0760    3.7690  -26.8550 C.3    14  ARG14       0.0307
      6  CG        -2.8970    3.5110  -25.3520 C.3    14  ARG14       0.0489
      7  CD        -4.1740    2.9760  -24.6930 C.3    14  ARG14       0.2205
      8  NE        -5.3020    3.8240  -25.0290 N.pl3  14  ARG14      -0.0865
      9  CZ        -6.5410    3.3800  -25.2200 C.cat  14  ARG14       0.5346
     10  NH1       -6.8200    2.0890  -25.0390 N.pl3  14  ARG14       0.1354
     11  NH2       -7.5070    4.2330  -25.5510 N.pl3  14  ARG14       0.1354
     12  N          1.3840    1.3030  -24.6950 N.3    16  LYS16      -0.1245
     13  CA         1.1270    0.4900  -23.4970 C.3    16  LYS16       0.1561
     14  C          2.3910    0.0330  -22.7880 C.2    16  LYS16       0.2260
     15  O          2.3790   -0.1620  -21.5860 O.2    16  LYS16      -0.2867
     16  CB         0.2590   -0.7320  -23.8520 C.3    16  LYS16       0.0271
     17  CG        -1.1310   -0.4180  -24.3670 C.3    16  LYS16       0.0035
     18  CD        -1.9180    0.5010  -23.4520 C.3    16  LYS16       0.0206
     19  CE        -2.2210   -0.1850  -22.1390 C.3    16  LYS16       0.1093
     20  NZ        -3.2410    0.5690  -21.3410 N.3    16  LYS16      -0.1314
     21  N         -1.1970   -0.2790  -28.5890 N.3    32  TYR32      -0.1241
     22  CA        -2.5200   -0.8860  -28.4840 C.3    32  TYR32       0.1605
     23  C         -2.9480   -1.5320  -29.8120 C.2    32  TYR32       0.2264
     24  O         -3.7320   -2.4950  -29.8170 O.2    32  TYR32      -0.2867
     25  CB        -3.5330    0.1830  -28.0510 C.3    32  TYR32       0.0534
     26  CG        -4.7830   -0.3820  -27.4100 C.ar   32  TYR32      -0.0201
     27  CD1       -4.7220   -0.8990  -26.1240 C.ar   32  TYR32      -0.0009
     28  CD2       -6.0010   -0.4220  -28.0850 C.ar   32  TYR32      -0.0009
     29  CE1       -5.8380   -1.4150  -25.5010 C.ar   32  TYR32       0.0417
     30  CE2       -7.1440   -0.9470  -27.4540 C.ar   32  TYR32       0.0417
     31  CZ        -7.0320   -1.4590  -26.1660 C.ar   32  TYR32       0.1957
     32  OH        -8.1270   -1.9950  -25.4780 O.3    32  TYR32      -0.2866
     33  N          1.0830   -5.2120  -24.6380 N.3    58  ARG58      -0.1245
     34  CA         1.2130   -4.4290  -23.3910 C.3    58  ARG58       0.1563
     35  C          2.5900   -4.4010  -22.8030 C.2    58  ARG58       0.2260
     36  O          2.8920   -3.5240  -21.9950 O.2    58  ARG58      -0.2867
     37  CB         0.2760   -4.9480  -22.2890 C.3    58  ARG58       0.0307
     38  CG        -1.1740   -4.8370  -22.6890 C.3    58  ARG58       0.0489
     39  CD        -2.1160   -5.5580  -21.7020 C.3    58  ARG58       0.2205
     40  NE        -3.4320   -5.5770  -22.3350 N.pl3  58  ARG58      -0.0865
     41  CZ        -4.2980   -4.5730  -22.2930 C.cat  58  ARG58       0.5346
     42  NH1       -4.0320   -3.4900  -21.5670 N.pl3  58  ARG58       0.1354
     43  NH2       -5.4490   -4.6660  -22.9670 N.pl3  58  ARG58       0.1354
     44  N         -1.9490   -9.5320  -26.1360 N.3    74  ASP74      -0.1239
     45  CA        -3.2550  -10.0180  -25.7020 C.3    74  ASP74       0.1674
     46  C         -3.6790  -11.2870  -26.4510 C.2    74  ASP74       0.2266
     47  O         -4.6970  -11.9010  -26.1010 O.2    74  ASP74      -0.2867
     48  CB        -4.3150   -8.9260  -25.8790 C.3    74  ASP74       0.1410
     49  CG        -4.2130   -7.8000  -24.8360 C.2    74  ASP74       0.3668
     50  OD1       -3.2800   -7.8040  -23.9890 O.co2  74  ASP74      -0.2456
     51  OD2       -5.0780   -6.8820  -24.8620 O.co2  74  ASP74      -0.2456
     52  N         -4.1190  -16.3530  -21.3490 N.3    97  ASP97      -0.1225
     53  CA        -4.8050  -15.0760  -21.1560 C.3    97  ASP97       0.1805
     54  C         -3.7740  -13.9780  -21.3960 C.2    97  ASP97       0.2597
     55  O         -2.6030  -14.2720  -21.6920 O.2    97  ASP97      -0.2718
     56  CB        -5.3970  -14.9850  -19.7350 C.3    97  ASP97       0.1424
     57  CG        -6.6180  -14.0940  -19.6590 C.2    97  ASP97       0.3668
     58  OD1       -6.7720  -13.1430  -20.4750 O.co2  97  ASP97      -0.2456
     59  OD2       -7.4530  -14.3410  -18.7600 O.co2  97  ASP97      -0.2456
     60  N         -4.1900  -12.7210  -21.2570 N.am   98  TYR98      -0.1976
     61  CA        -3.3460  -11.5770  -21.6150 C.3    98  TYR98       0.1639
     62  C         -2.0540  -11.5530  -20.8200 C.2    98  TYR98       0.2290
     63  O         -2.0300  -11.8950  -19.6300 O.2    98  TYR98      -0.2864
     64  CB        -4.0240  -10.2520  -21.3080 C.3    98  TYR98       0.0560
     65  CG        -5.2750   -9.8930  -22.0540 C.ar   98  TYR98      -0.0198
     66  CD1       -5.8500  -10.7440  -22.9920 C.ar   98  TYR98      -0.0009
     67  CD2       -5.9030   -8.6830  -21.7910 C.ar   98  TYR98      -0.0009
     68  CE1       -7.0180  -10.3660  -23.6970 C.ar   98  TYR98       0.0417
     69  CE2       -7.0490   -8.2980  -22.4730 C.ar   98  TYR98       0.0417
     70  CZ        -7.6170   -9.1540  -23.4150 C.ar   98  TYR98       0.1957
     71  OH        -8.7650   -8.8280  -24.1210 O.3    98  TYR98      -0.2866
     72  N          0.6090   -9.0610  -19.1500 N.3   100  ARG100     -0.1245
     73  CA         0.6690   -7.6780  -18.6760 C.3   100  ARG100      0.1563
     74  C          2.0740   -7.0840  -18.5640 C.2   100  ARG100      0.2260
     75  O          2.2440   -5.8780  -18.6980 O.2   100  ARG100     -0.2867
     76  CB         0.0710   -7.6190  -17.2720 C.3   100  ARG100      0.0307
     77  CG        -1.3940   -7.8950  -17.2100 C.3   100  ARG100      0.0489
     78  CD        -2.2070   -6.7080  -17.6770 C.3   100  ARG100      0.2205
     79  NE        -3.6010   -7.1090  -17.7970 N.pl3 100  ARG100     -0.0865
     80  CZ        -4.5620   -6.3420  -18.2870 C.cat 100  ARG100      0.5346
     81  NH1       -4.2940   -5.0700  -18.6300 N.pl3 100  ARG100      0.1354
     82  NH2       -5.7970   -6.8360  -18.3850 N.pl3 100  ARG100      0.1354
     83  N         -2.9000  -12.2030  -16.8340 N.3   116  ASP116     -0.1239
     84  CA        -4.2810  -12.2710  -16.3540 C.3   116  ASP116      0.1674
     85  C         -4.6980  -13.6830  -15.9050 C.2   116  ASP116      0.2266
     86  O         -5.7170  -13.8450  -15.2390 O.2   116  ASP116     -0.2867
     87  CB        -5.2530  -11.7660  -17.4180 C.3   116  ASP116      0.1410
     88  CG        -5.1830  -10.2600  -17.6090 C.2   116  ASP116      0.3668
     89  OD1       -4.2700   -9.6390  -17.0120 O.co2 116  ASP116     -0.2456
     90  OD2       -6.0490   -9.7130  -18.3450 O.co2 116  ASP116     -0.2456
     91  N         -5.4560  -10.5360  -11.7380 N.3   141  PHE141     -0.1241
     92  CA        -4.4570  -10.3120  -12.7950 C.3   141  PHE141      0.1605
     93  C         -3.1290   -9.8680  -12.1900 C.2   141  PHE141      0.2264
     94  O         -3.0800   -8.9380  -11.3690 O.2   141  PHE141     -0.2867
     95  CB        -4.8960   -9.1820  -13.7410 C.3   141  PHE141      0.0534
     96  CG        -6.2510   -9.3600  -14.3900 C.ar  141  PHE141     -0.0203
     97  CD1       -6.8740  -10.5950  -14.5100 C.ar  141  PHE141     -0.0042
     98  CD2       -6.8700   -8.2510  -14.8930 C.ar  141  PHE141     -0.0042
     99  CE1       -8.1310  -10.6910  -15.1210 C.ar  141  PHE141     -0.0003
    100  CE2       -8.1110   -8.3350  -15.5010 C.ar  141  PHE141     -0.0003
    101  CZ        -8.7340   -9.5570  -15.6180 C.ar  141  PHE141     -0.0000
    102  N         -0.2690   -7.7120  -12.6910 N.3   143  MET143     -0.1245
    103  CA        -0.0900   -6.5000  -13.4700 C.3   143  MET143      0.1570
    104  C          1.3470   -6.1030  -13.7530 C.2   143  MET143      0.2261
    105  O          1.5880   -5.3920  -14.7340 O.2   143  MET143     -0.2867
    106  CB        -0.7800   -5.3310  -12.7510 C.3   143  MET143      0.0387
    107  CG        -2.2890   -5.5560  -12.5740 C.3   143  MET143      0.0595
    108  SD        -3.2170   -5.4040  -14.1280 S.3   143  MET143     -0.1393
    109  CE        -3.0560   -3.6950  -14.4720 C.3   143  MET143      0.0692
    110  N         -3.8020   -7.1980   -8.9800 N.3   160  LEU160     -0.1245
    111  CA        -5.0860   -6.5860   -8.6310 C.3   160  LEU160      0.1561
    112  C         -5.7450   -7.1830   -7.3750 C.2   160  LEU160      0.2260
    113  O         -6.7210   -6.6150   -6.8710 O.2   160  LEU160     -0.2867
    114  CB        -6.0710   -6.6280   -9.8230 C.3   160  LEU160      0.0270
    115  CG        -5.6200   -5.8030  -11.0310 C.3   160  LEU160      0.0019
    116  CD1       -6.7630   -5.8430  -12.0600 C.3   160  LEU160      0.0001
    117  CD2       -5.2420   -4.3600  -10.6430 C.3   160  LEU160      0.0001
    118  N         -1.3190   -1.9040   -9.4360 N.3   187  ASN187     -0.1240
    119  CA        -1.0750   -1.8430  -10.8930 C.3   187  ASN187      0.1653
    120  C          0.4070   -1.9970  -11.2290 C.2   187  ASN187      0.2266
    121  O          0.7740   -2.3240  -12.3790 O.2   187  ASN187     -0.2867
    122  CB        -1.5250   -0.5020  -11.5250 C.3   187  ASN187      0.1155
    123  CG        -3.0080   -0.2750  -11.4260 C.2   187  ASN187      0.2627
    124  OD1       -3.8070   -1.2100  -11.5110 O.2   187  ASN187     -0.2716
    125  ND2       -3.3920    0.9720  -11.2490 N.am  187  ASN187     -0.0877
    126  N         -5.2260    1.9980   -8.4950 N.3   205  ASP205     -0.1239
    127  CA        -6.4350    2.7160   -8.9170 C.3   205  ASP205      0.1674
    128  C         -7.0920    3.4660   -7.7570 C.2   205  ASP205      0.2266
    129  O         -7.9570    4.3290   -7.9740 O.2   205  ASP205     -0.2867
    130  CB        -7.5020    1.7660   -9.5040 C.3   205  ASP205      0.1410
    131  CG        -7.1310    1.2000  -10.8820 C.2   205  ASP205      0.3668
    132  OD1       -6.1300    1.6380  -11.4900 O.co2 205  ASP205     -0.2456
    133  OD2       -7.8440    0.2730  -11.3400 O.co2 205  ASP205     -0.2456
    134  N         -6.7240    6.9060  -11.7410 N.3   229  ASN229     -0.1240
    135  CA        -5.8900    5.7110  -11.5650 C.3   229  ASN229      0.1653
    136  C         -4.3970    5.9890  -11.7620 C.2   229  ASN229      0.2266
    137  O         -4.0010    6.5860  -12.7670 O.2   229  ASN229     -0.2867
    138  CB        -6.2620    4.6240  -12.5620 C.3   229  ASN229      0.1155
    139  CG        -7.6850    4.1380  -12.4100 C.2   229  ASN229      0.2627
    140  OD1       -8.3240    4.3440  -11.3750 O.2   229  ASN229     -0.2716
    141  ND2       -8.1620    3.4430  -13.4190 N.am  229  ASN229     -0.0877
    142  N         -3.9280    8.1150  -15.2400 N.3   247  GLU247     -0.1245
    143  CA        -5.0170    8.3560  -16.1790 C.3   247  GLU247      0.1567
    144  C         -5.5610    9.7830  -16.0660 C.2   247  GLU247      0.2260
    145  O         -6.3900   10.2010  -16.8810 O.2   247  GLU247     -0.2867
    146  CB        -6.0990    7.2970  -15.9950 C.3   247  GLU247      0.0388
    147  CG        -5.6180    5.8960  -16.3640 C.3   247  GLU247      0.1160
    148  CD        -6.7050    4.8450  -16.1850 C.2   247  GLU247      0.3649
    149  OE1       -6.3930    3.7190  -15.7490 O.co2 247  GLU247     -0.2457
    150  OE2       -7.8670    5.1510  -16.5300 O.co2 247  GLU247     -0.2457
    151  N         -4.1280   10.0770  -21.3140 N.3   271  ARG271     -0.1245
    152  CA        -3.8120    9.2010  -20.1840 C.3   271  ARG271      0.1563
    153  C         -2.4190    8.6070  -20.2750 C.2   271  ARG271      0.2260
    154  O         -1.9980    8.2270  -21.3730 O.2   271  ARG271     -0.2867
    155  CB        -4.8510    8.0790  -20.0750 C.3   271  ARG271      0.0307
    156  CG        -6.2580    8.5950  -19.7300 C.3   271  ARG271      0.0489
    157  CD        -7.3220    7.4890  -19.8080 C.3   271  ARG271      0.2205
    158  NE        -7.4750    7.0050  -21.1800 N.pl3 271  ARG271     -0.0865
    159  CZ        -8.3650    6.0960  -21.5590 C.cat 271  ARG271      0.5346
    160  NH1       -9.2170    5.6020  -20.6780 N.pl3 271  ARG271      0.1354
    161  NH2       -8.4160    5.6960  -22.8220 N.pl3 271  ARG271      0.1354
    162  N          0.2950    5.6260  -19.3730 N.3   273  TRP273     -0.1241
    163  CA         0.2220    4.1760  -19.1590 C.3   273  TRP273      0.1605
    164  C          1.4810    3.4730  -18.7130 C.2   273  TRP273      0.2264
    165  O          1.4180    2.4610  -18.0100 O.2   273  TRP273     -0.2867
    166  CB        -0.2670    3.4920  -20.4390 C.3   273  TRP273      0.0550
    167  CG        -1.6260    3.9390  -20.8530 C.ar  273  TRP273      0.0003
    168  CD1       -1.9450    4.6790  -21.9660 C.ar  273  TRP273      0.0946
    169  CD2       -2.8640    3.7160  -20.1500 C.ar  273  TRP273      0.0152
    170  NE1       -3.2960    4.9160  -21.9940 N.ar  273  TRP273     -0.2442
    171  CE2       -3.8820    4.3290  -20.9010 C.ar  273  TRP273      0.0810
    172  CE3       -3.2030    3.0560  -18.9580 C.ar  273  TRP273      0.0012
    173  CZ2       -5.2260    4.3060  -20.5090 C.ar  273  TRP273      0.0191
    174  CZ3       -4.5490    3.0290  -18.5610 C.ar  273  TRP273      0.0001
    175  CH2       -5.5420    3.6540  -19.3400 C.ar  273  TRP273      0.0015
@<TRIPOS>BOND
     1    24    23    2
     2    23    22    1
     3     1     2    1
     4    21    22    1
     5    22    25    1
     6    28    30   ar
     7    28    26   ar
     8    25    26    1
     9     4     3    2
    10     2     3    1
    11     2     5    1
    12    30    31   ar
    13    26    27   ar
    14     5     6    1
    15    46    47    2
    16    46    45    1
    17    31    29   ar
    18    31    32    1
    19    44    45    1
    20    27    29   ar
    21    48    45    1
    22    48    49    1
    23    11     9    1
    24     6     7    1
    25     9    10    1
    26     9     8    2
    27     8     7    1
    28    51    49   ar
    29    49    50   ar
    30    12    13    1
    31    33    34    1
    32    17    16    1
    33    17    18    1
    34    71    70    1
    35    16    13    1
    36    68    70   ar
    37    68    66   ar
    38    13    14    1
    39    18    19    1
    40    70    69   ar
    41    34    35    1
    42    34    37    1
    43    66    65   ar
    44    43    41    1
    45   161   159    1
    46    35    36    2
    47    14    15    2
    48    38    37    1
    49    38    39    1
    50    69    67   ar
    51    40    41    2
    52    40    39    1
    53    41    42    1
    54    19    20    1
    55    65    67   ar
    56    65    64    1
    57   170   168   ar
    58   170   171   ar
    59   168   167   ar
    60    55    54    2
    61    61    64    1
    62    61    60    1
    63    61    62    1
    64   159   158    2
    65   159   160    1
    66    54    60   am
    67    54    53    1
    68   154   153    2
    69    52    53    1
    70   151   152    1
    71   158   157    1
    72    53    56    1
    73   171   173   ar
    74   171   169   ar
    75   167   166    1
    76   167   169   ar
    77    62    63    2
    78   173   175   ar
    79    58    57   ar
    80   166   163    1
    81   153   152    1
    82   152   155    1
    83   169   172   ar
    84   155   156    1
    85   157   156    1
    86    56    57    1
    87    57    59   ar
    88   162   163    1
    89   175   174   ar
    90   163   164    1
    91    72    73    1
    92   172   174   ar
    93   164   165    2
    94    75    74    2
    95    73    74    1
    96    73    76    1
    97    81    80    1
    98    82    80    1
    99    90    88   ar
   100    80    79    2
   101    79    78    1
   102    78    77    1
   103    88    87    1
   104    88    89   ar
   105    87    84    1
   106    76    77    1
   107   145   144    2
   108    83    84    1
   109   150   148   ar
   110   147   148    1
   111   147   146    1
   112    84    85    1
   113   148   149   ar
   114   143   144    1
   115   143   146    1
   116   143   142    1
   117    85    86    2
   118   101   100   ar
   119   101    99   ar
   120   100    98   ar
   121    99    97   ar
   122    98    96   ar
   123   105   104    2
   124    97    96   ar
   125   109   108    1
   126    96    95    1
   127   108   107    1
   128   104   103    1
   129    95    92    1
   130   103   106    1
   131   103   102    1
   132   141   139   am
   133    92    93    1
   134    92    91    1
   135   137   136    2
   136   106   107    1
   137   138   139    1
   138   138   135    1
   139   139   140    2
   140   121   120    2
   141    93    94    2
   142   116   115    1
   143   136   135    1
   144   134   135    1
   145   122   123    1
   146   122   119    1
   147   124   123    2
   148   132   131   ar
   149   123   125   am
   150   133   131   ar
   151   120   119    1
   152   115   117    1
   153   115   114    1
   154   119   118    1
   155   131   130    1
   156   114   111    1
   157   130   127    1
   158   110   111    1
   159   127   126    1
   160   127   128    1
   161   111   112    1
   162   129   128    2
   163   112   113    2
