@<TRIPOS>MOLECULE
tmp/4j74A00.pdb
 120 116 0 0 0
SMALL
GASTEIGER

@<TRIPOS>ATOM
      1  N         -8.8100   -9.7490   -5.4040 N.3    31  LEU31      -0.1231
      2  CA        -9.6680   -9.9040   -4.2360 C.3    31  LEU31       0.1693
      3  C        -10.0160   -8.5540   -3.6240 C.2    31  LEU31       0.2592
      4  O        -11.1450   -8.3380   -3.1810 O.2    31  LEU31      -0.2718
      5  CB        -8.9820  -10.7940   -3.2010 C.3    31  LEU31       0.0284
      6  CG        -8.9650  -12.2660   -3.6190 C.3    31  LEU31       0.0019
      7  CD1       -7.8550  -13.0100   -2.8940 C.3    31  LEU31       0.0001
      8  CD2      -10.3240  -12.8920   -3.3340 C.3    31  LEU31       0.0001
      9  N         -9.0590   -7.6350   -3.6100 N.am   32  TYR32      -0.1976
     10  CA        -9.3280   -6.3190   -3.0520 C.3    32  TYR32       0.1639
     11  C        -10.4520   -5.6320   -3.8190 C.2    32  TYR32       0.2290
     12  O        -11.4230   -5.1640   -3.2250 O.2    32  TYR32      -0.2864
     13  CB        -8.0790   -5.4370   -3.0960 C.3    32  TYR32       0.0560
     14  CG        -8.3560   -4.0300   -2.6170 C.ar   32  TYR32      -0.0198
     15  CD1       -8.5060   -3.7540   -1.2630 C.ar   32  TYR32      -0.0009
     16  CD2       -8.5330   -2.9900   -3.5180 C.ar   32  TYR32      -0.0009
     17  CE1       -8.8330   -2.4840   -0.8220 C.ar   32  TYR32       0.0417
     18  CE2       -8.8590   -1.7150   -3.0850 C.ar   32  TYR32       0.0417
     19  CZ        -9.0110   -1.4700   -1.7370 C.ar   32  TYR32       0.1957
     20  OH        -9.3660   -0.2100   -1.3010 O.3    32  TYR32      -0.2866
     21  N        -12.6950   -6.9180   -5.8270 N.3    34  LEU34      -0.1231
     22  CA       -13.9580   -7.6260   -5.6540 C.3    34  LEU34       0.1693
     23  C        -14.6080   -7.2770   -4.3170 C.2    34  LEU34       0.2592
     24  O        -15.8280   -7.1130   -4.2280 O.2    34  LEU34      -0.2718
     25  CB       -13.7380   -9.1380   -5.7470 C.3    34  LEU34       0.0284
     26  CG       -13.5910   -9.7060   -7.1620 C.3    34  LEU34       0.0019
     27  CD1      -13.0030  -11.1020   -7.0830 C.3    34  LEU34       0.0001
     28  CD2      -14.9430   -9.7290   -7.8620 C.3    34  LEU34       0.0001
     29  N        -13.7930   -7.1660   -3.2750 N.am   35  GLY35      -0.1957
     30  CA       -14.3160   -6.7640   -1.9830 C.3    35  GLY35       0.1869
     31  C        -14.9050   -5.3640   -2.0070 C.2    35  GLY35       0.2309
     32  O        -15.9070   -5.0910   -1.3440 O.2    35  GLY35      -0.2863
     33  N        -18.3460   -5.6240   -3.7670 N.3    38  ILE38      -0.1245
     34  CA       -19.3380   -6.2510   -2.8980 C.3    38  ILE38       0.1561
     35  C        -19.8130   -5.2800   -1.8230 C.2    38  ILE38       0.2260
     36  O        -21.0140   -5.1620   -1.5480 O.2    38  ILE38      -0.2867
     37  CB       -18.7370   -7.5130   -2.2500 C.3    38  ILE38       0.0252
     38  CG1      -18.5400   -8.5800   -3.3290 C.3    38  ILE38       0.0019
     39  CG2      -19.6120   -8.0020   -1.1030 C.3    38  ILE38       0.0019
     40  CD1      -17.6660   -9.7290   -2.8980 C.3    38  ILE38       0.0001
     41  N        -23.5950   -7.7670    1.2400 N.3    44  TYR44      -0.1241
     42  CA       -23.5090   -8.5490    2.4690 C.3    44  TYR44       0.1605
     43  C        -24.8700   -8.7160    3.1330 C.2    44  TYR44       0.2264
     44  O        -25.6790   -7.7850    3.1690 O.2    44  TYR44      -0.2867
     45  CB       -22.5510   -7.8940    3.4630 C.3    44  TYR44       0.0534
     46  CG       -21.0990   -8.0070    3.0740 C.ar   44  TYR44      -0.0201
     47  CD1      -20.3930   -6.8940    2.6340 C.ar   44  TYR44      -0.0009
     48  CD2      -20.4350   -9.2250    3.1370 C.ar   44  TYR44      -0.0009
     49  CE1      -19.0640   -6.9920    2.2670 C.ar   44  TYR44       0.0417
     50  CE2      -19.1070   -9.3330    2.7730 C.ar   44  TYR44       0.0417
     51  CZ       -18.4280   -8.2140    2.3390 C.ar   44  TYR44       0.1957
     52  OH       -17.1040   -8.3330    1.9770 O.3    44  TYR44      -0.2866
     53  N        -22.9990  -11.5370    8.4050 N.3    49  GLN49      -0.1245
     54  CA       -22.1680  -10.6730    7.5800 C.3    49  GLN49       0.1566
     55  C        -21.0600  -11.3910    6.8160 C.2    49  GLN49       0.2260
     56  O        -20.3520  -10.7660    6.0260 O.2    49  GLN49      -0.2867
     57  CB       -21.5750   -9.5430    8.4250 C.3    49  GLN49       0.0367
     58  CG       -22.6080   -8.5140    8.8640 C.3    49  GLN49       0.0905
     59  CD       -21.9860   -7.1990    9.2930 C.2    49  GLN49       0.2608
     60  OE1      -22.5330   -6.4890   10.1360 O.2    49  GLN49      -0.2717
     61  NE2      -20.8400   -6.8660    8.7100 N.am   49  GLN49      -0.0878
     62  N        -19.7900  -15.5050  -10.9210 N.3    63  PHE63      -0.1241
     63  CA       -19.2550  -16.5530  -10.0550 C.3    63  PHE63       0.1605
     64  C        -19.9880  -17.8830  -10.2150 C.2    63  PHE63       0.2264
     65  O        -19.4560  -18.9320   -9.8590 O.2    63  PHE63      -0.2867
     66  CB       -19.3320  -16.1210   -8.5870 C.3    63  PHE63       0.0534
     67  CG       -18.1570  -15.3060   -8.1190 C.ar   63  PHE63      -0.0203
     68  CD1      -17.1720  -14.8920   -9.0020 C.ar   63  PHE63      -0.0042
     69  CD2      -18.0340  -14.9690   -6.7810 C.ar   63  PHE63      -0.0042
     70  CE1      -16.0840  -14.1570   -8.5540 C.ar   63  PHE63      -0.0003
     71  CE2      -16.9540  -14.2380   -6.3290 C.ar   63  PHE63      -0.0003
     72  CZ       -15.9780  -13.8310   -7.2180 C.ar   63  PHE63      -0.0000
     73  N        -22.5070  -16.9040   -1.4690 N.3    68  PHE68      -0.1241
     74  CA       -21.3070  -17.5520   -0.9720 C.3    68  PHE68       0.1605
     75  C        -20.8600  -16.9150    0.3310 C.2    68  PHE68       0.2264
     76  O        -21.3000  -15.8170    0.6930 O.2    68  PHE68      -0.2867
     77  CB       -20.1780  -17.5030   -2.0140 C.3    68  PHE68       0.0534
     78  CG       -19.6330  -16.1240   -2.2810 C.ar   68  PHE68      -0.0203
     79  CD1      -18.5150  -15.6580   -1.6020 C.ar   68  PHE68      -0.0042
     80  CD2      -20.1990  -15.3240   -3.2570 C.ar   68  PHE68      -0.0042
     81  CE1      -17.9720  -14.4180   -1.8960 C.ar   68  PHE68      -0.0003
     82  CE2      -19.6600  -14.0870   -3.5550 C.ar   68  PHE68      -0.0003
     83  CZ       -18.5440  -13.6350   -2.8740 C.ar   68  PHE68      -0.0000
     84  N        -17.7180  -15.4760    2.6780 N.3    70  VAL70      -0.1245
     85  CA       -16.3650  -14.9340    2.5890 C.3    70  VAL70       0.1561
     86  C        -15.3680  -15.8000    3.3450 C.2    70  VAL70       0.2260
     87  O        -14.1560  -15.6020    3.2340 O.2    70  VAL70      -0.2867
     88  CB       -16.2780  -13.5060    3.1590 C.3    70  VAL70       0.0252
     89  CG1      -17.2140  -12.5870    2.3960 C.3    70  VAL70       0.0019
     90  CG2      -16.6140  -13.5140    4.6380 C.3    70  VAL70       0.0019
     91  N        -12.6070  -19.7420    1.4390 N.3    73  HIS73      -0.1241
     92  CA       -11.5930  -19.1340    0.5870 C.3    73  HIS73       0.1621
     93  C        -11.2150  -19.9680   -0.6300 C.2    73  HIS73       0.2264
     94  O        -10.9830  -19.4250   -1.7090 O.2    73  HIS73      -0.2867
     95  CB       -10.3460  -18.8240    1.4150 C.3    73  HIS73       0.0745
     96  CG       -10.5500  -17.7220    2.4070 C.ar   73  HIS73       0.0817
     97  ND1       -9.5140  -16.9660    2.9100 N.ar   73  HIS73      -0.2268
     98  CD2      -11.6790  -17.2280    2.9670 C.ar   73  HIS73       0.1154
     99  CE1       -9.9940  -16.0530    3.7350 C.ar   73  HIS73       0.1986
    100  NE2      -11.3070  -16.1900    3.7860 N.ar   73  HIS73      -0.2212
    101  N        -13.8460  -19.3490   -3.2150 N.3    76  ILE76      -0.1231
    102  CA       -13.7200  -18.0440   -3.8470 C.3    76  ILE76       0.1692
    103  C        -12.5900  -18.0130   -4.8750 C.2    76  ILE76       0.2592
    104  O        -12.7550  -17.4760   -5.9760 O.2    76  ILE76      -0.2718
    105  CB       -13.5000  -16.9440   -2.7870 C.3    76  ILE76       0.0266
    106  CG1      -14.7980  -16.7270   -2.0040 C.3    76  ILE76       0.0019
    107  CG2      -13.0340  -15.6570   -3.4470 C.3    76  ILE76       0.0020
    108  CD1      -14.6350  -15.8830   -0.7590 C.3    76  ILE76       0.0001
    109  N        -11.4490  -18.6010   -4.5300 N.am   77  TYR77      -0.1976
    110  CA       -10.3520  -18.7080   -5.4900 C.3    77  TYR77       0.1639
    111  C        -10.7960  -19.4620   -6.7450 C.2    77  TYR77       0.2290
    112  O        -10.4590  -19.0690   -7.8620 O.2    77  TYR77      -0.2864
    113  CB        -9.1410  -19.4030   -4.8460 C.3    77  TYR77       0.0560
    114  CG        -8.1540  -18.4420   -4.2200 C.ar   77  TYR77      -0.0198
    115  CD1       -8.4820  -17.7140   -3.0850 C.ar   77  TYR77      -0.0009
    116  CD2       -6.9040  -18.2290   -4.7910 C.ar   77  TYR77      -0.0009
    117  CE1       -7.5950  -16.8010   -2.5400 C.ar   77  TYR77       0.0417
    118  CE2       -6.0160  -17.3180   -4.2550 C.ar   77  TYR77       0.0417
    119  CZ        -6.3640  -16.6060   -3.1330 C.ar   77  TYR77       0.1957
    120  OH        -5.4770  -15.6880   -2.6130 O.3    77  TYR77      -0.2866
@<TRIPOS>BOND
     1    62    63    1
     2    64    63    1
     3    64    65    2
     4    63    66    1
     5    68    70   ar
     6    68    67   ar
     7    66    67    1
     8    70    72   ar
     9    67    69   ar
    10    28    26    1
    11   112   111    2
    12    72    71   ar
    13    26    27    1
    14    26    25    1
    15    69    71   ar
    16   111   110    1
    17   104   103    2
    18    21    22    1
    19    25    22    1
    20    22    23    1
    21   110   113    1
    22   110   109    1
    23     1     2    1
    24   103   109   am
    25   103   102    1
    26   113   114    1
    27   116   118   ar
    28   116   114   ar
    29    23    24    2
    30    23    29   am
    31   118   119   ar
    32     2     3    1
    33     2     5    1
    34   114   115   ar
    35   102   101    1
    36   102   105    1
    37    11    12    2
    38    11    10    1
    39    33    34    1
    40     3     9   am
    41     3     4    2
    42     6     8    1
    43     6     5    1
    44     6     7    1
    45     9    10    1
    46    82    80   ar
    47    82    83   ar
    48    16    18   ar
    49    16    14   ar
    50   107   105    1
    51    38    40    1
    52    38    37    1
    53    29    30    1
    54    80    78   ar
    55   119   120    1
    56   119   117   ar
    57    13    10    1
    58    13    14    1
    59    18    19   ar
    60   115   117   ar
    61    34    37    1
    62    34    35    1
    63    83    81   ar
    64   105   106    1
    65    14    15   ar
    66    78    77    1
    67    78    79   ar
    68    37    39    1
    69    77    74    1
    70    31    30    1
    71    31    32    2
    72   106   108    1
    73    81    79   ar
    74    35    36    2
    75    19    20    1
    76    19    17   ar
    77    94    93    2
    78    73    74    1
    79    15    17   ar
    80    74    75    1
    81    93    92    1
    82    75    76    2
    83    92    95    1
    84    92    91    1
    85    41    42    1
    86    95    96    1
    87    52    51    1
    88    49    51   ar
    89    49    47   ar
    90    51    50   ar
    91    89    88    1
    92    96    97   ar
    93    96    98   ar
    94    42    43    1
    95    42    45    1
    96    85    84    1
    97    85    88    1
    98    85    86    1
    99    47    46   ar
   100    50    48   ar
   101    97    99   ar
   102    98   100   ar
   103    46    48   ar
   104    46    45    1
   105    43    44    2
   106    88    90    1
   107    87    86    2
   108    99   100   ar
   109    56    55    2
   110    55    54    1
   111    54    53    1
   112    54    57    1
   113    57    58    1
   114    61    59   am
   115    58    59    1
   116    59    60    2
