@<TRIPOS>MOLECULE
tmp/4j77B00.pdb
 194 182 0 0 0
SMALL
GASTEIGER

@<TRIPOS>ATOM
      1  N        -40.1110   -9.2620  -30.1410 N.3    14  ARG14      -0.1245
      2  CA       -41.3130   -8.8330  -30.8750 C.3    14  ARG14       0.1563
      3  C        -42.6200   -9.2530  -30.1810 C.2    14  ARG14       0.2260
      4  O        -42.8440  -10.4390  -29.9330 O.2    14  ARG14      -0.2867
      5  CB       -41.2680   -9.3850  -32.3060 C.3    14  ARG14       0.0307
      6  CG       -42.4280   -8.9300  -33.1880 C.3    14  ARG14       0.0489
      7  CD       -42.3290   -9.5320  -34.6080 C.3    14  ARG14       0.2205
      8  NE       -41.0530   -9.1500  -35.2020 N.pl3  14  ARG14      -0.0865
      9  CZ       -40.3100   -9.9300  -35.9820 C.cat  14  ARG14       0.5346
     10  NH1      -40.7280  -11.1360  -36.3250 N.pl3  14  ARG14       0.1354
     11  NH2      -39.1530   -9.4830  -36.4350 N.pl3  14  ARG14       0.1354
     12  N        -46.3610  -10.0170  -30.3870 N.3    16  LYS16      -0.1245
     13  CA       -47.3270  -10.4170  -31.3820 C.3    16  LYS16       0.1561
     14  C        -48.7650  -10.3800  -30.8430 C.2    16  LYS16       0.2260
     15  O        -49.7140  -10.1440  -31.5990 O.2    16  LYS16      -0.2867
     16  CB       -46.9710  -11.8270  -31.9070 C.3    16  LYS16       0.0271
     17  CG       -45.6060  -11.9400  -32.5880 C.3    16  LYS16       0.0035
     18  CD       -45.5490  -11.0300  -33.8090 C.3    16  LYS16       0.0206
     19  CE       -46.4970  -11.4770  -34.8820 C.3    16  LYS16       0.1093
     20  NZ       -46.3200  -10.7380  -36.1940 N.3    16  LYS16      -0.1314
     21  N        -42.6710  -13.2780  -30.0280 N.3    32  TYR32      -0.1241
     22  CA       -42.1780  -14.0950  -31.1300 C.3    32  TYR32       0.1605
     23  C        -41.1260  -15.0920  -30.6320 C.2    32  TYR32       0.2264
     24  O        -40.8690  -16.1150  -31.2790 O.2    32  TYR32      -0.2867
     25  CB       -41.5440  -13.1550  -32.1700 C.3    32  TYR32       0.0534
     26  CG       -41.3700  -13.7550  -33.5370 C.ar   32  TYR32      -0.0201
     27  CD1      -42.3990  -13.6840  -34.4650 C.ar   32  TYR32      -0.0009
     28  CD2      -40.1760  -14.3600  -33.9060 C.ar   32  TYR32      -0.0009
     29  CE1      -42.2480  -14.2180  -35.7590 C.ar   32  TYR32       0.0417
     30  CE2      -40.0200  -14.9050  -35.2060 C.ar   32  TYR32       0.0417
     31  CZ       -41.0700  -14.8100  -36.1100 C.ar   32  TYR32       0.1957
     32  OH       -40.9490  -15.3470  -37.3800 O.3    32  TYR32      -0.2866
     33  N        -48.3290  -16.1320  -31.1230 N.3    58  ARG58      -0.1245
     34  CA       -49.0480  -15.0150  -31.7890 C.3    58  ARG58       0.1563
     35  C        -50.3120  -14.5320  -31.1050 C.2    58  ARG58       0.2260
     36  O        -50.7940  -13.4440  -31.4040 O.2    58  ARG58      -0.2867
     37  CB       -49.3810  -15.3440  -33.2420 C.3    58  ARG58       0.0307
     38  CG       -48.1500  -15.5700  -34.1040 C.3    58  ARG58       0.0489
     39  CD       -48.5370  -16.0360  -35.5180 C.3    58  ARG58       0.2205
     40  NE       -47.3340  -16.5360  -36.1630 N.pl3  58  ARG58      -0.0865
     41  CZ       -46.4770  -15.7880  -36.8450 C.cat  58  ARG58       0.5346
     42  NH1      -46.7280  -14.5030  -37.0620 N.pl3  58  ARG58       0.1354
     43  NH2      -45.3790  -16.3420  -37.3490 N.pl3  58  ARG58       0.1354
     44  N        -51.3990  -26.3020  -37.9490 N.3    97  ASP97      -0.1225
     45  CA       -50.6600  -25.1890  -38.5500 C.3    97  ASP97       0.1805
     46  C        -50.7500  -23.9990  -37.5980 C.2    97  ASP97       0.2597
     47  O        -51.4170  -24.0900  -36.5760 O.2    97  ASP97      -0.2718
     48  CB       -51.2740  -24.8040  -39.8910 C.3    97  ASP97       0.1424
     49  CG       -50.2640  -24.1650  -40.8360 C.2    97  ASP97       0.3668
     50  OD1      -50.4850  -24.2530  -42.0690 O.co2  97  ASP97      -0.2456
     51  OD2      -49.2590  -23.5860  -40.3560 O.co2  97  ASP97      -0.2456
     52  N        -50.0840  -22.8920  -37.9290 N.am   98  TYR98      -0.1976
     53  CA       -49.9880  -21.7670  -36.9860 C.3    98  TYR98       0.1639
     54  C        -51.3400  -21.3120  -36.4330 C.2    98  TYR98       0.2290
     55  O        -52.3600  -21.3480  -37.1280 O.2    98  TYR98      -0.2864
     56  CB       -49.3090  -20.5470  -37.6230 C.3    98  TYR98       0.0560
     57  CG       -47.8540  -20.7110  -38.0730 C.ar   98  TYR98      -0.0198
     58  CD1      -47.1880  -19.6490  -38.6850 C.ar   98  TYR98      -0.0009
     59  CD2      -47.1490  -21.9100  -37.8910 C.ar   98  TYR98      -0.0009
     60  CE1      -45.8630  -19.7740  -39.1190 C.ar   98  TYR98       0.0417
     61  CE2      -45.8170  -22.0440  -38.3250 C.ar   98  TYR98       0.0417
     62  CZ       -45.1820  -20.9660  -38.9290 C.ar   98  TYR98       0.1957
     63  OH       -43.8670  -21.0650  -39.3520 O.3    98  TYR98      -0.2866
     64  N        -53.2630  -17.9430  -35.3080 N.3   100  ARG100     -0.1245
     65  CA       -53.0920  -16.5040  -35.4910 C.3   100  ARG100      0.1563
     66  C        -53.8560  -15.7120  -34.4580 C.2   100  ARG100      0.2260
     67  O        -53.5160  -14.5820  -34.1480 O.2   100  ARG100     -0.2867
     68  CB       -53.5900  -16.0860  -36.8760 C.3   100  ARG100      0.0307
     69  CG       -52.8430  -16.7010  -38.0200 C.3   100  ARG100      0.0489
     70  CD       -51.4900  -16.0020  -38.3000 C.3   100  ARG100      0.2205
     71  NE       -50.7890  -16.6450  -39.4150 N.pl3 100  ARG100     -0.0865
     72  CZ       -49.6290  -16.1900  -39.8710 C.cat 100  ARG100      0.5346
     73  NH1      -49.0950  -15.1050  -39.3060 N.pl3 100  ARG100      0.1354
     74  NH2      -49.0230  -16.7880  -40.8730 N.pl3 100  ARG100      0.1354
     75  N        -53.8140  -20.8890  -39.6570 N.3   116  ASP116     -0.1239
     76  CA       -53.3720  -21.0220  -41.0360 C.3   116  ASP116      0.1674
     77  C        -53.9730  -22.2690  -41.6890 C.2   116  ASP116      0.2266
     78  O        -53.8590  -22.4410  -42.9010 O.2   116  ASP116     -0.2867
     79  CB       -51.8300  -21.0710  -41.1130 C.3   116  ASP116      0.1410
     80  CG       -51.1740  -19.7280  -40.8350 C.2   116  ASP116      0.3668
     81  OD1      -51.8830  -18.8150  -40.3790 O.co2 116  ASP116     -0.2456
     82  OD2      -49.9450  -19.5870  -41.0690 O.co2 116  ASP116     -0.2456
     83  N        -57.7860  -19.1720  -47.1720 N.3   140  HIS140     -0.1226
     84  CA       -56.4040  -18.8200  -46.8720 C.3   140  HIS140      0.1752
     85  C        -56.3470  -18.6480  -45.3450 C.2   140  HIS140      0.2596
     86  O        -57.3320  -18.9370  -44.6750 O.2   140  HIS140     -0.2718
     87  CB       -55.9880  -17.5480  -47.6060 C.3   140  HIS140      0.0759
     88  CG       -54.5100  -17.4210  -47.8410 C.ar  140  HIS140      0.0818
     89  ND1      -53.5570  -17.8520  -46.9410 N.ar  140  HIS140     -0.2268
     90  CD2      -53.8230  -16.8890  -48.8820 C.ar  140  HIS140      0.1154
     91  CE1      -52.3540  -17.5890  -47.4130 C.ar  140  HIS140      0.1986
     92  NE2      -52.4860  -17.0020  -48.5870 N.ar  140  HIS140     -0.2212
     93  N        -55.2180  -18.1870  -44.8070 N.am  141  PHE141     -0.1976
     94  CA       -55.0080  -18.1650  -43.3570 C.3   141  PHE141      0.1639
     95  C        -56.0660  -17.3460  -42.6610 C.2   141  PHE141      0.2290
     96  O        -56.3630  -16.2380  -43.0990 O.2   141  PHE141     -0.2864
     97  CB       -53.6880  -17.4880  -42.9820 C.3   141  PHE141      0.0560
     98  CG       -52.4710  -18.0850  -43.6040 C.ar  141  PHE141     -0.0200
     99  CD1      -51.2780  -17.3750  -43.5820 C.ar  141  PHE141     -0.0042
    100  CD2      -52.4860  -19.3370  -44.1740 C.ar  141  PHE141     -0.0042
    101  CE1      -50.1210  -17.8950  -44.1470 C.ar  141  PHE141     -0.0003
    102  CE2      -51.3230  -19.8660  -44.7470 C.ar  141  PHE141     -0.0003
    103  CZ       -50.1390  -19.1370  -44.7220 C.ar  141  PHE141     -0.0000
    104  N        -56.7320  -14.9440  -39.9600 N.3   143  MET143     -0.1245
    105  CA       -55.8330  -14.0330  -39.2760 C.3   143  MET143      0.1570
    106  C        -56.3930  -13.4610  -37.9890 C.2   143  MET143      0.2261
    107  O        -55.6350  -13.0050  -37.1280 O.2   143  MET143     -0.2867
    108  CB       -55.4750  -12.8830  -40.2150 C.3   143  MET143      0.0387
    109  CG       -54.7000  -13.3310  -41.4520 C.3   143  MET143      0.0595
    110  SD       -53.0330  -13.8500  -41.0270 S.3   143  MET143     -0.1393
    111  CE       -52.4080  -12.3020  -40.3910 C.3   143  MET143      0.0692
    112  N        -56.9640  -14.0130  -45.1190 N.3   160  LEU160     -0.1245
    113  CA       -56.0980  -13.5730  -46.2060 C.3   160  LEU160      0.1561
    114  C        -56.7690  -13.8530  -47.5370 C.2   160  LEU160      0.2260
    115  O        -56.2240  -13.5170  -48.5820 O.2   160  LEU160     -0.2867
    116  CB       -54.7100  -14.2370  -46.1520 C.3   160  LEU160      0.0270
    117  CG       -53.8430  -13.7640  -44.9890 C.3   160  LEU160      0.0019
    118  CD1      -52.3930  -14.2910  -45.0830 C.3   160  LEU160      0.0001
    119  CD2      -53.8450  -12.2550  -44.8830 C.3   160  LEU160      0.0001
    120  N        -55.1280   -7.6990  -50.6730 N.3   184  ARG184     -0.1245
    121  CA       -53.9470   -8.3470  -50.1270 C.3   184  ARG184      0.1563
    122  C        -54.3250   -9.1250  -48.8690 C.2   184  ARG184      0.2260
    123  O        -53.4600   -9.6760  -48.1910 O.2   184  ARG184     -0.2867
    124  CB       -52.8220   -7.3380  -49.8600 C.3   184  ARG184      0.0307
    125  CG       -52.2500   -6.6810  -51.1260 C.3   184  ARG184      0.0489
    126  CD       -51.1040   -5.7150  -50.8060 C.3   184  ARG184      0.2205
    127  NE       -50.6090   -5.0000  -51.9850 N.pl3 184  ARG184     -0.0865
    128  CZ       -49.7470   -5.5190  -52.8570 C.cat 184  ARG184      0.5346
    129  NH1      -49.2990   -6.7560  -52.6820 N.pl3 184  ARG184      0.1354
    130  NH2      -49.3300   -4.8110  -53.9030 N.pl3 184  ARG184      0.1354
    131  N        -56.1230   -8.6120  -42.2700 N.3   187  ASN187     -0.1240
    132  CA       -55.3060   -8.9980  -41.1270 C.3   187  ASN187      0.1653
    133  C        -56.1130   -8.9930  -39.8340 C.2   187  ASN187      0.2266
    134  O        -55.7400   -9.6740  -38.8500 O.2   187  ASN187     -0.2867
    135  CB       -54.1170   -8.0340  -40.9670 C.3   187  ASN187      0.1155
    136  CG       -53.2070   -7.9930  -42.2170 C.2   187  ASN187      0.2627
    137  OD1      -52.9410   -9.0210  -42.8300 O.2   187  ASN187     -0.2716
    138  ND2      -52.7400   -6.8010  -42.5850 N.am  187  ASN187     -0.0877
    139  N        -53.0240   -5.4740  -45.5050 N.3   205  ASP205     -0.1239
    140  CA       -51.7250   -5.1990  -46.1110 C.3   205  ASP205      0.1674
    141  C        -51.8750   -4.2490  -47.3010 C.2   205  ASP205      0.2266
    142  O        -50.8940   -3.7080  -47.7820 O.2   205  ASP205     -0.2867
    143  CB       -51.0620   -6.4790  -46.6310 C.3   205  ASP205      0.1410
    144  CG       -50.4480   -7.3260  -45.5490 C.2   205  ASP205      0.3668
    145  OD1      -50.5100   -6.9640  -44.3440 O.co2 205  ASP205     -0.2456
    146  OD2      -49.8770   -8.3840  -45.9150 O.co2 205  ASP205     -0.2456
    147  N        -48.1480   -2.2330  -44.2820 N.3   229  ASN229     -0.1240
    148  CA       -49.2210   -3.1310  -43.8570 C.3   229  ASN229      0.1653
    149  C        -49.9380   -2.6500  -42.6070 C.2   229  ASN229      0.2266
    150  O        -49.2910   -2.2370  -41.6400 O.2   229  ASN229     -0.2867
    151  CB       -48.6590   -4.5210  -43.6020 C.3   229  ASN229      0.1155
    152  CG       -48.0480   -5.1310  -44.8330 C.2   229  ASN229      0.2627
    153  OD1      -48.3970   -4.7690  -45.9450 O.2   229  ASN229     -0.2716
    154  ND2      -47.1420   -6.0770  -44.6420 N.am  229  ASN229     -0.0877
    155  N        -51.7540   -3.6260  -39.4010 N.3   231  SER231     -0.1217
    156  CA       -51.8320   -4.8570  -38.6560 C.3   231  SER231      0.1889
    157  C        -53.1560   -4.9820  -37.9180 C.2   231  SER231      0.2288
    158  O        -53.6160   -6.0940  -37.6310 O.2   231  SER231     -0.2866
    159  CB       -50.6920   -4.9130  -37.6320 C.3   231  SER231      0.2089
    160  OG       -49.4500   -4.6360  -38.2280 O.3   231  SER231     -0.2183
    161  N        -47.0570   -1.5940  -39.9110 N.3   247  GLU247     -0.1245
    162  CA       -45.6470   -1.8660  -40.0930 C.3   247  GLU247      0.1567
    163  C        -44.8780   -0.5940  -40.4660 C.2   247  GLU247      0.2260
    164  O        -43.6470   -0.6030  -40.4990 O.2   247  GLU247     -0.2867
    165  CB       -45.4170   -3.0080  -41.0910 C.3   247  GLU247      0.0388
    166  CG       -46.1140   -4.2890  -40.6580 C.3   247  GLU247      0.1160
    167  CD       -45.7300   -5.5050  -41.4750 C.2   247  GLU247      0.3649
    168  OE1      -46.5780   -6.4220  -41.6260 O.co2 247  GLU247     -0.2457
    169  OE2      -44.5830   -5.5480  -41.9580 O.co2 247  GLU247     -0.2457
    170  N        -41.9890   -1.7990  -36.1120 N.3   271  ARG271     -0.1245
    171  CA       -43.3150   -2.2060  -36.6340 C.3   271  ARG271      0.1563
    172  C        -44.3380   -2.5320  -35.5480 C.2   271  ARG271      0.2260
    173  O        -44.0360   -3.2220  -34.5970 O.2   271  ARG271     -0.2867
    174  CB       -43.1840   -3.4100  -37.5630 C.3   271  ARG271      0.0307
    175  CG       -42.2990   -3.1630  -38.7600 C.3   271  ARG271      0.0489
    176  CD       -42.1380   -4.4260  -39.5590 C.3   271  ARG271      0.2205
    177  NE       -41.2800   -5.3860  -38.8590 N.pl3 271  ARG271     -0.0865
    178  CZ       -40.9860   -6.5870  -39.3380 C.cat 271  ARG271      0.5346
    179  NH1      -41.5030   -6.9760  -40.4980 N.pl3 271  ARG271      0.1354
    180  NH2      -40.2030   -7.4080  -38.6550 N.pl3 271  ARG271      0.1354
    181  N        -47.7320   -4.5260  -34.2820 N.3   273  TRP273     -0.1241
    182  CA       -48.3590   -5.8210  -34.5780 C.3   273  TRP273      0.1605
    183  C        -49.7230   -6.0740  -33.9220 C.2   273  TRP273      0.2264
    184  O        -50.5470   -6.8070  -34.4570 O.2   273  TRP273     -0.2867
    185  CB       -47.4180   -6.9650  -34.1500 C.3   273  TRP273      0.0550
    186  CG       -46.1510   -7.0110  -34.9240 C.ar  273  TRP273      0.0003
    187  CD1      -44.8960   -6.7480  -34.4490 C.ar  273  TRP273      0.0946
    188  CD2      -45.9980   -7.3320  -36.3110 C.ar  273  TRP273      0.0152
    189  NE1      -43.9710   -6.8840  -35.4520 N.ar  273  TRP273     -0.2442
    190  CE2      -44.6200   -7.2280  -36.6140 C.ar  273  TRP273      0.0810
    191  CE3      -46.8930   -7.6780  -37.3390 C.ar  273  TRP273      0.0012
    192  CZ2      -44.1060   -7.4950  -37.8830 C.ar  273  TRP273      0.0191
    193  CZ3      -46.3820   -7.9210  -38.6090 C.ar  273  TRP273      0.0001
    194  CH2      -44.9940   -7.8340  -38.8670 C.ar  273  TRP273      0.0015
@<TRIPOS>BOND
     1   130   128    1
     2   128   129    1
     3   128   127    2
     4   127   126    1
     5   125   126    1
     6   125   124    1
     7   120   121    1
     8   121   124    1
     9   121   122    1
    10    90    92   ar
    11    90    88   ar
    12   122   123    2
    13    92    91   ar
    14   115   114    2
    15    88    87    1
    16    88    89   ar
    17   142   141    2
    18    87    84    1
    19   114   113    1
    20    91    89   ar
    21   141   140    1
    22    83    84    1
    23    84    85    1
    24   143   140    1
    25   143   144    1
    26   113   116    1
    27   113   112    1
    28   116   117    1
    29   140   139    1
    30   153   152    2
    31   146   144   ar
    32   144   145   ar
    33    85    93   am
    34    85    86    2
    35   118   117    1
    36   117   119    1
    37   152   154   am
    38   152   151    1
    39    93    94    1
    40   102   103   ar
    41   102   100   ar
    42   103   101   ar
    43   147   148    1
    44   100    98   ar
    45   101    99   ar
    46   148   151    1
    47   148   149    1
    48    98    99   ar
    49    98    97    1
    50    94    97    1
    51    94    95    1
    52    96    95    2
    53    78    77    2
    54   137   136    2
    55   149   150    2
    56   138   136   am
    57   131   132    1
    58   136   135    1
    59    50    49   ar
    60   169   167   ar
    61    77    76    1
    62   168   167   ar
    63   167   166    1
    64   109   110    1
    65   109   108    1
    66   132   135    1
    67   132   133    1
    68    79    76    1
    69    79    80    1
    70   165   166    1
    71   165   162    1
    72    82    80   ar
    73    76    75    1
    74   110   111    1
    75    74    72    1
    76    49    51   ar
    77    49    48    1
    78    80    81   ar
    79   164   163    2
    80   179   178    1
    81   163   162    1
    82   108   105    1
    83   162   161    1
    84   104   105    1
    85    48    45    1
    86    72    71    2
    87    72    73    1
    88   133   134    2
    89   176   177    1
    90   176   175    1
    91    71    70    1
    92   155   156    1
    93    63    62    1
    94   178   177    2
    95   178   180    1
    96   105   106    1
    97    60    62   ar
    98    60    58   ar
    99    62    61   ar
   100   194   193   ar
   101   194   192   ar
   102   175   174    1
   103    58    57   ar
   104   156   157    1
   105   156   159    1
   106   193   191   ar
   107    45    44    1
   108    45    46    1
   109    61    59   ar
   110    70    69    1
   111   160   159    1
   112    57    59   ar
   113    57    56    1
   114    69    68    1
   115   106   107    2
   116    52    46   am
   117    52    53    1
   118   157   158    2
   119   192   190   ar
   120    56    53    1
   121    46    47    2
   122   174   171    1
   123    32    31    1
   124    43    41    1
   125   191   188   ar
   126    55    54    2
   127    42    41    1
   128    53    54    1
   129    68    65    1
   130    41    40    2
   131   171   170    1
   132   171   172    1
   133   190   188   ar
   134   190   189   ar
   135    11     9    1
   136    10     9    1
   137   188   186   ar
   138    20    19    1
   139    40    39    1
   140    31    29   ar
   141    31    30   ar
   142     9     8    2
   143    29    27   ar
   144   172   173    2
   145    39    38    1
   146    65    64    1
   147    65    66    1
   148   189   187   ar
   149    30    28   ar
   150     8     7    1
   151   186   187   ar
   152   186   185    1
   153    19    18    1
   154     7     6    1
   155   182   181    1
   156   182   185    1
   157   182   183    1
   158    27    26   ar
   159    66    67    2
   160   184   183    2
   161    38    37    1
   162    28    26   ar
   163    18    17    1
   164    26    25    1
   165    37    34    1
   166     6     5    1
   167    17    16    1
   168     5     2    1
   169    25    22    1
   170    16    13    1
   171    34    33    1
   172    34    35    1
   173    15    14    2
   174    36    35    2
   175    13    14    1
   176    13    12    1
   177    24    23    2
   178    22    23    1
   179    22    21    1
   180     2     3    1
   181     2     1    1
   182     3     4    2
