@<TRIPOS>MOLECULE
tmp/4j78A00.pdb
 192 181 0 0 0
SMALL
GASTEIGER

@<TRIPOS>ATOM
      1  N         -3.0950   10.1550   33.5060 N.3    14  ARG14      -0.1245
      2  CA        -3.3710   10.5610   32.1290 C.3    14  ARG14       0.1563
      3  C         -4.7330   10.1050   31.6390 C.2    14  ARG14       0.2260
      4  O         -5.0430    8.9130   31.6600 O.2    14  ARG14      -0.2867
      5  CB        -2.2810   10.0060   31.2120 C.3    14  ARG14       0.0307
      6  CG        -2.4830   10.3310   29.7500 C.3    14  ARG14       0.0489
      7  CD        -1.3970    9.7110   28.8730 C.3    14  ARG14       0.2205
      8  NE        -0.0750   10.1470   29.3000 N.pl3  14  ARG14      -0.0865
      9  CZ         1.0190    9.3960   29.2850 C.cat  14  ARG14       0.5346
     10  NH1        0.9970    8.1530   28.8180 N.pl3  14  ARG14       0.1354
     11  NH2        2.1550    9.8990   29.7470 N.pl3  14  ARG14       0.1354
     12  N         -7.1350    9.3800   28.7700 N.3    16  LYS16      -0.1245
     13  CA        -7.0950    9.0010   27.3560 C.3    16  LYS16       0.1561
     14  C         -8.4460    9.0500   26.6720 C.2    16  LYS16       0.2260
     15  O         -8.5080    9.2200   25.4590 O.2    16  LYS16      -0.2867
     16  CB        -6.5190    7.5930   27.1920 C.3    16  LYS16       0.0271
     17  CG        -5.0790    7.4350   27.6930 C.3    16  LYS16       0.0035
     18  CD        -4.1270    8.3440   26.9150 C.3    16  LYS16       0.0206
     19  CE        -3.9840    7.9140   25.4630 C.3    16  LYS16       0.1093
     20  NZ        -2.8320    8.6500   24.8380 N.3    16  LYS16      -0.1314
     21  N         -4.9400    6.1150   31.8030 N.3    32  TYR32      -0.1241
     22  CA        -3.8070    5.2820   31.4000 C.3    32  TYR32       0.1605
     23  C         -3.4870    4.2100   32.4520 C.2    32  TYR32       0.2264
     24  O         -2.8880    3.1800   32.1480 O.2    32  TYR32      -0.2867
     25  CB        -2.5820    6.1700   31.1580 C.3    32  TYR32       0.0534
     26  CG        -1.5190    5.5410   30.2960 C.ar   32  TYR32      -0.0201
     27  CD1       -1.6020    5.6050   28.9130 C.ar   32  TYR32      -0.0009
     28  CD2       -0.4300    4.9030   30.8530 C.ar   32  TYR32      -0.0009
     29  CE1       -0.6420    5.0280   28.1120 C.ar   32  TYR32       0.0417
     30  CE2        0.5420    4.3210   30.0510 C.ar   32  TYR32       0.0417
     31  CZ         0.4300    4.3940   28.6850 C.ar   32  TYR32       0.1957
     32  OH         1.4010    3.8160   27.8920 O.3    32  TYR32      -0.2866
     33  N         -3.7530    0.5660   30.1470 N.3    56  PRO56      -0.2116
     34  CA        -4.4760    1.7820   29.7620 C.3    56  PRO56       0.1372
     35  C         -5.8700    1.5110   29.2060 C.2    56  PRO56       0.2244
     36  O         -6.0840    0.5470   28.4660 O.2    56  PRO56      -0.2868
     37  CB        -3.5840    2.3830   28.6770 C.3    56  PRO56       0.0268
     38  CG        -2.2010    1.9140   29.0590 C.3    56  PRO56       0.0207
     39  CD        -2.4090    0.5140   29.5470 C.3    56  PRO56       0.0892
     40  N         -8.1310    3.3500   26.7790 N.3    58  ARG58      -0.1245
     41  CA        -8.0550    4.4620   25.8670 C.3    58  ARG58       0.1563
     42  C         -9.3850    4.9560   25.3730 C.2    58  ARG58       0.2260
     43  O         -9.4410    5.9920   24.8740 O.2    58  ARG58      -0.2867
     44  CB        -7.2160    4.1450   24.6300 C.3    58  ARG58       0.0307
     45  CG        -5.7480    3.8760   24.9390 C.3    58  ARG58       0.0489
     46  CD        -4.9350    3.4250   23.7100 C.3    58  ARG58       0.2205
     47  NE        -3.6670    2.8740   24.1120 N.pl3  58  ARG58      -0.0865
     48  CZ        -2.5700    3.5730   24.2840 C.cat  58  ARG58       0.5346
     49  NH1       -2.5410    4.8180   24.0090 N.pl3  58  ARG58       0.1354
     50  NH2       -1.5110    2.9830   24.7390 N.pl3  58  ARG58       0.1354
     51  N         -6.0020   -1.6830   26.6430 N.3    74  ASP74      -0.1239
     52  CA        -4.8360   -2.2640   26.0120 C.3    74  ASP74       0.1674
     53  C         -4.6610   -3.7480   26.3210 C.2    74  ASP74       0.2266
     54  O         -3.8630   -4.3700   25.7280 O.2    74  ASP74      -0.2867
     55  CB        -3.5610   -1.5010   26.4450 C.3    74  ASP74       0.1410
     56  CG        -3.4000   -0.1310   25.7830 C.2    74  ASP74       0.3668
     57  OD1       -4.2780    0.3070   25.0700 O.co2  74  ASP74      -0.2456
     58  OD2       -2.3760    0.4890   25.9800 O.co2  74  ASP74      -0.2456
     59  N         -5.2380   -7.0230   19.8160 N.3    97  ASP97      -0.1225
     60  CA        -4.3180   -5.9090   20.0120 C.3    97  ASP97       0.1805
     61  C         -5.0870   -4.7480   20.6500 C.2    97  ASP97       0.2597
     62  O         -6.2890   -4.8710   20.9140 O.2    97  ASP97      -0.2718
     63  CB        -3.6870   -5.5030   18.6760 C.3    97  ASP97       0.1424
     64  CG        -2.2690   -4.9650   18.8220 C.2    97  ASP97       0.3668
     65  OD1       -1.4890   -5.0880   17.8490 O.co2  97  ASP97      -0.2456
     66  OD2       -1.9280   -4.4120   19.8920 O.co2  97  ASP97      -0.2456
     67  N         -4.4040   -3.6310   20.8890 N.am   98  TYR98      -0.1976
     68  CA        -4.9860   -2.5020   21.6090 C.3    98  TYR98       0.1639
     69  C         -6.2700   -1.9990   20.9630 C.2    98  TYR98       0.2290
     70  O         -6.3900   -1.9620   19.7400 O.2    98  TYR98      -0.2864
     71  CB        -4.0330   -1.3090   21.6390 C.3    98  TYR98       0.0560
     72  CG        -2.7620   -1.4480   22.4370 C.ar   98  TYR98      -0.0198
     73  CD1       -1.8880   -0.3830   22.5210 C.ar   98  TYR98      -0.0009
     74  CD2       -2.4320   -2.6220   23.0960 C.ar   98  TYR98      -0.0009
     75  CE1       -0.7280   -0.4700   23.2350 C.ar   98  TYR98       0.0417
     76  CE2       -1.2460   -2.7160   23.8260 C.ar   98  TYR98       0.0417
     77  CZ        -0.4090   -1.6320   23.8780 C.ar   98  TYR98       0.1957
     78  OH         0.7710   -1.6860   24.5960 O.3    98  TYR98      -0.2866
     79  N         -8.2740    1.3770   20.3550 N.3   100  ARG100     -0.1245
     80  CA        -7.9810    2.8110   20.3140 C.3   100  ARG100      0.1563
     81  C         -9.2170    3.6920   20.4710 C.2   100  ARG100      0.2260
     82  O         -9.1320    4.8280   20.9390 O.2   100  ARG100     -0.2867
     83  CB        -7.3040    3.1680   18.9910 C.3   100  ARG100      0.0307
     84  CG        -5.9310    2.5780   18.7980 C.3   100  ARG100      0.0489
     85  CD        -4.8780    3.2520   19.6560 C.3   100  ARG100      0.2205
     86  NE        -3.6010    2.5620   19.5010 N.pl3 100  ARG100     -0.0865
     87  CZ        -2.4500    2.9850   19.9930 C.cat 100  ARG100      0.5346
     88  NH1       -2.3900    4.1270   20.6700 N.pl3 100  ARG100      0.1354
     89  NH2       -1.3470    2.2720   19.7870 N.pl3 100  ARG100      0.1354
     90  N         -5.4750   -1.5940   16.9000 N.3   116  ASP116     -0.1239
     91  CA        -4.1490   -1.7670   16.3390 C.3   116  ASP116      0.1674
     92  C         -4.0550   -3.0280   15.4880 C.2   116  ASP116      0.2266
     93  O         -3.0610   -3.2160   14.7850 O.2   116  ASP116     -0.2867
     94  CB        -3.1210   -1.8610   17.4700 C.3   116  ASP116      0.1410
     95  CG        -2.8540   -0.5290   18.1310 C.2   116  ASP116      0.3668
     96  OD1       -3.6020    0.4380   17.8650 O.co2 116  ASP116     -0.2456
     97  OD2       -1.8960   -0.4450   18.9330 O.co2 116  ASP116     -0.2456
     98  N         -2.6010    0.0330    9.0020 N.3   140  HIS140     -0.1226
     99  CA        -1.9030    0.3910   10.2360 C.3   140  HIS140      0.1752
    100  C         -2.9870    0.5870   11.3030 C.2   140  HIS140      0.2596
    101  O         -4.1540    0.2740   11.0560 O.2   140  HIS140     -0.2718
    102  CB        -1.0680    1.6660   10.0290 C.3   140  HIS140      0.0759
    103  CG         0.1230    1.7980   10.9410 C.ar  140  HIS140      0.0818
    104  ND1        0.1620    1.3080   12.2300 N.ar  140  HIS140     -0.2268
    105  CD2        1.3220    2.3910   10.7330 C.ar  140  HIS140      0.1154
    106  CE1        1.3360    1.5840   12.7720 C.ar  140  HIS140      0.1986
    107  NE2        2.0580    2.2420   11.8840 N.ar  140  HIS140     -0.2212
    108  N         -2.6330    1.1440   12.4640 N.am  141  PHE141     -0.1976
    109  CA        -3.5290    1.1250   13.6060 C.3   141  PHE141      0.1639
    110  C         -4.7320    1.9940   13.2810 C.2   141  PHE141      0.2290
    111  O         -4.5770    3.1250   12.7970 O.2   141  PHE141     -0.2864
    112  CB        -2.8780    1.7350   14.8510 C.3   141  PHE141      0.0560
    113  CG        -1.6420    1.0280   15.3410 C.ar  141  PHE141     -0.0200
    114  CD1       -0.8310    1.6560   16.2750 C.ar  141  PHE141     -0.0042
    115  CD2       -1.2960   -0.2390   14.9010 C.ar  141  PHE141     -0.0042
    116  CE1        0.2990    1.0450   16.7580 C.ar  141  PHE141     -0.0003
    117  CE2       -0.1570   -0.8630   15.3840 C.ar  141  PHE141     -0.0003
    118  CZ         0.6410   -0.2150   16.3150 C.ar  141  PHE141     -0.0000
    119  N         -7.1330    4.4280   14.6540 N.3   143  MET143     -0.1245
    120  CA        -7.0490    5.3270   15.8020 C.3   143  MET143      0.1570
    121  C         -8.3710    5.9320   16.2490 C.2   143  MET143      0.2261
    122  O         -8.4920    6.3870   17.3800 O.2   143  MET143     -0.2867
    123  CB        -6.0970    6.4800   15.4720 C.3   143  MET143      0.0387
    124  CG        -4.6690    6.0470   15.2220 C.3   143  MET143      0.0595
    125  SD        -3.8470    5.4730   16.7200 S.3   143  MET143     -0.1393
    126  CE        -3.8540    6.9640   17.7040 C.3   143  MET143      0.0692
    127  N         -3.4780    5.3290   11.0580 N.3   160  LEU160     -0.1245
    128  CA        -2.0700    5.7070   10.9010 C.3   160  LEU160      0.1561
    129  C         -1.5220    5.3910    9.5120 C.2   160  LEU160      0.2260
    130  O         -0.4010    5.7910    9.2000 O.2   160  LEU160     -0.2867
    131  CB        -1.2030    5.0390   11.9660 C.3   160  LEU160      0.0270
    132  CG        -1.4910    5.4680   13.4010 C.3   160  LEU160      0.0019
    133  CD1       -0.5040    4.8200   14.3670 C.3   160  LEU160      0.0001
    134  CD2       -1.4530    6.9810   13.5210 C.3   160  LEU160      0.0001
    135  N         -4.9600   10.5880   13.5190 N.3   187  ASN187     -0.1240
    136  CA        -5.2560   10.2260   14.9050 C.3   187  ASN187      0.1653
    137  C         -6.7300   10.3100   15.2580 C.2   187  ASN187      0.2266
    138  O         -7.1790    9.6920   16.2290 O.2   187  ASN187     -0.2867
    139  CB        -4.5480   11.1750   15.8770 C.3   187  ASN187      0.1155
    140  CG        -3.0570   11.1270   15.7620 C.2   187  ASN187      0.2627
    141  OD1       -2.4740   10.0680   15.5260 O.2   187  ASN187     -0.2716
    142  ND2       -2.4190   12.2810   15.9310 N.am  187  ASN187     -0.0877
    143  N         -0.3690   13.6290   13.6410 N.3   205  ASP205     -0.1239
    144  CA         0.9720   13.8430   14.1700 C.3   205  ASP205      0.1674
    145  C          1.7970   14.7990   13.2930 C.2   205  ASP205      0.2266
    146  O          2.8550   15.2580   13.7220 O.2   205  ASP205     -0.2867
    147  CB         1.7240   12.5110   14.2660 C.3   205  ASP205      0.1410
    148  CG         1.3470   11.6800   15.4870 C.2   205  ASP205      0.3668
    149  OD1        0.4110   12.0440   16.2370 O.co2 205  ASP205     -0.2456
    150  OD2        2.0020   10.6270   15.6880 O.co2 205  ASP205     -0.2456
    151  N          1.9950   16.7420   18.1190 N.3   229  ASN229     -0.1240
    152  CA         0.9170   15.8950   17.6030 C.3   229  ASN229      0.1653
    153  C         -0.4540   16.4400   17.9490 C.2   229  ASN229      0.2266
    154  O         -0.6990   16.7850   19.0850 O.2   229  ASN229     -0.2867
    155  CB         1.0340   14.4850   18.1630 C.3   229  ASN229      0.1155
    156  CG         2.3680   13.8350   17.8450 C.2   229  ASN229      0.2627
    157  OD1        3.0500   14.2090   16.8840 O.2   229  ASN229     -0.2716
    158  ND2        2.7310   12.8420   18.6320 N.am  229  ASN229     -0.0877
    159  N         -0.4740   17.4280   21.9460 N.3   247  GLU247     -0.1245
    160  CA         0.5980   17.1110   22.8800 C.3   247  GLU247      0.1567
    161  C          1.4420   18.3390   23.1960 C.2   247  GLU247      0.2260
    162  O          2.2830   18.2740   24.0890 O.2   247  GLU247     -0.2867
    163  CB         1.4550   15.9520   22.3520 C.3   247  GLU247      0.0388
    164  CG         0.6620   14.6410   22.2360 C.3   247  GLU247      0.1160
    165  CD         1.4970   13.4610   21.7970 C.2   247  GLU247      0.3649
    166  OE1        0.9860   12.6480   20.9970 O.co2 247  GLU247     -0.2457
    167  OE2        2.6560   13.3370   22.2600 O.co2 247  GLU247     -0.2457
    168  N          0.1330   17.3400   28.2210 N.3   271  ARG271     -0.1245
    169  CA        -0.3830   16.9280   26.9070 C.3   271  ARG271      0.1563
    170  C         -1.8700   16.6770   26.9060 C.2   271  ARG271      0.2260
    171  O         -2.3990   16.0770   27.8330 O.2   271  ARG271     -0.2867
    172  CB         0.3200   15.6700   26.4350 C.3   271  ARG271      0.0307
    173  CG         1.7830   15.8940   26.2210 C.3   271  ARG271      0.0489
    174  CD         2.4440   14.6380   25.7850 C.3   271  ARG271      0.2205
    175  NE         2.6950   13.8150   26.9480 N.pl3 271  ARG271     -0.0865
    176  CZ         3.8610   13.2670   27.2550 C.cat 271  ARG271      0.5346
    177  NH1        4.9100   13.4000   26.4560 N.pl3 271  ARG271      0.1354
    178  NH2        3.9620   12.5530   28.3590 N.pl3 271  ARG271      0.1354
    179  N         -5.1930   14.8630   25.1960 N.3   273  TRP273     -0.1241
    180  CA        -5.4090   13.5880   24.5110 C.3   273  TRP273      0.1605
    181  C         -6.7980   13.3820   23.9380 C.2   273  TRP273      0.2264
    182  O         -6.9630   12.6410   22.9730 O.2   273  TRP273     -0.2867
    183  CB        -5.1240   12.4280   25.4640 C.3   273  TRP273      0.0550
    184  CG        -3.7060   12.3690   25.8870 C.ar  273  TRP273      0.0003
    185  CD1       -3.2030   12.6580   27.1210 C.ar  273  TRP273      0.0946
    186  CD2       -2.5870   12.0290   25.0630 C.ar  273  TRP273      0.0152
    187  NE1       -1.8360   12.5060   27.1200 N.ar  273  TRP273     -0.2442
    188  CE2       -1.4340   12.1100   25.8710 C.ar  273  TRP273      0.0810
    189  CE3       -2.4500   11.6490   23.7220 C.ar  273  TRP273      0.0012
    190  CZ2       -0.1560   11.8330   25.3840 C.ar  273  TRP273      0.0191
    191  CZ3       -1.1780   11.3700   23.2350 C.ar  273  TRP273      0.0001
    192  CH2       -0.0510   11.4630   24.0640 C.ar  273  TRP273      0.0015
@<TRIPOS>BOND
     1    98    99    1
     2   130   129    2
     3   129   128    1
     4   102    99    1
     5   102   103    1
     6    99   100    1
     7   105   103   ar
     8   105   107   ar
     9   128   127    1
    10   128   131    1
    11   103   104   ar
    12   101   100    2
    13   100   108   am
    14   107   106   ar
    15   131   132    1
    16   104   106   ar
    17   108   109    1
    18   111   110    2
    19   110   109    1
    20   145   146    2
    21   145   144    1
    22   132   134    1
    23   132   133    1
    24   135   136    1
    25   109   112    1
    26   143   144    1
    27   144   147    1
    28   147   148    1
    29   119   120    1
    30    93    92    2
    31   112   113    1
    32   115   113   ar
    33   115   117   ar
    34   136   137    1
    35   136   139    1
    36   124   123    1
    37   124   125    1
    38   137   138    2
    39   113   114   ar
    40   117   118   ar
    41   123   120    1
    42   148   150   ar
    43   148   149   ar
    44    92    91    1
    45   141   140    2
    46   140   139    1
    47   140   142   am
    48   120   121    1
    49   121   122    2
    50   114   116   ar
    51   118   116   ar
    52    91    90    1
    53    91    94    1
    54   125   126    1
    55   157   156    2
    56    94    95    1
    57   152   153    1
    58   152   151    1
    59   152   155    1
    60   156   155    1
    61   156   158   am
    62    65    64   ar
    63    96    95   ar
    64   153   154    2
    65    95    97   ar
    66    63    64    1
    67    63    60    1
    68    84    83    1
    69    84    85    1
    70    64    66   ar
    71    83    80    1
    72    86    85    1
    73    86    87    2
    74    70    69    2
    75    89    87    1
    76    59    60    1
    77    87    88    1
    78    60    61    1
    79    80    79    1
    80    80    81    1
    81    81    82    2
    82    61    67   am
    83    61    62    2
    84    67    68    1
    85    69    68    1
    86   166   165   ar
    87    68    71    1
    88    71    72    1
    89   165   164    1
    90   165   167   ar
    91   159   160    1
    92   164   163    1
    93   163   160    1
    94    72    73   ar
    95    72    74   ar
    96    73    75   ar
    97   160   161    1
    98   182   181    2
    99    74    76   ar
   100   161   162    2
   101    75    77   ar
   102   191   189   ar
   103   191   192   ar
   104    46    47    1
   105    46    45    1
   106   189   186   ar
   107    76    77   ar
   108    77    78    1
   109   181   180    1
   110    49    48    1
   111   192   190   ar
   112    47    48    2
   113    48    50    1
   114   180   179    1
   115   180   183    1
   116    44    45    1
   117    44    41    1
   118    20    19    1
   119    43    42    2
   120   186   188   ar
   121   186   184   ar
   122    57    56   ar
   123    42    41    1
   124   190   188   ar
   125    15    14    2
   126    19    18    1
   127   183   184    1
   128    54    53    2
   129    56    58   ar
   130    56    55    1
   131   174   173    1
   132   174   175    1
   133    41    40    1
   134   188   187   ar
   135   184   185   ar
   136    52    53    1
   137    52    55    1
   138    52    51    1
   139   173   172    1
   140   172   169    1
   141   177   176    1
   142    14    13    1
   143   170   169    1
   144   170   171    2
   145   169   168    1
   146    18    17    1
   147   175   176    2
   148   187   185   ar
   149    16    13    1
   150    16    17    1
   151   176   178    1
   152    13    12    1
   153    32    31    1
   154    29    31   ar
   155    29    27   ar
   156    36    35    2
   157    37    38    1
   158    37    34    1
   159    31    30   ar
   160    10     9    1
   161     7     8    1
   162     7     6    1
   163    27    26   ar
   164    38    39    1
   165    35    34    1
   166     9     8    2
   167     9    11    1
   168    39    33    1
   169     6     5    1
   170    34    33    1
   171    30    28   ar
   172    26    28   ar
   173    26    25    1
   174    25    22    1
   175     5     2    1
   176    22    21    1
   177    22    23    1
   178     3     4    2
   179     3     2    1
   180     2     1    1
   181    24    23    2
