@<TRIPOS>MOLECULE
tmp/4j79A00.pdb
 177 167 0 0 0
SMALL
GASTEIGER

@<TRIPOS>ATOM
      1  N         -3.1810  -15.5370   33.6200 N.3    14  ARG14      -0.1245
      2  CA        -3.4400  -15.1130   32.2420 C.3    14  ARG14       0.1563
      3  C         -4.7890  -15.5750   31.7540 C.2    14  ARG14       0.2260
      4  O         -5.0900  -16.7760   31.7880 O.2    14  ARG14      -0.2867
      5  CB        -2.3630  -15.6840   31.3290 C.3    14  ARG14       0.0307
      6  CG        -2.5320  -15.2930   29.8540 C.3    14  ARG14       0.0489
      7  CD        -1.4270  -15.9620   29.0130 C.3    14  ARG14       0.2205
      8  NE        -0.1100  -15.5190   29.4490 N.pl3  14  ARG14      -0.0865
      9  CZ         0.9910  -16.2700   29.4480 C.cat  14  ARG14       0.5346
     10  NH1        0.9730  -17.5100   28.9570 N.pl3  14  ARG14       0.1354
     11  NH2        2.1260  -15.7650   29.9150 N.pl3  14  ARG14       0.1354
     12  N         -7.2040  -16.3810   28.7980 N.3    16  LYS16      -0.1245
     13  CA        -7.1360  -16.7600   27.3980 C.3    16  LYS16       0.1561
     14  C         -8.4930  -16.7310   26.7110 C.2    16  LYS16       0.2260
     15  O         -8.5490  -16.5570   25.4900 O.2    16  LYS16      -0.2867
     16  CB        -6.5270  -18.1660   27.2820 C.3    16  LYS16       0.0271
     17  CG        -5.1200  -18.3130   27.8740 C.3    16  LYS16       0.0035
     18  CD        -4.1360  -17.3680   27.1930 C.3    16  LYS16       0.0206
     19  CE        -3.9280  -17.7930   25.7510 C.3    16  LYS16       0.1093
     20  NZ        -2.7990  -17.0380   25.1750 N.3    16  LYS16      -0.1314
     21  N         -4.9660  -19.6140   31.8830 N.3    32  TYR32      -0.1241
     22  CA        -3.8400  -20.4430   31.4630 C.3    32  TYR32       0.1605
     23  C         -3.5500  -21.4900   32.5300 C.2    32  TYR32       0.2264
     24  O         -2.9410  -22.5360   32.2730 O.2    32  TYR32      -0.2867
     25  CB        -2.6350  -19.5420   31.2010 C.3    32  TYR32       0.0534
     26  CG        -1.5700  -20.1640   30.3490 C.ar   32  TYR32      -0.0201
     27  CD1       -1.6400  -20.0710   28.9520 C.ar   32  TYR32      -0.0009
     28  CD2       -0.4960  -20.8350   30.9130 C.ar   32  TYR32      -0.0009
     29  CE1       -0.6700  -20.6410   28.1450 C.ar   32  TYR32       0.0417
     30  CE2        0.4900  -21.4030   30.1170 C.ar   32  TYR32       0.0417
     31  CZ         0.3930  -21.3020   28.7320 C.ar   32  TYR32       0.1957
     32  OH         1.3650  -21.8660   27.9360 O.3    32  TYR32      -0.2866
     33  N         -8.1210  -22.4000   26.8220 N.3    58  ARG58      -0.1245
     34  CA        -8.0590  -21.2870   25.8700 C.3    58  ARG58       0.1563
     35  C         -9.4190  -20.7960   25.4090 C.2    58  ARG58       0.2260
     36  O         -9.5490  -19.6960   24.8590 O.2    58  ARG58      -0.2867
     37  CB        -7.2330  -21.6650   24.6340 C.3    58  ARG58       0.0307
     38  CG        -5.7760  -21.8830   24.9500 C.3    58  ARG58       0.0489
     39  CD        -4.9870  -22.3710   23.7130 C.3    58  ARG58       0.2205
     40  NE        -3.7330  -22.9190   24.2130 N.pl3  58  ARG58      -0.0865
     41  CZ        -2.6050  -22.2250   24.3610 C.cat  58  ARG58       0.5346
     42  NH1       -2.5380  -20.9500   23.9770 N.pl3  58  ARG58       0.1354
     43  NH2       -1.5330  -22.8240   24.8840 N.pl3  58  ARG58       0.1354
     44  N         -5.1770  -32.7010   19.8910 N.3    97  ASP97      -0.1225
     45  CA        -4.2430  -31.5850   20.0470 C.3    97  ASP97       0.1805
     46  C         -5.0000  -30.4270   20.6740 C.2    97  ASP97       0.2597
     47  O         -6.1990  -30.5650   20.9380 O.2    97  ASP97      -0.2718
     48  CB        -3.6330  -31.1800   18.7010 C.3    97  ASP97       0.1424
     49  CG        -2.2240  -30.5960   18.8420 C.2    97  ASP97       0.3668
     50  OD1       -1.4470  -30.6970   17.8650 O.co2  97  ASP97      -0.2456
     51  OD2       -1.8770  -30.0550   19.9290 O.co2  97  ASP97      -0.2456
     52  N         -4.3070  -29.3070   20.8980 N.am   98  TYR98      -0.1976
     53  CA        -4.8930  -28.1740   21.6160 C.3    98  TYR98       0.1639
     54  C         -6.1760  -27.6570   20.9860 C.2    98  TYR98       0.2290
     55  O         -6.3120  -27.6190   19.7620 O.2    98  TYR98      -0.2864
     56  CB        -3.9210  -26.9920   21.6850 C.3    98  TYR98       0.0560
     57  CG        -2.6760  -27.1790   22.5270 C.ar   98  TYR98      -0.0198
     58  CD1       -1.7640  -26.1330   22.6620 C.ar   98  TYR98      -0.0009
     59  CD2       -2.4020  -28.3820   23.1830 C.ar   98  TYR98      -0.0009
     60  CE1       -0.6240  -26.2690   23.4180 C.ar   98  TYR98       0.0417
     61  CE2       -1.2460  -28.5250   23.9490 C.ar   98  TYR98       0.0417
     62  CZ        -0.3590  -27.4600   24.0510 C.ar   98  TYR98       0.1957
     63  OH         0.7940  -27.5550   24.8070 O.3    98  TYR98      -0.2866
     64  N         -8.2470  -24.3050   20.3710 N.3   100  ARG100     -0.1245
     65  CA        -7.9350  -22.8700   20.3000 C.3   100  ARG100      0.1563
     66  C         -9.1790  -21.9900   20.4590 C.2   100  ARG100      0.2260
     67  O         -9.1030  -20.8620   20.9860 O.2   100  ARG100     -0.2867
     68  CB        -7.2930  -22.5490   18.9440 C.3   100  ARG100      0.0307
     69  CG        -5.9120  -23.1290   18.7650 C.3   100  ARG100      0.0489
     70  CD        -4.8860  -22.4080   19.6410 C.3   100  ARG100      0.2205
     71  NE        -3.5790  -23.0510   19.4700 N.pl3 100  ARG100     -0.0865
     72  CZ        -2.4280  -22.5810   19.9370 C.cat 100  ARG100      0.5346
     73  NH1       -2.3980  -21.4420   20.6270 N.pl3 100  ARG100      0.1354
     74  NH2       -1.3080  -23.2700   19.7210 N.pl3 100  ARG100      0.1354
     75  N         -5.4150  -27.2360   16.9330 N.3   116  ASP116     -0.1239
     76  CA        -4.0880  -27.4410   16.3570 C.3   116  ASP116      0.1674
     77  C         -4.0050  -28.7020   15.5030 C.2   116  ASP116      0.2266
     78  O         -3.0230  -28.8870   14.7730 O.2   116  ASP116     -0.2867
     79  CB        -3.0190  -27.5030   17.4600 C.3   116  ASP116      0.1410
     80  CG        -2.7480  -26.1540   18.0900 C.2   116  ASP116      0.3668
     81  OD1       -3.5160  -25.2030   17.8050 O.co2 116  ASP116     -0.2456
     82  OD2       -1.7750  -26.0500   18.8860 O.co2 116  ASP116     -0.2456
     83  N         -2.5270  -25.5140    8.9780 N.3   140  HIS140     -0.1226
     84  CA        -1.8440  -25.1660   10.2290 C.3   140  HIS140      0.1752
     85  C         -2.9320  -25.0240   11.2880 C.2   140  HIS140      0.2596
     86  O         -4.0860  -25.3740   11.0360 O.2   140  HIS140     -0.2718
     87  CB        -1.0400  -23.8610   10.0600 C.3   140  HIS140      0.0759
     88  CG         0.1790  -23.7660   10.9300 C.ar  140  HIS140      0.0818
     89  ND1        0.1690  -24.0680   12.2690 N.ar  140  HIS140     -0.2268
     90  CD2        1.4530  -23.3940   10.6380 C.ar  140  HIS140      0.1154
     91  CE1        1.3780  -23.8830   12.7770 C.ar  140  HIS140      0.1986
     92  NE2        2.1760  -23.4820   11.8060 N.ar  140  HIS140     -0.2212
     93  N         -2.5620  -24.5500   12.4780 N.am  141  PHE141     -0.1976
     94  CA        -3.4920  -24.5150   13.5980 C.3   141  PHE141      0.1639
     95  C         -4.7150  -23.6490   13.2990 C.2   141  PHE141      0.2290
     96  O         -4.5780  -22.5030   12.8270 O.2   141  PHE141     -0.2864
     97  CB        -2.8330  -23.8890   14.8210 C.3   141  PHE141      0.0560
     98  CG        -1.5670  -24.5780   15.2830 C.ar  141  PHE141     -0.0200
     99  CD1       -0.7350  -23.9490   16.1900 C.ar  141  PHE141     -0.0042
    100  CD2       -1.2290  -25.8450   14.8420 C.ar  141  PHE141     -0.0042
    101  CE1        0.4310  -24.5680   16.6480 C.ar  141  PHE141     -0.0003
    102  CE2       -0.0530  -26.4650   15.2850 C.ar  141  PHE141     -0.0003
    103  CZ         0.7720  -25.8180   16.1940 C.ar  141  PHE141     -0.0000
    104  N         -7.1220  -21.2390   14.6410 N.3   143  MET143     -0.1245
    105  CA        -7.0100  -20.3560   15.8060 C.3   143  MET143      0.1570
    106  C         -8.3370  -19.7590   16.2590 C.2   143  MET143      0.2261
    107  O         -8.4650  -19.3240   17.4060 O.2   143  MET143     -0.2867
    108  CB        -6.0400  -19.2070   15.5120 C.3   143  MET143      0.0387
    109  CG        -4.6120  -19.6440   15.1710 C.3   143  MET143      0.0595
    110  SD        -3.7850  -20.3000   16.6380 S.3   143  MET143     -0.1393
    111  CE        -3.5940  -18.8280   17.6370 C.3   143  MET143      0.0692
    112  N         -3.4130  -20.3360   11.0270 N.3   160  LEU160     -0.1245
    113  CA        -2.0180  -19.9130   10.8880 C.3   160  LEU160      0.1561
    114  C         -1.4860  -20.2240    9.4920 C.2   160  LEU160      0.2260
    115  O         -0.3750  -19.8150    9.1670 O.2   160  LEU160     -0.2867
    116  CB        -1.1270  -20.5780   11.9450 C.3   160  LEU160      0.0270
    117  CG        -1.4300  -20.1340   13.3770 C.3   160  LEU160      0.0019
    118  CD1       -0.3900  -20.7100   14.3550 C.3   160  LEU160      0.0001
    119  CD2       -1.4960  -18.6240   13.4700 C.3   160  LEU160      0.0001
    120  N         -4.9020  -15.0800   13.4230 N.3   187  ASN187     -0.1240
    121  CA        -5.2040  -15.4580   14.8090 C.3   187  ASN187      0.1653
    122  C         -6.6880  -15.3690   15.1810 C.2   187  ASN187      0.2266
    123  O         -7.1380  -15.9590   16.1850 O.2   187  ASN187     -0.2867
    124  CB        -4.4860  -14.5060   15.7770 C.3   187  ASN187      0.1155
    125  CG        -2.9830  -14.5340   15.6350 C.2   187  ASN187      0.2627
    126  OD1       -2.3900  -15.5750   15.3340 O.2   187  ASN187     -0.2716
    127  ND2       -2.3450  -13.3890   15.9070 N.am  187  ASN187     -0.0877
    128  N         -0.3030  -12.0410   13.5020 N.3   205  ASP205     -0.1239
    129  CA         1.0280  -11.8080   14.0560 C.3   205  ASP205      0.1674
    130  C          1.8280  -10.8390   13.1980 C.2   205  ASP205      0.2266
    131  O          2.8860  -10.3650   13.6200 O.2   205  ASP205     -0.2867
    132  CB         1.8260  -13.1140   14.1330 C.3   205  ASP205      0.1410
    133  CG         1.3980  -14.0130   15.2710 C.2   205  ASP205      0.3668
    134  OD1        0.5690  -13.5970   16.1230 O.co2 205  ASP205     -0.2456
    135  OD2        1.9240  -15.1530   15.3200 O.co2 205  ASP205     -0.2456
    136  N          1.9960   -8.9550   18.1390 N.3   229  ASN229     -0.1240
    137  CA         0.9360   -9.8160   17.6120 C.3   229  ASN229      0.1653
    138  C         -0.4620   -9.2910   17.9180 C.2   229  ASN229      0.2266
    139  O         -0.7300   -8.9360   19.0400 O.2   229  ASN229     -0.2867
    140  CB         1.0640  -11.2100   18.2040 C.3   229  ASN229      0.1155
    141  CG         2.3730  -11.8790   17.8470 C.2   229  ASN229      0.2627
    142  OD1        3.0150  -11.5160   16.8560 O.2   229  ASN229     -0.2716
    143  ND2        2.7660  -12.8720   18.6330 N.am  229  ASN229     -0.0877
    144  N         -0.4420   -8.2700   21.8650 N.3   247  GLU247     -0.1245
    145  CA         0.6220   -8.6270   22.8000 C.3   247  GLU247      0.1567
    146  C          1.4940   -7.4020   23.0570 C.2   247  GLU247      0.2260
    147  O          2.4570   -7.4690   23.8330 O.2   247  GLU247     -0.2867
    148  CB         1.4630   -9.8000   22.2600 C.3   247  GLU247      0.0388
    149  CG         0.6760  -11.0890   22.1190 C.3   247  GLU247      0.1160
    150  CD         1.5290  -12.2820   21.7490 C.2   247  GLU247      0.3649
    151  OE1        1.0370  -13.1320   20.9720 O.co2 247  GLU247     -0.2457
    152  OE2        2.6740  -12.3900   22.2440 O.co2 247  GLU247     -0.2457
    153  N          0.0200   -8.2390   28.2980 N.3   271  ARG271     -0.1245
    154  CA        -0.4620   -8.6080   26.9460 C.3   271  ARG271      0.1563
    155  C         -1.9480   -8.9320   26.9030 C.2   271  ARG271      0.2260
    156  O         -2.4930   -9.5320   27.8190 O.2   271  ARG271     -0.2867
    157  CB         0.3280   -9.7940   26.3970 C.3   271  ARG271      0.0307
    158  CG         1.7980   -9.4890   26.2240 C.3   271  ARG271      0.0489
    159  CD         2.5760  -10.7300   25.8910 C.3   271  ARG271      0.2205
    160  NE         2.5850  -11.6750   27.0040 N.pl3 271  ARG271     -0.0865
    161  CZ         3.2260  -12.8350   26.9680 C.cat 271  ARG271      0.5346
    162  NH1        3.9150  -13.1620   25.8890 N.pl3 271  ARG271      0.1354
    163  NH2        3.1900  -13.6540   28.0100 N.pl3 271  ARG271      0.1354
    164  N         -5.1760  -10.9040   25.1810 N.3   273  TRP273     -0.1241
    165  CA        -5.3800  -12.1910   24.5040 C.3   273  TRP273      0.1605
    166  C         -6.7740  -12.4140   23.9500 C.2   273  TRP273      0.2264
    167  O         -6.9510  -13.1510   22.9850 O.2   273  TRP273     -0.2867
    168  CB        -5.0840  -13.3210   25.4930 C.3   273  TRP273      0.0550
    169  CG        -3.6900  -13.3310   25.9640 C.ar  273  TRP273      0.0003
    170  CD1       -3.2440  -13.0220   27.2260 C.ar  273  TRP273      0.0946
    171  CD2       -2.5280  -13.6260   25.1880 C.ar  273  TRP273      0.0152
    172  NE1       -1.8870  -13.1320   27.2770 N.ar  273  TRP273     -0.2442
    173  CE2       -1.4140  -13.5170   26.0510 C.ar  273  TRP273      0.0810
    174  CE3       -2.3230  -14.0200   23.8560 C.ar  273  TRP273      0.0012
    175  CZ2       -0.1050  -13.7470   25.6240 C.ar  273  TRP273      0.0191
    176  CZ3       -1.0140  -14.2590   23.4280 C.ar  273  TRP273      0.0001
    177  CH2        0.0760  -14.1270   24.3180 C.ar  273  TRP273      0.0015
@<TRIPOS>BOND
     1    83    84    1
     2   115   114    2
     3   114   113    1
     4    87    84    1
     5    87    88    1
     6    84    85    1
     7    90    88   ar
     8    90    92   ar
     9   113   112    1
    10   113   116    1
    11    88    89   ar
    12    86    85    2
    13    85    93   am
    14    92    91   ar
    15   116   117    1
    16    89    91   ar
    17    93    94    1
    18    96    95    2
    19   130   131    2
    20   130   129    1
    21    95    94    1
    22   117   119    1
    23   117   118    1
    24   120   121    1
    25   128   129    1
    26    94    97    1
    27   129   132    1
    28   132   133    1
    29   104   105    1
    30    78    77    2
    31   121   122    1
    32   121   124    1
    33    97    98    1
    34   100    98   ar
    35   100   102   ar
    36   109   108    1
    37   109   110    1
    38   122   123    2
    39   133   135   ar
    40   133   134   ar
    41    98    99   ar
    42   102   103   ar
    43   126   125    2
    44    77    76    1
    45   108   105    1
    46   125   124    1
    47   125   127   am
    48   105   106    1
    49    99   101   ar
    50   103   101   ar
    51   106   107    2
    52    76    75    1
    53    76    79    1
    54   110   111    1
    55   142   141    2
    56    79    80    1
    57   137   138    1
    58   137   136    1
    59   137   140    1
    60    81    80   ar
    61   141   140    1
    62   141   143   am
    63    50    49   ar
    64   138   139    2
    65    80    82   ar
    66    48    49    1
    67    48    45    1
    68    69    68    1
    69    69    70    1
    70    49    51   ar
    71    68    65    1
    72    71    70    1
    73    71    72    2
    74    74    72    1
    75    55    54    2
    76    44    45    1
    77    72    73    1
    78    45    46    1
    79    65    64    1
    80    65    66    1
    81    66    67    2
    82    46    52   am
    83    46    47    2
    84    52    53    1
    85   151   150   ar
    86    54    53    1
    87    53    56    1
    88    56    57    1
    89   150   149    1
    90   150   152   ar
    91   144   145    1
    92   149   148    1
    93   148   145    1
    94    57    58   ar
    95    57    59   ar
    96    58    60   ar
    97   145   146    1
    98   167   166    2
    99   146   147    2
   100    59    61   ar
   101    60    62   ar
   102   176   174   ar
   103   176   177   ar
   104    39    40    1
   105    39    38    1
   106   174   171   ar
   107    61    62   ar
   108   166   165    1
   109    42    41    1
   110    62    63    1
   111    40    41    2
   112   177   175   ar
   113    41    43    1
   114   165   164    1
   115   165   168    1
   116    37    38    1
   117    37    34    1
   118    36    35    2
   119    20    19    1
   120   171   169   ar
   121   171   173   ar
   122    35    34    1
   123    15    14    2
   124   168   169    1
   125   175   173   ar
   126    19    18    1
   127    34    33    1
   128   162   161    1
   129   159   158    1
   130   159   160    1
   131   169   170   ar
   132   173   172   ar
   133   158   157    1
   134   157   154    1
   135    14    13    1
   136   155   154    1
   137   155   156    2
   138   154   153    1
   139   161   160    2
   140   161   163    1
   141    18    17    1
   142   170   172   ar
   143    16    13    1
   144    16    17    1
   145    13    12    1
   146    32    31    1
   147    29    31   ar
   148    29    27   ar
   149    31    30   ar
   150    27    26   ar
   151    10     9    1
   152     7     8    1
   153     7     6    1
   154     9     8    2
   155     9    11    1
   156     6     5    1
   157    30    28   ar
   158    26    28   ar
   159    26    25    1
   160    25    22    1
   161     5     2    1
   162    22    21    1
   163    22    23    1
   164     3     4    2
   165     3     2    1
   166     2     1    1
   167    24    23    2
