@<TRIPOS>MOLECULE
tmp/4j7cB00.pdb
 168 161 0 0 0
SMALL
GASTEIGER

@<TRIPOS>ATOM
      1  N         11.3520   26.2270   61.1070 N.3     7  ILE7       -0.1231
      2  CA        11.1990   24.8540   60.6350 C.3     7  ILE7        0.1692
      3  C         12.2970   24.5310   59.6240 C.2     7  ILE7        0.2593
      4  O         12.3660   25.1380   58.5530 O.2     7  ILE7       -0.2718
      5  CB         9.8240   24.6010   59.9910 C.3     7  ILE7        0.0266
      6  CG1        8.6990   24.9590   60.9610 C.3     7  ILE7        0.0019
      7  CG2        9.7050   23.1460   59.5650 C.3     7  ILE7        0.0020
      8  CD1        7.3270   24.9740   60.3280 C.3     7  ILE7        0.0001
      9  N         13.1440   23.5650   59.9690 N.am    8  GLY8       -0.1942
     10  CA        14.2700   23.1900   59.1280 C.3     8  GLY8        0.2014
     11  C         15.5660   23.7740   59.6390 C.2     8  GLY8        0.2639
     12  O         15.9120   24.9190   59.3330 O.2     8  GLY8       -0.2714
     13  N         16.2850   22.9800   60.4220 N.am    9  LEU9       -0.1963
     14  CA        17.5170   23.4410   61.0530 C.3     9  LEU9        0.1728
     15  C         18.7290   23.1970   60.1510 C.2     9  LEU9        0.2617
     16  O         19.6600   22.4640   60.5110 O.2     9  LEU9       -0.2715
     17  CB        17.7040   22.7910   62.4360 C.3     9  LEU9        0.0311
     18  CG        16.6180   23.0060   63.4980 C.3     9  LEU9        0.0022
     19  CD1       16.8600   22.1010   64.6950 C.3     9  LEU9        0.0001
     20  CD2       16.5360   24.4660   63.9270 C.3     9  LEU9        0.0001
     21  N         18.7060   23.8240   58.9750 N.am   10  GLY10      -0.1940
     22  CA        19.8150   23.7340   58.0330 C.3    10  GLY10       0.2014
     23  C         21.0040   24.5190   58.5370 C.2    10  GLY10       0.2639
     24  O         21.1410   24.7560   59.7400 O.2    10  GLY10      -0.2714
     25  N         21.8810   24.9120   57.6190 N.am   11  ARG11      -0.1963
     26  CA        22.9530   25.8480   57.9540 C.3    11  ARG11       0.1729
     27  C         22.3470   27.2410   57.9690 C.2    11  ARG11       0.2616
     28  O         22.7690   28.1040   58.7410 O.2    11  ARG11      -0.2715
     29  CB        24.1050   25.7670   56.9510 C.3    11  ARG11       0.0348
     30  CG        24.8800   24.4570   56.9870 C.3    11  ARG11       0.0492
     31  CD        25.7250   24.2580   55.7350 C.3    11  ARG11       0.2205
     32  NE        24.9340   24.3880   54.5120 N.pl3  11  ARG11      -0.0865
     33  CZ        25.4200   24.2800   53.2800 C.cat  11  ARG11       0.5346
     34  NH1       26.7150   24.0370   53.0870 N.pl3  11  ARG11       0.1354
     35  NH2       24.6060   24.4210   52.2390 N.pl3  11  ARG11       0.1354
     36  N         21.3410   27.4380   57.1170 N.am   12  PHE12      -0.1960
     37  CA        20.5980   28.6850   57.0590 C.3    12  PHE12       0.1771
     38  C         19.6230   28.7910   58.2300 C.2    12  PHE12       0.2620
     39  O         19.6930   29.7410   59.0170 O.2    12  PHE12      -0.2715
     40  CB        19.8630   28.8200   55.7190 C.3    12  PHE12       0.0574
     41  CG        19.1010   30.1120   55.5730 C.ar   12  PHE12      -0.0200
     42  CD1       19.7320   31.3420   55.7780 C.ar   12  PHE12      -0.0042
     43  CD2       17.7530   30.1040   55.2260 C.ar   12  PHE12      -0.0042
     44  CE1       19.0310   32.5320   55.6460 C.ar   12  PHE12      -0.0003
     45  CE2       17.0480   31.2920   55.0900 C.ar   12  PHE12      -0.0003
     46  CZ        17.6870   32.5060   55.2990 C.ar   12  PHE12      -0.0000
     47  N         18.7260   27.8110   58.3450 N.am   13  GLY13      -0.1954
     48  CA        17.7270   27.7960   59.4200 C.3    13  GLY13       0.1869
     49  C         18.3570   27.8500   60.7950 C.2    13  GLY13       0.2309
     50  O         18.0220   28.6970   61.6260 O.2    13  GLY13      -0.2863
     51  N         12.2930   23.5360   64.9710 N.3    30  VAL30      -0.1231
     52  CA        11.6430   22.3150   64.5090 C.3    30  VAL30       0.1692
     53  C         12.4950   21.6330   63.4440 C.2    30  VAL30       0.2592
     54  O         13.0690   22.2960   62.5770 O.2    30  VAL30      -0.2718
     55  CB        10.2450   22.6020   63.9270 C.3    30  VAL30       0.0266
     56  CG1        9.4970   21.3010   63.6600 C.3    30  VAL30       0.0020
     57  CG2        9.4480   23.4950   64.8640 C.3    30  VAL30       0.0020
     58  N         12.5730   20.3080   63.5150 N.am   31  ASP31      -0.1960
     59  CA        13.2710   19.5140   62.5100 C.3    31  ASP31       0.1840
     60  C         12.8220   18.0560   62.5750 C.2    31  ASP31       0.2622
     61  O         12.5450   17.5280   63.6490 O.2    31  ASP31      -0.2715
     62  CB        14.7890   19.6210   62.6940 C.3    31  ASP31       0.1450
     63  CG        15.5540   19.2980   61.4280 C.2    31  ASP31       0.3671
     64  OD1       16.1910   20.2170   60.8690 O.co2  31  ASP31      -0.2456
     65  OD2       15.5110   18.1280   60.9860 O.co2  31  ASP31      -0.2456
     66  N         12.7470   17.4090   61.4200 N.am   32  ILE32      -0.1963
     67  CA        12.3370   16.0160   61.3630 C.3    32  ILE32       0.1727
     68  C         13.4700   15.1070   61.8390 C.2    32  ILE32       0.2616
     69  O         13.2270   14.0170   62.3510 O.2    32  ILE32      -0.2715
     70  CB        11.8270   15.6180   59.9530 C.3    32  ILE32       0.0290
     71  CG1       11.0990   14.2650   60.0040 C.3    32  ILE32       0.0022
     72  CG2       12.9610   15.6230   58.9310 C.3    32  ILE32       0.0023
     73  CD1       10.3860   13.8700   58.7270 C.3    32  ILE32       0.0001
     74  N         14.7050   15.5710   61.6760 N.am   33  ASN33      -0.1972
     75  CA        15.8700   14.8050   62.0900 C.3    33  ASN33       0.1688
     76  C         16.1290   15.0080   63.5690 C.2    33  ASN33       0.2292
     77  O         16.3440   16.1370   64.0150 O.2    33  ASN33      -0.2864
     78  CB        17.1030   15.2090   61.2800 C.3    33  ASN33       0.1181
     79  CG        18.3510   14.4750   61.7240 C.2    33  ASN33       0.2629
     80  OD1       19.2060   15.0370   62.4050 O.2    33  ASN33      -0.2716
     81  ND2       18.4510   13.2050   61.3580 N.am   33  ASN33      -0.0877
     82  N         19.4500   16.7550   64.7200 N.3    36  LYS36      -0.1245
     83  CA        19.4770   18.2020   64.4880 C.3    36  LYS36       0.1561
     84  C         18.8180   18.9590   65.6280 C.2    36  LYS36       0.2260
     85  O         19.3220   19.9990   66.0630 O.2    36  LYS36      -0.2867
     86  CB        18.7850   18.5670   63.1670 C.3    36  LYS36       0.0271
     87  CG        19.6220   18.3440   61.9150 C.3    36  LYS36       0.0035
     88  CD        20.5850   19.4950   61.6490 C.3    36  LYS36       0.0206
     89  CE        21.4270   19.2550   60.4010 C.3    36  LYS36       0.1093
     90  NZ        20.6160   19.0570   59.1660 N.3    36  LYS36      -0.1314
     91  N          9.6570   17.1030   64.7890 N.3    50  ALA50      -0.1231
     92  CA         8.3550   17.0880   64.1170 C.3    50  ALA50       0.1694
     93  C          8.4690   17.1270   62.5940 C.2    50  ALA50       0.2592
     94  O          9.3320   17.8160   62.0460 O.2    50  ALA50      -0.2718
     95  CB         7.4960   18.2440   64.6080 C.3    50  ALA50       0.0304
     96  N          7.5890   16.3850   61.9250 N.am   51  ASN51      -0.1960
     97  CA         7.5120   16.3970   60.4720 C.3    51  ASN51       0.1819
     98  C          6.5480   17.4760   59.9980 C.2    51  ASN51       0.2621
     99  O          5.3330   17.2840   60.0060 O.2    51  ASN51      -0.2715
    100  CB         7.0780   15.0280   59.9490 C.3    51  ASN51       0.1195
    101  CG         7.0490   14.9610   58.4360 C.2    51  ASN51       0.2630
    102  OD1        6.9950   15.9820   57.7510 O.2    51  ASN51      -0.2716
    103  ND2        7.0820   13.7460   57.9080 N.am   51  ASN51      -0.0877
    104  N          7.1060   18.5970   59.5530 N.am   52  ALA52      -0.1963
    105  CA         6.3310   19.7940   59.2410 C.3    52  ALA52       0.1728
    106  C          5.2840   19.6360   58.1370 C.2    52  ALA52       0.2616
    107  O          4.4490   20.5170   57.9600 O.2    52  ALA52      -0.2715
    108  CB         7.2590   20.9530   58.9310 C.3    52  ALA52       0.0334
    109  N          5.3170   18.5240   57.4060 N.am   53  THR53      -0.1951
    110  CA         4.3150   18.2770   56.3590 C.3    53  THR53       0.1897
    111  C          3.0360   17.6330   56.8960 C.2    53  THR53       0.2313
    112  O          1.9950   17.6810   56.2370 O.2    53  THR53      -0.2863
    113  CB         4.8580   17.4160   55.2050 C.3    53  THR53       0.1794
    114  OG1        5.3570   16.1780   55.7200 O.3    53  THR53      -0.2208
    115  CG2        5.9620   18.1420   54.4750 C.3    53  THR53       0.0378
    116  N         13.1360   26.9690   56.4190 N.3    72  ALA72      -0.1231
    117  CA        14.4780   26.9010   55.8570 C.3    72  ALA72       0.1694
    118  C         14.8040   25.4970   55.3550 C.2    72  ALA72       0.2592
    119  O         15.8870   24.9710   55.6040 O.2    72  ALA72      -0.2718
    120  CB        15.5000   27.3660   56.8790 C.3    72  ALA72       0.0304
    121  N         13.8440   24.8900   54.6650 N.am   73  ILE73      -0.1966
    122  CA        14.0800   23.6660   53.9100 C.3    73  ILE73       0.1727
    123  C         14.2710   24.0870   52.4590 C.2    73  ILE73       0.2617
    124  O         13.3270   24.5420   51.8000 O.2    73  ILE73      -0.2715
    125  CB        12.9210   22.6520   54.0470 C.3    73  ILE73       0.0290
    126  CG1       12.7530   22.2270   55.5140 C.3    73  ILE73       0.0022
    127  CG2       13.1690   21.4330   53.1650 C.3    73  ILE73       0.0023
    128  CD1       11.4310   21.5620   55.8390 C.3    73  ILE73       0.0001
    129  N         15.5050   23.9520   51.9790 N.am   74  GLY74      -0.1940
    130  CA        15.8760   24.4210   50.6520 C.3    74  GLY74       0.2014
    131  C         16.2990   23.3360   49.6810 C.2    74  GLY74       0.2639
    132  O         16.4410   23.6040   48.4910 O.2    74  GLY74      -0.2714
    133  N         16.5100   22.1190   50.1810 N.am   75  ALA75      -0.1963
    134  CA        16.8860   20.9810   49.3290 C.3    75  ALA75       0.1728
    135  C         15.6700   20.1650   48.8880 C.2    75  ALA75       0.2616
    136  O         15.5790   19.7340   47.7390 O.2    75  ALA75      -0.2715
    137  CB        17.9090   20.0940   50.0230 C.3    75  ALA75       0.0334
    138  N         14.7380   19.9570   49.8070 N.am   76  ASN76      -0.1972
    139  CA        13.5100   19.2490   49.4990 C.3    76  ASN76       0.1688
    140  C         12.4170   20.2410   49.1000 C.2    76  ASN76       0.2292
    141  O         11.9200   20.9970   49.9360 O.2    76  ASN76      -0.2864
    142  CB        13.0830   18.4160   50.7100 C.3    76  ASN76       0.1181
    143  CG        12.0420   17.3670   50.3700 C.2    76  ASN76       0.2629
    144  OD1       11.1400   17.5920   49.5580 O.2    76  ASN76      -0.2716
    145  ND2       12.1510   16.2140   51.0150 N.am   76  ASN76      -0.0877
    146  N          8.8790   18.8770   50.6290 N.3    79  ALA79      -0.1245
    147  CA         8.7510   19.2210   52.0410 C.3    79  ALA79       0.1562
    148  C          8.4250   20.7010   52.1950 C.2    79  ALA79       0.2260
    149  O          7.4720   21.0520   52.8890 O.2    79  ALA79      -0.2867
    150  CB        10.0150   18.8650   52.8110 C.3    79  ALA79       0.0290
    151  N         12.7160   29.5180   52.4400 N.3    98  LYS98      -0.1245
    152  CA        13.9260   29.3790   51.6580 C.3    98  LYS98       0.1561
    153  C         13.5540   28.6500   50.3780 C.2    98  LYS98       0.2260
    154  O         12.8260   27.6500   50.4190 O.2    98  LYS98      -0.2867
    155  CB        14.9740   28.5930   52.4400 C.3    98  LYS98       0.0271
    156  CG        16.3310   28.5100   51.7640 C.3    98  LYS98       0.0035
    157  CD        17.2850   27.6410   52.5650 C.3    98  LYS98       0.0206
    158  CE        18.5710   27.3910   51.8020 C.3    98  LYS98       0.1093
    159  NZ        19.6200   26.8500   52.7010 N.3    98  LYS98      -0.1314
    160  N         21.7570   31.4620   49.0270 N.3   120  GLU120     -0.1245
    161  CA        22.9330   31.0720   48.2710 C.3   120  GLU120      0.1567
    162  C         23.1350   31.9310   47.0190 C.2   120  GLU120      0.2260
    163  O         24.2240   32.4850   46.8310 O.2   120  GLU120     -0.2867
    164  CB        22.8770   29.5820   47.9200 C.3   120  GLU120      0.0388
    165  CG        23.0950   28.6470   49.1080 C.3   120  GLU120      0.1160
    166  CD        21.8210   28.3220   49.8750 C.2   120  GLU120      0.3649
    167  OE1       20.7270   28.7870   49.4770 O.co2 120  GLU120     -0.2457
    168  OE2       21.9240   27.5860   50.8820 O.co2 120  GLU120     -0.2457
@<TRIPOS>BOND
     1   163   162    2
     2   162   161    1
     3   136   135    2
     4   164   161    1
     5   164   165    1
     6   161   160    1
     7   132   131    2
     8   135   134    1
     9   135   138   am
    10   140   139    1
    11   140   141    2
    12   165   166    1
    13   134   137    1
    14   134   133    1
    15   167   166   ar
    16   139   138    1
    17   139   142    1
    18   144   143    2
    19   131   133   am
    20   131   130    1
    21   166   168   ar
    22   143   142    1
    23   143   145   am
    24   153   154    2
    25   153   152    1
    26   146   147    1
    27   130   129    1
    28   152   155    1
    29   152   151    1
    30   156   155    1
    31   156   157    1
    32   124   123    2
    33   158   157    1
    34   158   159    1
    35   129   123   am
    36   147   148    1
    37   147   150    1
    38   148   149    2
    39    35    33    1
    40   123   122    1
    41    34    33    1
    42   127   125    1
    43    33    32    2
    44   122   125    1
    45   122   121    1
    46   125   126    1
    47   115   113    1
    48    32    31    1
    49   121   118   am
    50    45    43   ar
    51    45    46   ar
    52   113   114    1
    53   113   110    1
    54    43    41   ar
    55    46    44   ar
    56   118   119    2
    57   118   117    1
    58   126   128    1
    59    41    40    1
    60    41    42   ar
    61    44    42   ar
    62    40    37    1
    63    31    30    1
    64   117   116    1
    65   117   120    1
    66   112   111    2
    67   110   111    1
    68   110   109    1
    69    29    30    1
    70    29    26    1
    71    37    36    1
    72    37    38    1
    73    36    27   am
    74   109   106   am
    75    25    26    1
    76    25    23   am
    77   102   101    2
    78   103   101   am
    79    26    27    1
    80   107   106    2
    81    27    28    2
    82    22    23    1
    83    22    21    1
    84   106   105    1
    85    38    47   am
    86    38    39    2
    87    47    48    1
    88   101   100    1
    89    23    24    2
    90     4     3    2
    91    73    71    1
    92    72    70    1
    93   108   105    1
    94    21    15   am
    95    10    11    1
    96    10     9    1
    97    90    89    1
    98   105   104    1
    99    12    11    2
   100    48    49    1
   101   104    98   am
   102     7     5    1
   103     3     9   am
   104     3     2    1
   105    11    13   am
   106   100    97    1
   107    70    71    1
   108    70    67    1
   109     5     2    1
   110     5     6    1
   111    98    99    2
   112    98    97    1
   113    15    16    2
   114    15    14    1
   115     8     6    1
   116    89    88    1
   117    13    14    1
   118    97    96    1
   119     2     1    1
   120    49    50    2
   121    64    63   ar
   122    65    63   ar
   123    14    17    1
   124    78    79    1
   125    78    75    1
   126    81    79   am
   127    67    66    1
   128    67    68    1
   129    66    60   am
   130    63    62    1
   131    88    87    1
   132    74    68   am
   133    74    75    1
   134    79    80    2
   135    68    69    2
   136    87    86    1
   137    96    93   am
   138    94    93    2
   139    75    76    1
   140    17    18    1
   141    59    60    1
   142    59    62    1
   143    59    58    1
   144    60    61    2
   145    54    53    2
   146    93    92    1
   147    86    83    1
   148    53    58   am
   149    53    52    1
   150    18    20    1
   151    18    19    1
   152    76    77    2
   153    56    55    1
   154    55    52    1
   155    55    57    1
   156    92    95    1
   157    92    91    1
   158    83    82    1
   159    83    84    1
   160    52    51    1
   161    84    85    2
