@<TRIPOS>MOLECULE
tmp/4j7dA00.pdb
 155 151 0 0 0
SMALL
GASTEIGER

@<TRIPOS>ATOM
      1  N         -6.1630    0.5620   -7.2610 N.3    31  LEU31      -0.1231
      2  CA        -5.7710    1.0950   -5.9590 C.3    31  LEU31       0.1693
      3  C         -5.7570    2.6180   -5.9530 C.2    31  LEU31       0.2592
      4  O         -6.2060    3.2510   -4.9990 O.2    31  LEU31      -0.2718
      5  CB        -4.3840    0.5730   -5.5790 C.3    31  LEU31       0.0284
      6  CG        -4.2970   -0.9240   -5.2870 C.3    31  LEU31       0.0019
      7  CD1       -2.8360   -1.3360   -5.1900 C.3    31  LEU31       0.0001
      8  CD2       -5.0420   -1.2380   -3.9950 C.3    31  LEU31       0.0001
      9  N         -5.2400    3.2080   -7.0240 N.am   32  TYR32      -0.1976
     10  CA        -5.2120    4.6570   -7.1430 C.3    32  TYR32       0.1639
     11  C         -6.6200    5.2440   -7.0580 C.2    32  TYR32       0.2290
     12  O         -6.8690    6.1730   -6.2880 O.2    32  TYR32      -0.2864
     13  CB        -4.5630    5.0670   -8.4670 C.3    32  TYR32       0.0560
     14  CG        -4.7610    6.5260   -8.7980 C.ar   32  TYR32      -0.0198
     15  CD1       -3.9740    7.5060   -8.2050 C.ar   32  TYR32      -0.0009
     16  CD2       -5.7560    6.9290   -9.6790 C.ar   32  TYR32      -0.0009
     17  CE1       -4.1760    8.8450   -8.4780 C.ar   32  TYR32       0.0417
     18  CE2       -5.9670    8.2660   -9.9580 C.ar   32  TYR32       0.0417
     19  CZ        -5.1750    9.2200   -9.3530 C.ar   32  TYR32       0.1957
     20  OH        -5.3950   10.5530   -9.6180 O.3    32  TYR32      -0.2866
     21  N         -9.3730    3.8980   -5.9090 N.3    34  LEU34      -0.1231
     22  CA        -9.9630    3.6570   -4.5960 C.3    34  LEU34       0.1693
     23  C         -9.5180    4.7230   -3.6000 C.2    34  LEU34       0.2592
     24  O        -10.3290    5.2490   -2.8380 O.2    34  LEU34      -0.2718
     25  CB        -9.5710    2.2690   -4.0820 C.3    34  LEU34       0.0284
     26  CG       -10.3540    1.0940   -4.6740 C.3    34  LEU34       0.0019
     27  CD1       -9.6440   -0.2080   -4.3560 C.3    34  LEU34       0.0001
     28  CD2      -11.7690    1.0800   -4.1130 C.3    34  LEU34       0.0001
     29  N         -8.2290    5.0470   -3.6100 N.am   35  GLY35      -0.1957
     30  CA        -7.7410    6.1180   -2.7590 C.3    35  GLY35       0.1869
     31  C         -8.4290    7.4350   -3.0680 C.2    35  GLY35       0.2309
     32  O         -8.8490    8.1540   -2.1580 O.2    35  GLY35      -0.2863
     33  N        -12.0290    7.4390   -1.6620 N.3    38  ILE38      -0.1231
     34  CA       -12.0560    7.6040   -0.2180 C.3    38  ILE38       0.1692
     35  C        -11.7540    9.0460    0.1830 C.2    38  ILE38       0.2591
     36  O        -12.4140    9.6050    1.0630 O.2    38  ILE38      -0.2718
     37  CB       -11.0420    6.6490    0.4400 C.3    38  ILE38       0.0266
     38  CG1      -11.5180    5.2050    0.2580 C.3    38  ILE38       0.0019
     39  CG2      -10.8610    6.9940    1.9110 C.3    38  ILE38       0.0020
     40  CD1      -10.4470    4.1640    0.5110 C.3    38  ILE38       0.0001
     41  N        -10.7630    9.6490   -0.4680 N.am   39  MET39      -0.1979
     42  CA       -10.3910   11.0300   -0.1720 C.3    39  MET39       0.1605
     43  C        -11.4920   12.0180   -0.5610 C.2    39  MET39       0.2287
     44  O        -11.8320   12.9100    0.2140 O.2    39  MET39      -0.2864
     45  CB        -9.0910   11.4040   -0.8920 C.3    39  MET39       0.0413
     46  CG        -7.8560   10.6640   -0.3880 C.3    39  MET39       0.0598
     47  SD        -7.5860   10.8570    1.3910 S.3    39  MET39      -0.1393
     48  CE        -7.4890   12.6440    1.5480 C.3    39  MET39       0.0692
     49  N        -12.6050    8.6230    5.2880 N.3    44  TYR44      -0.1241
     50  CA       -11.6160    8.3750    6.3280 C.3    44  TYR44       0.1605
     51  C        -11.9520    9.1330    7.6090 C.2    44  TYR44       0.2264
     52  O        -12.6220   10.1680    7.5810 O.2    44  TYR44      -0.2867
     53  CB       -10.2170    8.7630    5.8360 C.3    44  TYR44       0.0534
     54  CG       -10.0690   10.2120    5.4350 C.ar   44  TYR44      -0.0201
     55  CD1       -9.5700   11.1540    6.3280 C.ar   44  TYR44      -0.0009
     56  CD2      -10.3990   10.6350    4.1540 C.ar   44  TYR44      -0.0009
     57  CE1       -9.4040   12.4750    5.9510 C.ar   44  TYR44       0.0417
     58  CE2      -10.2340   11.9490    3.7700 C.ar   44  TYR44       0.0417
     59  CZ        -9.7360   12.8650    4.6710 C.ar   44  TYR44       0.1957
     60  OH        -9.5690   14.1750    4.2790 O.3    44  TYR44      -0.2866
     61  N         -6.6300    9.1480   10.1840 N.3    49  GLN49      -0.1231
     62  CA        -6.9390    9.2030    8.7620 C.3    49  GLN49       0.1698
     63  C         -6.6170    7.9290    7.9930 C.2    49  GLN49       0.2592
     64  O         -6.9710    7.8060    6.8230 O.2    49  GLN49      -0.2718
     65  CB        -6.2220   10.3900    8.1110 C.3    49  GLN49       0.0381
     66  CG        -6.6520   11.7390    8.6640 C.3    49  GLN49       0.0905
     67  CD        -6.1440   12.9110    7.8420 C.2    49  GLN49       0.2608
     68  OE1       -5.3980   12.7370    6.8780 O.2    49  GLN49      -0.2717
     69  NE2       -6.5470   14.1140    8.2240 N.am   49  GLN49      -0.0878
     70  N         -5.9520    6.9840    8.6470 N.am   50  HIS50      -0.1976
     71  CA        -5.7120    5.6770    8.0470 C.3    50  HIS50       0.1656
     72  C         -6.9250    4.7560    8.1860 C.2    50  HIS50       0.2291
     73  O         -6.9780    3.6920    7.5680 O.2    50  HIS50      -0.2864
     74  CB        -4.4990    5.0200    8.7000 C.3    50  HIS50       0.0771
     75  CG        -4.5790    4.9750   10.1910 C.ar   50  HIS50       0.0820
     76  ND1       -4.4010    6.0940   10.9760 N.ar   50  HIS50      -0.2267
     77  CD2       -4.8460    3.9560   11.0410 C.ar   50  HIS50       0.1154
     78  CE1       -4.5560    5.7660   12.2460 C.ar   50  HIS50       0.1986
     79  NE2       -4.8270    4.4740   12.3130 N.ar   50  HIS50      -0.2212
     80  N        -18.6560    1.0170   -1.0460 N.3    59  LEU59      -0.1245
     81  CA       -17.3600    0.4490   -0.6820 C.3    59  LEU59       0.1561
     82  C        -17.5250   -0.6000    0.4190 C.2    59  LEU59       0.2260
     83  O        -16.8340   -1.6240    0.4280 O.2    59  LEU59      -0.2867
     84  CB       -16.4010    1.5520   -0.2220 C.3    59  LEU59       0.0270
     85  CG       -14.9850    1.1060    0.1640 C.3    59  LEU59       0.0019
     86  CD1      -14.3090    0.3810   -0.9940 C.3    59  LEU59       0.0001
     87  CD2      -14.1740    2.3270    0.5730 C.3    59  LEU59       0.0001
     88  N        -16.3760   -4.4960    0.0520 N.3    63  PHE63      -0.1241
     89  CA       -15.3370   -5.0470    0.9080 C.3    63  PHE63       0.1605
     90  C        -15.9160   -5.9200    2.0190 C.2    63  PHE63       0.2264
     91  O        -15.1900   -6.6760    2.6630 O.2    63  PHE63      -0.2867
     92  CB       -14.5000   -3.9130    1.5120 C.3    63  PHE63       0.0534
     93  CG       -13.4690   -3.3410    0.5700 C.ar   63  PHE63      -0.0203
     94  CD1      -12.4540   -2.5310    1.0510 C.ar   63  PHE63      -0.0042
     95  CD2      -13.5010   -3.6290   -0.7880 C.ar   63  PHE63      -0.0042
     96  CE1      -11.4900   -2.0200    0.2030 C.ar   63  PHE63      -0.0003
     97  CE2      -12.5350   -3.1190   -1.6430 C.ar   63  PHE63      -0.0003
     98  CZ       -11.5300   -2.3150   -1.1450 C.ar   63  PHE63      -0.0000
     99  N        -12.1130   -0.3560    7.8670 N.3    68  PHE68      -0.1241
    100  CA       -10.8270   -1.0220    7.7100 C.3    68  PHE68       0.1605
    101  C         -9.7170    0.0130    7.7610 C.2    68  PHE68       0.2264
    102  O         -9.9730    1.2100    7.6520 O.2    68  PHE68      -0.2867
    103  CB       -10.7690   -1.8000    6.3850 C.3    68  PHE68       0.0534
    104  CG       -10.8410   -0.9310    5.1560 C.ar   68  PHE68      -0.0203
    105  CD1       -9.6840   -0.5300    4.5050 C.ar   68  PHE68      -0.0042
    106  CD2      -12.0640   -0.5380    4.6370 C.ar   68  PHE68      -0.0042
    107  CE1       -9.7480    0.2440    3.3580 C.ar   68  PHE68      -0.0003
    108  CE2      -12.1330    0.2370    3.4900 C.ar   68  PHE68      -0.0003
    109  CZ       -10.9740    0.6260    2.8510 C.ar   68  PHE68      -0.0000
    110  N         -6.1680    1.4260    6.0230 N.3    70  VAL70      -0.1231
    111  CA        -5.4610    1.4060    4.7480 C.3    70  VAL70       0.1692
    112  C         -4.1470    0.6410    4.8530 C.2    70  VAL70       0.2591
    113  O         -3.5200    0.3410    3.8390 O.2    70  VAL70      -0.2718
    114  CB        -5.1600    2.8330    4.2280 C.3    70  VAL70       0.0266
    115  CG1       -6.4560    3.6040    4.0510 C.3    70  VAL70       0.0020
    116  CG2       -4.2190    3.5560    5.1790 C.3    70  VAL70       0.0020
    117  N         -3.7360    0.3210    6.0770 N.am   71  LYS71      -0.1980
    118  CA        -2.4960   -0.4200    6.2950 C.3    71  LYS71       0.1596
    119  C         -2.6740   -1.9240    6.0780 C.2    71  LYS71       0.2287
    120  O         -1.6960   -2.6670    6.0180 O.2    71  LYS71      -0.2864
    121  CB        -1.9720   -0.1600    7.7100 C.3    71  LYS71       0.0298
    122  CG        -1.7990    1.3140    8.0360 C.3    71  LYS71       0.0038
    123  CD        -1.0230    1.5190    9.3240 C.3    71  LYS71       0.0206
    124  CE        -0.7540    2.9960    9.5630 C.3    71  LYS71       0.1093
    125  NZ         0.1870    3.2240   10.6950 N.3    71  LYS71      -0.1314
    126  N         -2.8870   -4.2570    3.8240 N.3    73  HIS73      -0.1241
    127  CA        -2.7260   -4.4840    2.3930 C.3    73  HIS73       0.1621
    128  C         -3.1990   -5.8530    1.9250 C.2    73  HIS73       0.2264
    129  O         -3.9050   -5.9570    0.9260 O.2    73  HIS73      -0.2867
    130  CB        -1.2710   -4.2630    1.9800 C.3    73  HIS73       0.0745
    131  CG        -0.8770   -2.8210    1.9230 C.ar   73  HIS73       0.0817
    132  ND1        0.1670   -2.3620    1.1500 N.ar   73  HIS73      -0.2268
    133  CD2       -1.3980   -1.7310    2.5370 C.ar   73  HIS73       0.1154
    134  CE1        0.2730   -1.0530    1.2890 C.ar   73  HIS73       0.1986
    135  NE2       -0.6650   -0.6460    2.1250 N.ar   73  HIS73      -0.2212
    136  N         -6.9370   -5.9120    1.8960 N.3    76  ILE76      -0.1231
    137  CA        -7.4790   -5.0600    0.8490 C.3    76  ILE76       0.1692
    138  C         -7.3240   -5.7000   -0.5310 C.2    76  ILE76       0.2592
    139  O         -8.2400   -5.6450   -1.3510 O.2    76  ILE76      -0.2718
    140  CB        -6.8120   -3.6640    0.8860 C.3    76  ILE76       0.0266
    141  CG1       -7.2850   -2.9170    2.1370 C.3    76  ILE76       0.0019
    142  CG2       -7.1460   -2.8810   -0.3770 C.3    76  ILE76       0.0020
    143  CD1       -6.4830   -1.6840    2.4750 C.3    76  ILE76       0.0001
    144  N         -6.1810   -6.3330   -0.7850 N.am   77  TYR77      -0.1976
    145  CA        -6.0030   -7.0600   -2.0380 C.3    77  TYR77       0.1639
    146  C         -7.0430   -8.1680   -2.1890 C.2    77  TYR77       0.2290
    147  O         -7.5900   -8.3740   -3.2740 O.2    77  TYR77      -0.2864
    148  CB        -4.6000   -7.6700   -2.1180 C.3    77  TYR77       0.0560
    149  CG        -3.5170   -6.6860   -2.4900 C.ar   77  TYR77      -0.0198
    150  CD1       -2.4190   -6.4850   -1.6620 C.ar   77  TYR77      -0.0009
    151  CD2       -3.5820   -5.9690   -3.6780 C.ar   77  TYR77      -0.0009
    152  CE1       -1.4150   -5.6010   -2.0100 C.ar   77  TYR77       0.0417
    153  CE2       -2.5820   -5.0820   -4.0330 C.ar   77  TYR77       0.0417
    154  CZ        -1.5020   -4.9040   -3.1970 C.ar   77  TYR77       0.1957
    155  OH        -0.4990   -4.0310   -3.5530 O.3    77  TYR77      -0.2866
@<TRIPOS>BOND
     1    18    16   ar
     2    18    19   ar
     3    16    14   ar
     4    20    19    1
     5    19    17   ar
     6    14    13    1
     7    14    15   ar
     8    17    15   ar
     9    13    10    1
    10     1     2    1
    11    10    11    1
    12    10     9    1
    13    11    12    2
    14     9     3   am
    15     2     3    1
    16     2     5    1
    17     3     4    2
    18    21    22    1
    19     5     6    1
    20     6     7    1
    21     6     8    1
    22    26    27    1
    23    26    28    1
    24    26    25    1
    25    22    25    1
    26    22    23    1
    27   153   151   ar
    28   153   154   ar
    29   151   149   ar
    30    29    23   am
    31    29    30    1
    32    23    24    2
    33   155   154    1
    34   147   146    2
    35   154   152   ar
    36    31    30    1
    37    31    32    2
    38   149   148    1
    39   149   150   ar
    40   146   145    1
    41   148   145    1
    42   145   144    1
    43   152   150   ar
    44    33    34    1
    45    97    98   ar
    46    97    95   ar
    47   139   138    2
    48    98    96   ar
    49    80    81    1
    50    86    85    1
    51    45    46    1
    52    45    42    1
    53    95    93   ar
    54   144   138   am
    55    81    84    1
    56    81    82    1
    57    43    42    1
    58    43    44    2
    59   138   137    1
    60    41    42    1
    61    41    35   am
    62    46    47    1
    63   142   140    1
    64    84    85    1
    65    34    35    1
    66    34    37    1
    67    88    89    1
    68    85    87    1
    69    35    36    2
    70    96    94   ar
    71    38    37    1
    72    38    40    1
    73    82    83    2
    74    37    39    1
    75    93    94   ar
    76    93    92    1
    77   137   140    1
    78   137   136    1
    79   140   141    1
    80    89    92    1
    81    89    90    1
    82   129   128    2
    83   132   134   ar
    84   132   131   ar
    85   134   135   ar
    86    47    48    1
    87   131   130    1
    88   131   133   ar
    89   128   127    1
    90   130   127    1
    91    90    91    2
    92   135   133   ar
    93   141   143    1
    94   127   126    1
    95   109   107   ar
    96   109   108   ar
    97   107   105   ar
    98   108   106   ar
    99    58    56   ar
   100    58    59   ar
   101   113   112    2
   102   115   114    1
   103    56    54   ar
   104   114   111    1
   105   114   116    1
   106    60    59    1
   107   105   104   ar
   108   106   104   ar
   109    59    57   ar
   110   111   112    1
   111   111   110    1
   112   112   117   am
   113   104   103    1
   114    49    50    1
   115    54    53    1
   116    54    55   ar
   117    53    50    1
   118    57    55   ar
   119   120   119    2
   120   117   118    1
   121   119   118    1
   122   118   121    1
   123    50    51    1
   124   103   100    1
   125    64    63    2
   126    68    67    2
   127    73    72    2
   128    52    51    2
   129   102   101    2
   130   100   101    1
   131   100    99    1
   132   121   122    1
   133    67    69   am
   134    67    66    1
   135    63    70   am
   136    63    62    1
   137   122   123    1
   138    71    72    1
   139    71    70    1
   140    71    74    1
   141    65    66    1
   142    65    62    1
   143    74    75    1
   144    62    61    1
   145   123   124    1
   146   124   125    1
   147    75    76   ar
   148    75    77   ar
   149    76    78   ar
   150    77    79   ar
   151    78    79   ar
