@<TRIPOS>MOLECULE
tmp/4j7eA00.pdb
 126 122 0 0 0
SMALL
GASTEIGER

@<TRIPOS>ATOM
      1  N         -8.8270   -9.7100   -5.3970 N.3    31  LEU31      -0.1231
      2  CA        -9.6800   -9.8830   -4.2260 C.3    31  LEU31       0.1693
      3  C        -10.0540   -8.5450   -3.5980 C.2    31  LEU31       0.2592
      4  O        -11.1870   -8.3520   -3.1510 O.2    31  LEU31      -0.2718
      5  CB        -8.9680  -10.7680   -3.2010 C.3    31  LEU31       0.0284
      6  CG        -8.8780  -12.2270   -3.6590 C.3    31  LEU31       0.0019
      7  CD1       -7.7970  -12.9640   -2.8750 C.3    31  LEU31       0.0001
      8  CD2      -10.2410  -12.8850   -3.4860 C.3    31  LEU31       0.0001
      9  N         -9.1090   -7.6120   -3.5730 N.am   32  TYR32      -0.1976
     10  CA        -9.4100   -6.2930   -3.0410 C.3    32  TYR32       0.1639
     11  C        -10.5410   -5.6260   -3.8270 C.2    32  TYR32       0.2290
     12  O        -11.5150   -5.1560   -3.2390 O.2    32  TYR32      -0.2864
     13  CB        -8.1680   -5.3990   -3.0670 C.3    32  TYR32       0.0560
     14  CG        -8.4650   -3.9950   -2.6130 C.ar   32  TYR32      -0.0198
     15  CD1       -8.6560   -3.7070   -1.2640 C.ar   32  TYR32      -0.0009
     16  CD2       -8.6240   -2.9690   -3.5320 C.ar   32  TYR32      -0.0009
     17  CE1       -9.0050   -2.4340   -0.8510 C.ar   32  TYR32       0.0417
     18  CE2       -8.9710   -1.6980   -3.1290 C.ar   32  TYR32       0.0417
     19  CZ        -9.1630   -1.4350   -1.7910 C.ar   32  TYR32       0.1957
     20  OH        -9.5440   -0.1710   -1.4020 O.3    32  TYR32      -0.2866
     21  N        -12.7460   -6.9690   -5.8790 N.3    34  LEU34      -0.1231
     22  CA       -13.9710   -7.7420   -5.7250 C.3    34  LEU34       0.1693
     23  C        -14.6630   -7.3730   -4.4070 C.2    34  LEU34       0.2593
     24  O        -15.8790   -7.1790   -4.3670 O.2    34  LEU34      -0.2718
     25  CB       -13.6500   -9.2390   -5.7550 C.3    34  LEU34       0.0284
     26  CG       -14.8200  -10.2230   -5.7570 C.3    34  LEU34       0.0019
     27  CD1      -15.6380  -10.0450   -7.0300 C.3    34  LEU34       0.0001
     28  CD2      -14.2790  -11.6460   -5.6650 C.3    34  LEU34       0.0001
     29  N        -13.8750   -7.2650   -3.3390 N.am   35  GLY35      -0.1942
     30  CA       -14.4120   -6.8520   -2.0520 C.3    35  GLY35       0.2014
     31  C        -15.0230   -5.4610   -2.0790 C.2    35  GLY35       0.2638
     32  O        -16.0470   -5.2130   -1.4350 O.2    35  GLY35      -0.2714
     33  N        -14.4070   -4.5510   -2.8280 N.am   36  GLN36      -0.1977
     34  CA       -14.9340   -3.1990   -2.9610 C.3    36  GLN36       0.1601
     35  C        -16.2730   -3.1970   -3.6990 C.2    36  GLN36       0.2287
     36  O        -17.2080   -2.5030   -3.3020 O.2    36  GLN36      -0.2864
     37  CB       -13.9260   -2.3090   -3.7030 C.3    36  GLN36       0.0394
     38  CG       -12.6540   -2.0370   -2.9170 C.3    36  GLN36       0.0908
     39  CD       -12.9090   -1.1960   -1.6740 C.2    36  GLN36       0.2608
     40  OE1      -13.2670   -0.0220   -1.7710 O.2    36  GLN36      -0.2717
     41  NE2      -12.7280   -1.7940   -0.5010 N.am   36  GLN36      -0.0878
     42  N        -18.4650   -5.6630   -3.9330 N.3    38  ILE38      -0.1231
     43  CA       -19.4600   -6.2690   -3.0610 C.3    38  ILE38       0.1692
     44  C        -19.9600   -5.2750   -2.0180 C.2    38  ILE38       0.2591
     45  O        -21.1630   -5.1800   -1.7590 O.2    38  ILE38      -0.2718
     46  CB       -18.8560   -7.5010   -2.3610 C.3    38  ILE38       0.0266
     47  CG1      -18.6310   -8.6070   -3.3960 C.3    38  ILE38       0.0019
     48  CG2      -19.7500   -7.9520   -1.2160 C.3    38  ILE38       0.0020
     49  CD1      -17.8270   -9.7810   -2.8850 C.3    38  ILE38       0.0001
     50  N        -19.0310   -4.5290   -1.4300 N.am   39  MET39      -0.1979
     51  CA       -19.3780   -3.5340   -0.4220 C.3    39  MET39       0.1605
     52  C        -20.1960   -2.4170   -1.0560 C.2    39  MET39       0.2287
     53  O        -21.1860   -1.9680   -0.4870 O.2    39  MET39      -0.2864
     54  CB       -18.1060   -2.9550    0.2030 C.3    39  MET39       0.0413
     55  CG       -18.3450   -1.8710    1.2410 C.3    39  MET39       0.0598
     56  SD       -16.7870   -1.2410    1.8940 S.3    39  MET39      -0.1393
     57  CE       -15.8840   -2.7710    2.0940 C.3    39  MET39       0.0692
     58  N        -23.7650   -7.7910    1.0390 N.3    44  TYR44      -0.1241
     59  CA       -23.6540   -8.5300    2.2910 C.3    44  TYR44       0.1605
     60  C        -25.0170   -8.7080    2.9480 C.2    44  TYR44       0.2264
     61  O        -25.8780   -7.8330    2.8680 O.2    44  TYR44      -0.2867
     62  CB       -22.7180   -7.8150    3.2650 C.3    44  TYR44       0.0534
     63  CG       -21.2510   -7.9620    2.9260 C.ar   44  TYR44      -0.0201
     64  CD1      -20.5140   -6.8790    2.4720 C.ar   44  TYR44      -0.0009
     65  CD2      -20.6070   -9.1890    3.0560 C.ar   44  TYR44      -0.0009
     66  CE1      -19.1740   -7.0090    2.1550 C.ar   44  TYR44       0.0417
     67  CE2      -19.2730   -9.3310    2.7410 C.ar   44  TYR44       0.0417
     68  CZ       -18.5610   -8.2370    2.2890 C.ar   44  TYR44       0.1957
     69  OH       -17.2340   -8.3770    1.9530 O.3    44  TYR44      -0.2866
     70  N        -23.0500  -11.2350    8.5200 N.3    49  GLN49      -0.1245
     71  CA       -22.2620  -10.2770    7.7530 C.3    49  GLN49       0.1566
     72  C        -21.2270  -10.9190    6.8290 C.2    49  GLN49       0.2260
     73  O        -20.6530  -10.2420    5.9780 O.2    49  GLN49      -0.2867
     74  CB       -21.5600   -9.3100    8.7090 C.3    49  GLN49       0.0367
     75  CG       -22.4600   -8.7550    9.8040 C.3    49  GLN49       0.0905
     76  CD       -22.9390   -7.3470    9.5140 C.2    49  GLN49       0.2608
     77  OE1      -22.6190   -6.4090   10.2450 O.2    49  GLN49      -0.2717
     78  NE2      -23.7110   -7.1920    8.4470 N.am   49  GLN49      -0.0878
     79  N        -22.5250  -16.9210   -1.2460 N.3    68  PHE68      -0.1241
     80  CA       -21.3230  -17.5190   -0.6740 C.3    68  PHE68       0.1605
     81  C        -20.8770  -16.7710    0.5750 C.2    68  PHE68       0.2264
     82  O        -21.2830  -15.6320    0.8040 O.2    68  PHE68      -0.2867
     83  CB       -20.1870  -17.5560   -1.7100 C.3    68  PHE68       0.0534
     84  CG       -19.6890  -16.2000   -2.1240 C.ar   68  PHE68      -0.0203
     85  CD1      -18.5890  -15.6300   -1.4970 C.ar   68  PHE68      -0.0042
     86  CD2      -20.3060  -15.5060   -3.1540 C.ar   68  PHE68      -0.0042
     87  CE1      -18.1140  -14.3880   -1.8910 C.ar   68  PHE68      -0.0003
     88  CE2      -19.8350  -14.2660   -3.5530 C.ar   68  PHE68      -0.0003
     89  CZ       -18.7370  -13.7090   -2.9180 C.ar   68  PHE68      -0.0000
     90  N        -17.6950  -15.1770    2.8100 N.3    70  VAL70      -0.1245
     91  CA       -16.3390  -14.6790    2.6060 C.3    70  VAL70       0.1561
     92  C        -15.3170  -15.4900    3.3950 C.2    70  VAL70       0.2260
     93  O        -14.1100  -15.2750    3.2680 O.2    70  VAL70      -0.2867
     94  CB       -16.2120  -13.1870    2.9940 C.3    70  VAL70       0.0252
     95  CG1      -17.1620  -12.3460    2.1510 C.3    70  VAL70       0.0019
     96  CG2      -16.4950  -13.0000    4.4770 C.3    70  VAL70       0.0019
     97  N        -12.5560  -19.4400    1.5160 N.3    73  HIS73      -0.1241
     98  CA       -11.5110  -18.8820    0.6610 C.3    73  HIS73       0.1621
     99  C        -11.1540  -19.7690   -0.5170 C.2    73  HIS73       0.2264
    100  O        -10.9020  -19.2690   -1.6140 O.2    73  HIS73      -0.2867
    101  CB       -10.2550  -18.5770    1.4810 C.3    73  HIS73       0.0745
    102  CG       -10.4180  -17.4120    2.4070 C.ar   73  HIS73       0.0817
    103  ND1       -9.3550  -16.6540    2.8480 N.ar   73  HIS73      -0.2268
    104  CD2      -11.5250  -16.8690    2.9630 C.ar   73  HIS73       0.1154
    105  CE1       -9.8010  -15.6940    3.6380 C.ar   73  HIS73       0.1986
    106  NE2      -11.1140  -15.8020    3.7250 N.ar   73  HIS73      -0.2212
    107  N        -13.8040  -19.2320   -3.1170 N.3    76  ILE76      -0.1231
    108  CA       -13.6770  -17.9370   -3.7780 C.3    76  ILE76       0.1692
    109  C        -12.5160  -17.9290   -4.7770 C.2    76  ILE76       0.2592
    110  O        -12.6480  -17.4130   -5.8880 O.2    76  ILE76      -0.2718
    111  CB       -13.4870  -16.8110   -2.7380 C.3    76  ILE76       0.0266
    112  CG1      -14.7870  -16.6280   -1.9480 C.3    76  ILE76       0.0019
    113  CG2      -13.0690  -15.5160   -3.4260 C.3    76  ILE76       0.0020
    114  CD1      -14.6850  -15.6310   -0.8080 C.3    76  ILE76       0.0001
    115  N        -11.3840  -18.5120   -4.3930 N.am   77  TYR77      -0.1976
    116  CA       -10.2710  -18.6360   -5.3280 C.3    77  TYR77       0.1639
    117  C        -10.6800  -19.4360   -6.5560 C.2    77  TYR77       0.2290
    118  O        -10.3110  -19.0960   -7.6810 O.2    77  TYR77      -0.2864
    119  CB        -9.0710  -19.3050   -4.6570 C.3    77  TYR77       0.0560
    120  CG        -8.0900  -18.3210   -4.0780 C.ar   77  TYR77      -0.0198
    121  CD1       -8.4220  -17.5540   -2.9710 C.ar   77  TYR77      -0.0009
    122  CD2       -6.8270  -18.1630   -4.6330 C.ar   77  TYR77      -0.0009
    123  CE1       -7.5220  -16.6590   -2.4290 C.ar   77  TYR77       0.0417
    124  CE2       -5.9210  -17.2680   -4.0990 C.ar   77  TYR77       0.0417
    125  CZ        -6.2750  -16.5210   -2.9970 C.ar   77  TYR77       0.1957
    126  OH        -5.3810  -15.6230   -2.4620 O.3    77  TYR77      -0.2866
@<TRIPOS>BOND
     1   118   117    2
     2    27    26    1
     3   117   116    1
     4   110   109    2
     5    21    22    1
     6    26    25    1
     7    26    28    1
     8    25    22    1
     9    22    23    1
    10     1     2    1
    11   116   119    1
    12   116   115    1
    13   109   115   am
    14   109   108    1
    15   119   120    1
    16   122   124   ar
    17   122   120   ar
    18    23    24    2
    19    23    29   am
    20     2     3    1
    21     2     5    1
    22   124   125   ar
    23   120   121   ar
    24    42    43    1
    25    11    12    2
    26    11    10    1
    27   108   107    1
    28   108   111    1
    29    37    34    1
    30    37    38    1
    31    35    36    2
    32    35    34    1
    33     6     8    1
    34     6     5    1
    35     6     7    1
    36     3     9   am
    37     3     4    2
    38     9    10    1
    39    88    86   ar
    40    88    89   ar
    41    16    18   ar
    42    16    14   ar
    43   113   111    1
    44    47    49    1
    45    47    46    1
    46    29    30    1
    47    86    84   ar
    48    18    19   ar
    49    13    10    1
    50    13    14    1
    51    43    46    1
    52    43    44    1
    53   125   126    1
    54   125   123   ar
    55   121   123   ar
    56    34    33    1
    57    89    87   ar
    58    38    39    1
    59    33    31   am
    60   111   112    1
    61    14    15   ar
    62    46    48    1
    63    84    83    1
    64    84    85   ar
    65    31    30    1
    66    31    32    2
    67    44    45    2
    68    44    50   am
    69   112   114    1
    70    87    85   ar
    71    19    20    1
    72    19    17   ar
    73    40    39    2
    74    83    80    1
    75    39    41   am
    76   100    99    2
    77    50    51    1
    78    15    17   ar
    79    79    80    1
    80    52    53    2
    81    52    51    1
    82    80    81    1
    83    99    98    1
    84    51    54    1
    85    54    55    1
    86    81    82    2
    87    98   101    1
    88    98    97    1
    89    58    59    1
    90    55    56    1
    91   101   102    1
    92    56    57    1
    93    69    68    1
    94    95    94    1
    95    66    68   ar
    96    66    64   ar
    97    68    67   ar
    98    59    60    1
    99    59    62    1
   100   102   103   ar
   101   102   104   ar
   102    64    63   ar
   103    91    90    1
   104    91    94    1
   105    91    92    1
   106    67    65   ar
   107   103   105   ar
   108    61    60    2
   109    63    65   ar
   110    63    62    1
   111   104   106   ar
   112    94    96    1
   113    93    92    2
   114   105   106   ar
   115    73    72    2
   116    72    71    1
   117    71    70    1
   118    71    74    1
   119    78    76   am
   120    74    75    1
   121    76    75    1
   122    76    77    2
