@<TRIPOS>MOLECULE
tmp/4j7gA01.pdb
 233 225 0 0 0
SMALL
GASTEIGER

@<TRIPOS>ATOM
      1  N          9.4610   30.9840   -7.0150 N.3    57  TRP57      -0.1241
      2  CA         8.4070   32.0060   -7.0050 C.3    57  TRP57       0.1605
      3  C          7.9540   32.2570   -5.5670 C.2    57  TRP57       0.2264
      4  O          7.9130   31.3130   -4.7680 O.2    57  TRP57      -0.2867
      5  CB         7.2040   31.5620   -7.8480 C.3    57  TRP57       0.0550
      6  CG         7.5310   31.5330   -9.3240 C.ar   57  TRP57       0.0003
      7  CD1        8.1730   30.5310   -9.9980 C.ar   57  TRP57       0.0946
      8  CD2        7.2270   32.5470  -10.2980 C.ar   57  TRP57       0.0152
      9  NE1        8.3270   30.8790  -11.3220 N.ar   57  TRP57      -0.2442
     10  CE2        7.7390   32.0970  -11.5320 C.ar   57  TRP57       0.0810
     11  CE3        6.5400   33.7680  -10.2350 C.ar   57  TRP57       0.0012
     12  CZ2        7.5960   32.8230  -12.7200 C.ar   57  TRP57       0.0191
     13  CZ3        6.4120   34.5170  -11.4100 C.ar   57  TRP57       0.0001
     14  CH2        6.9260   34.0220  -12.6300 C.ar   57  TRP57       0.0015
     15  N          9.0920   36.0110   -9.3890 N.3    68  HIS68      -0.1241
     16  CA        10.1720   35.0260   -9.4320 C.3    68  HIS68       0.1621
     17  C         11.3600   35.6290   -8.6790 C.2    68  HIS68       0.2264
     18  O         11.7310   36.7750   -8.8990 O.2    68  HIS68      -0.2867
     19  CB        10.6310   34.8010  -10.8850 C.3    68  HIS68       0.0745
     20  CG        11.5410   33.6210  -11.0340 C.ar   68  HIS68       0.0817
     21  ND1       12.8860   33.6740  -10.7400 N.ar   68  HIS68      -0.2268
     22  CD2       11.2790   32.3460  -11.4130 C.ar   68  HIS68       0.1154
     23  CE1       13.4260   32.4890  -10.9720 C.ar   68  HIS68       0.1986
     24  NE2       12.4710   31.6660  -11.3690 N.ar   68  HIS68      -0.2212
     25  N         13.3910   37.6630  -13.0510 N.3    72  ARG72      -0.1231
     26  CA        12.9530   37.5110  -14.4400 C.3    72  ARG72       0.1694
     27  C         11.5610   36.9200  -14.6480 C.2    72  ARG72       0.2592
     28  O         10.8380   36.6600  -13.6840 O.2    72  ARG72      -0.2718
     29  CB        14.1050   37.0140  -15.3000 C.3    72  ARG72       0.0321
     30  CG        14.4860   35.6060  -14.9640 C.3    72  ARG72       0.0489
     31  CD        15.9630   35.3250  -15.2650 C.3    72  ARG72       0.2205
     32  NE        16.2130   34.1090  -14.4970 N.pl3  72  ARG72      -0.0865
     33  CZ        16.3980   32.8810  -14.9700 C.cat  72  ARG72       0.5346
     34  NH1       16.4280   32.6440  -16.2790 N.pl3  72  ARG72       0.1354
     35  NH2       16.5710   31.8910  -14.0970 N.pl3  72  ARG72       0.1354
     36  N         11.1740   36.7460  -15.9080 N.am   73  PHE73      -0.1962
     37  CA         9.8770   36.2450  -16.3280 C.3    73  PHE73       0.1771
     38  C          8.9180   37.3430  -15.9100 C.2    73  PHE73       0.2619
     39  O          9.2910   38.5240  -15.8870 O.2    73  PHE73      -0.2715
     40  CB         9.5540   34.8880  -15.6920 C.3    73  PHE73       0.0574
     41  CG        10.6970   33.9280  -15.8560 C.ar   73  PHE73      -0.0200
     42  CD1       11.0620   33.5240  -17.1210 C.ar   73  PHE73      -0.0042
     43  CD2       11.4340   33.4900  -14.7650 C.ar   73  PHE73      -0.0042
     44  CE1       12.1350   32.6500  -17.3070 C.ar   73  PHE73      -0.0003
     45  CE2       12.5020   32.6210  -14.9310 C.ar   73  PHE73      -0.0003
     46  CZ        12.8420   32.2030  -16.2010 C.ar   73  PHE73      -0.0000
     47  N          7.7300   36.9520  -15.4770 N.am   74  PHE74      -0.1974
     48  CA         6.6650   37.9260  -15.3210 C.3    74  PHE74       0.1639
     49  C          6.2700   37.9830  -13.8400 C.2    74  PHE74       0.2290
     50  O          6.8250   37.2580  -12.9880 O.2    74  PHE74      -0.2864
     51  CB         5.4900   37.3550  -16.1350 C.3    74  PHE74       0.0560
     52  CG         5.0100   35.9920  -15.7020 C.ar   74  PHE74      -0.0200
     53  CD1        3.9720   35.8540  -14.7940 C.ar   74  PHE74      -0.0042
     54  CD2        5.6220   34.8470  -16.2050 C.ar   74  PHE74      -0.0042
     55  CE1        3.5320   34.5840  -14.4470 C.ar   74  PHE74      -0.0003
     56  CE2        5.1810   33.5600  -15.8590 C.ar   74  PHE74      -0.0003
     57  CZ         4.1430   33.4410  -14.9490 C.ar   74  PHE74      -0.0000
     58  N          4.7430   42.1850  -17.4270 N.3   103  GLN103     -0.1245
     59  CA         6.0610   41.8200  -17.9410 C.3   103  GLN103      0.1566
     60  C          6.5730   42.9970  -18.7790 C.2   103  GLN103      0.2260
     61  O          6.3010   43.0780  -19.9740 O.2   103  GLN103     -0.2867
     62  CB         6.1180   40.4950  -18.7050 C.3   103  GLN103      0.0367
     63  CG         7.5760   40.0470  -19.0230 C.3   103  GLN103      0.0905
     64  CD         7.6960   38.5710  -19.4410 C.2   103  GLN103      0.2608
     65  OE1        8.7920   38.0020  -19.4820 O.2   103  GLN103     -0.2717
     66  NE2        6.5610   37.9340  -19.7450 N.am  103  GLN103     -0.0878
     67  N          9.3440   41.3590  -25.7730 N.3   107  GLY107     -0.1210
     68  CA         9.9170   40.1280  -26.3150 C.3   107  GLY107      0.1956
     69  C          9.9410   40.0920  -27.8260 C.2   107  GLY107      0.2612
     70  O          9.3340   40.9060  -28.5340 O.2   107  GLY107     -0.2717
     71  N         10.6690   39.1010  -28.3350 N.am  108  ILE108     -0.1965
     72  CA        10.7770   38.9190  -29.7860 C.3   108  ILE108      0.1727
     73  C          9.9050   37.7480  -30.2100 C.2   108  ILE108      0.2616
     74  O         10.0290   36.6310  -29.6740 O.2   108  ILE108     -0.2715
     75  CB        12.2400   38.6500  -30.1920 C.3   108  ILE108      0.0290
     76  CG1       13.0750   39.9150  -29.9170 C.3   108  ILE108      0.0022
     77  CG2       12.3010   38.2630  -31.6890 C.3   108  ILE108      0.0023
     78  CD1       14.5430   39.6200  -30.1930 C.3   108  ILE108      0.0001
     79  N          9.0610   37.9960  -31.2270 N.am  109  LEU109     -0.1977
     80  CA         8.3100   36.9480  -31.9120 C.3   109  LEU109      0.1596
     81  C          8.7870   37.0640  -33.3540 C.2   109  LEU109      0.2287
     82  O          8.3030   37.9100  -34.1370 O.2   109  LEU109     -0.2864
     83  CB         6.7660   37.1090  -31.8030 C.3   109  LEU109      0.0297
     84  CG         6.2480   37.3030  -30.3520 C.3   109  LEU109      0.0022
     85  CD1        4.7720   37.6380  -30.4670 C.3   109  LEU109      0.0001
     86  CD2        6.5800   35.9800  -29.5610 C.3   109  LEU109      0.0001
     87  N          7.2780   23.6910  -30.5650 N.3   127  LYS127     -0.1245
     88  CA         7.7270   24.2460  -29.2960 C.3   127  LYS127      0.1561
     89  C          6.8340   23.7460  -28.1610 C.2   127  LYS127      0.2260
     90  O          5.6010   23.8540  -28.1940 O.2   127  LYS127     -0.2867
     91  CB         7.6850   25.7850  -29.3230 C.3   127  LYS127      0.0271
     92  CG         8.5600   26.2960  -28.1470 C.3   127  LYS127      0.0035
     93  CD         8.7150   27.8060  -28.1370 C.3   127  LYS127      0.0206
     94  CE        10.0120   28.2010  -27.4490 C.3   127  LYS127      0.1093
     95  NZ         9.8180   28.0130  -25.9880 N.3   127  LYS127     -0.1314
     96  N          5.1470   24.1430  -24.6200 N.3   129  GLU129     -0.1245
     97  CA         4.8660   25.1650  -23.5980 C.3   129  GLU129      0.1567
     98  C          3.9700   24.4570  -22.5880 C.2   129  GLU129      0.2260
     99  O          3.0640   23.7220  -23.0100 O.2   129  GLU129     -0.2867
    100  CB         4.0930   26.3500  -24.2180 C.3   129  GLU129      0.0388
    101  CG         4.9300   26.7880  -25.4260 C.3   129  GLU129      0.1160
    102  CD         4.9040   28.2310  -25.8740 C.2   129  GLU129      0.3649
    103  OE1        4.5170   28.5200  -27.0360 O.co2 129  GLU129     -0.2457
    104  OE2        5.3430   29.0280  -25.0170 O.co2 129  GLU129     -0.2457
    105  N         11.0850   32.8240  -30.2620 N.3   143  GLN143     -0.1231
    106  CA         9.9810   33.2460  -29.3870 C.3   143  GLN143      0.1698
    107  C         10.6240   33.3990  -28.0060 C.2   143  GLN143      0.2592
    108  O         10.7820   32.4170  -27.2920 O.2   143  GLN143     -0.2718
    109  CB         8.8620   32.2010  -29.4190 C.3   143  GLN143      0.0381
    110  CG         7.7170   32.4910  -28.4510 C.3   143  GLN143      0.0905
    111  CD         6.6720   31.4170  -28.3790 C.2   143  GLN143      0.2608
    112  OE1        5.8740   31.2790  -29.3030 O.2   143  GLN143     -0.2717
    113  NE2        6.6410   30.6720  -27.2630 N.am  143  GLN143     -0.0878
    114  N         11.0630   34.5960  -27.6340 N.am  144  ALA144     -0.1966
    115  CA        11.9500   34.7820  -26.4820 C.3   144  ALA144      0.1728
    116  C         11.9710   36.2190  -25.9740 C.2   144  ALA144      0.2616
    117  O         12.0400   37.1720  -26.7540 O.2   144  ALA144     -0.2715
    118  CB        13.3660   34.3490  -26.8540 C.3   144  ALA144      0.0334
    119  N         11.9230   36.3470  -24.6500 N.am  145  THR145     -0.1951
    120  CA        12.2750   37.6280  -24.0140 C.3   145  THR145      0.1897
    121  C         13.7250   37.5300  -23.5700 C.2   145  THR145      0.2313
    122  O         14.0640   36.6330  -22.7890 O.2   145  THR145     -0.2863
    123  CB        11.3320   37.9110  -22.8340 C.3   145  THR145      0.1794
    124  OG1        9.9710   37.8470  -23.2810 O.3   145  THR145     -0.2208
    125  CG2       11.5160   39.3320  -22.3050 C.3   145  THR145      0.0378
    126  N         15.4130   36.6570  -20.1760 N.3   148  ASN148     -0.1225
    127  CA        14.9300   35.4580  -19.4840 C.3   148  ASN148      0.1785
    128  C         15.9490   34.3600  -19.7710 C.2   148  ASN148      0.2597
    129  O         15.7500   33.2090  -19.3620 O.2   148  ASN148     -0.2718
    130  CB        13.5180   35.0370  -19.9190 C.3   148  ASN148      0.1169
    131  CG        12.4060   35.9480  -19.4010 C.2   148  ASN148      0.2627
    132  OD1       12.6200   36.7140  -18.4570 O.2   148  ASN148     -0.2716
    133  ND2       11.2020   35.8330  -19.9790 N.am  148  ASN148     -0.0877
    134  N         17.0240   34.7090  -20.4740 N.am  149  TYR149     -0.1976
    135  CA        17.9930   33.7200  -20.9550 C.3   149  TYR149      0.1639
    136  C         19.4240   34.1110  -20.5710 C.2   149  TYR149      0.2290
    137  O         19.9800   35.0890  -21.0680 O.2   149  TYR149     -0.2864
    138  CB        17.8310   33.4850  -22.4630 C.3   149  TYR149      0.0560
    139  CG        16.4910   32.9020  -22.8490 C.ar  149  TYR149     -0.0198
    140  CD1       16.3300   31.5330  -23.0280 C.ar  149  TYR149     -0.0009
    141  CD2       15.3760   33.7160  -23.0380 C.ar  149  TYR149     -0.0009
    142  CE1       15.1160   30.9710  -23.3690 C.ar  149  TYR149      0.0417
    143  CE2       14.1450   33.1560  -23.3700 C.ar  149  TYR149      0.0417
    144  CZ        14.0240   31.7950  -23.5560 C.ar  149  TYR149      0.1957
    145  OH        12.8110   31.2410  -23.9020 O.3   149  TYR149     -0.2866
    146  N         -0.8770   42.2640  -26.5270 N.3   174  GLU174     -0.1245
    147  CA        -1.4900   40.9740  -26.1890 C.3   174  GLU174      0.1567
    148  C         -2.7600   41.1760  -25.3750 C.2   174  GLU174      0.2260
    149  O         -3.2440   42.3150  -25.3140 O.2   174  GLU174     -0.2867
    150  CB        -0.3840   40.0940  -25.6260 C.3   174  GLU174      0.0388
    151  CG         0.2280   39.6400  -26.9800 C.3   174  GLU174      0.1160
    152  CD         1.5370   38.9240  -26.8720 C.2   174  GLU174      0.3649
    153  OE1        2.3460   38.9480  -27.8290 O.co2 174  GLU174     -0.2457
    154  OE2        1.7020   38.2890  -25.8080 O.co2 174  GLU174     -0.2457
    155  N          0.9210   44.8700  -22.3080 N.3   182  LYS182     -0.1245
    156  CA         2.0080   44.0080  -22.8090 C.3   182  LYS182      0.1561
    157  C          2.0090   44.0780  -24.3340 C.2   182  LYS182      0.2260
    158  O          0.9640   43.8150  -24.8900 O.2   182  LYS182     -0.2867
    159  CB         1.7130   42.5730  -22.3770 C.3   182  LYS182      0.0271
    160  CG         2.6880   41.5300  -22.9260 C.3   182  LYS182      0.0035
    161  CD         4.0490   42.0210  -22.4820 C.3   182  LYS182      0.0206
    162  CE         5.0980   40.9530  -22.7320 C.3   182  LYS182      0.1093
    163  NZ         6.4390   41.5710  -22.8610 N.3   182  LYS182     -0.1314
    164  N          4.6180   42.7160  -27.7890 N.3   184  ASN184     -0.1240
    165  CA         5.8880   42.0850  -28.1520 C.3   184  ASN184      0.1653
    166  C          6.1410   42.4920  -29.6280 C.2   184  ASN184      0.2266
    167  O          5.2400   42.9860  -30.3260 O.2   184  ASN184     -0.2867
    168  CB         5.6830   40.5640  -28.1430 C.3   184  ASN184      0.1155
    169  CG         5.8100   40.0260  -26.7180 C.2   184  ASN184      0.2627
    170  OD1        6.7330   40.4210  -26.0230 O.2   184  ASN184     -0.2716
    171  ND2        4.8640   39.2160  -26.2700 N.am  184  ASN184     -0.0877
    172  N          1.3040   33.0440  -30.8600 N.3   222  ASN222     -0.1240
    173  CA         2.3620   33.9760  -31.3030 C.3   222  ASN222      0.1653
    174  C          2.6100   33.8680  -32.8110 C.2   222  ASN222      0.2266
    175  O          2.8130   34.8900  -33.4810 O.2   222  ASN222     -0.2867
    176  CB         3.6550   33.7240  -30.5270 C.3   222  ASN222      0.1155
    177  CG         3.5370   34.1540  -29.0630 C.2   222  ASN222      0.2627
    178  OD1        2.8510   35.1400  -28.7860 O.2   222  ASN222     -0.2716
    179  ND2        4.2210   33.4500  -28.1520 N.am  222  ASN222     -0.0877
    180  N         11.0760   23.0270  -13.7020 N.3   300  TRP300     -0.1227
    181  CA        10.8400   24.3400  -13.1260 C.3   300  TRP300      0.1737
    182  C          9.4100   24.3210  -12.6490 C.2   300  TRP300      0.2596
    183  O          8.6740   23.3830  -12.9520 O.2   300  TRP300     -0.2718
    184  CB        11.1160   25.5010  -14.0890 C.3   300  TRP300      0.0564
    185  CG        10.1210   25.7350  -15.2170 C.ar  300  TRP300      0.0003
    186  CD1        9.0650   26.6380  -15.1900 C.ar  300  TRP300      0.0946
    187  CD2       10.1130   25.1550  -16.5310 C.ar  300  TRP300      0.0152
    188  NE1        8.3880   26.5990  -16.3930 N.ar  300  TRP300     -0.2442
    189  CE2        9.0230   25.7240  -17.2410 C.ar  300  TRP300      0.0810
    190  CE3       10.9230   24.2250  -17.1920 C.ar  300  TRP300      0.0012
    191  CZ2        8.7320   25.3690  -18.5680 C.ar  300  TRP300      0.0191
    192  CZ3       10.6220   23.8580  -18.4990 C.ar  300  TRP300      0.0001
    193  CH2        9.5400   24.4550  -19.1790 C.ar  300  TRP300      0.0015
    194  N          9.0360   25.3680  -11.9170 N.am  301  THR301     -0.1939
    195  CA         7.6820   25.5160  -11.4270 C.3   301  THR301      0.2028
    196  C          7.3080   26.9370  -11.8770 C.2   301  THR301      0.2642
    197  O          8.2000   27.7760  -11.9700 O.2   301  THR301     -0.2714
    198  CB         7.6070   25.4570   -9.8800 C.3   301  THR301      0.1808
    199  OG1        8.3350   26.5520   -9.3060 O.3   301  THR301     -0.2208
    200  CG2        8.2050   24.1080   -9.4090 C.3   301  THR301      0.0379
    201  N          6.0310   27.2030  -12.1060 N.am  302  GLN302     -0.1976
    202  CA         5.6390   28.5700  -12.4660 C.3   302  GLN302      0.1601
    203  C          4.1330   28.7320  -12.2740 C.2   302  GLN302      0.2287
    204  O          3.3940   27.7530  -12.3760 O.2   302  GLN302     -0.2864
    205  CB         6.0180   28.9060  -13.9210 C.3   302  GLN302      0.0394
    206  CG         5.2050   28.0840  -14.8980 C.3   302  GLN302      0.0908
    207  CD         5.3610   28.6580  -16.3100 C.2   302  GLN302      0.2608
    208  OE1        6.2490   28.2760  -17.0770 O.2   302  GLN302     -0.2717
    209  NE2        4.5040   29.6350  -16.6270 N.am  302  GLN302     -0.0878
    210  N         -1.3420   31.7840  -25.4720 N.3   385  GLU385     -0.1245
    211  CA         0.0750   31.4870  -25.2640 C.3   385  GLU385      0.1567
    212  C          0.3570   30.5540  -24.0740 C.2   385  GLU385      0.2260
    213  O         -0.0010   30.8590  -22.9400 O.2   385  GLU385     -0.2867
    214  CB         0.9550   32.7400  -25.2180 C.3   385  GLU385      0.0388
    215  CG         0.6910   33.6480  -24.0450 C.3   385  GLU385      0.1160
    216  CD         1.5700   34.9080  -24.0050 C.2   385  GLU385      0.3649
    217  OE1        2.8030   34.8790  -23.7930 O.co2 385  GLU385     -0.2457
    218  OE2        1.0320   36.0140  -24.2230 O.co2 385  GLU385     -0.2457
    219  N          3.0040   29.6240  -22.5810 N.3   387  GLY387     -0.1210
    220  CA         3.9040   30.0520  -21.5130 C.3   387  GLY387      0.1956
    221  C          3.2500   30.7420  -20.3270 C.2   387  GLY387      0.2611
    222  O          3.8550   30.8420  -19.2550 O.2   387  GLY387     -0.2717
    223  N          2.0310   31.2570  -20.4930 N.am  388  ARG388     -0.1979
    224  CA         1.3110   31.9760  -19.4280 C.3   388  ARG388      0.1597
    225  C         -0.0800   31.4250  -19.1300 C.2   388  ARG388      0.2287
    226  O         -0.6730   31.7040  -18.0660 O.2   388  ARG388     -0.2864
    227  CB         1.1690   33.4380  -19.8810 C.3   388  ARG388      0.0334
    228  CG         2.5560   33.9900  -20.2920 C.3   388  ARG388      0.0492
    229  CD         3.4070   34.2600  -19.0690 C.3   388  ARG388      0.2205
    230  NE         4.6860   34.8960  -19.3780 N.pl3 388  ARG388     -0.0865
    231  CZ         5.8340   34.2340  -19.4830 C.cat 388  ARG388      0.5346
    232  NH1        6.9820   34.8710  -19.7150 N.pl3 388  ARG388      0.1354
    233  NH2        5.8660   32.9070  -19.3900 N.pl3 388  ARG388      0.1354
@<TRIPOS>BOND
     1    82    81    2
     2   175   174    2
     3    81    80    1
     4   174   173    1
     5    80    83    1
     6    80    79    1
     7    83    84    1
     8    77    75    1
     9   173   172    1
    10   173   176    1
    11    79    73   am
    12    87    88    1
    13   176   177    1
    14    85    84    1
    15    84    86    1
    16   167   166    2
    17   105   106    1
    18    73    72    1
    19    73    74    2
    20    78    76    1
    21    75    76    1
    22    75    72    1
    23    72    71    1
    24   166   165    1
    25   109   106    1
    26   109   110    1
    27   106   107    1
    28    91    88    1
    29    91    92    1
    30   112   111    2
    31    88    89    1
    32   177   178    2
    33   177   179   am
    34    70    69    2
    35   110   111    1
    36   111   113   am
    37    71    69   am
    38    90    89    2
    39   165   168    1
    40   165   164    1
    41    92    93    1
    42   168   169    1
    43    93    94    1
    44   107   114   am
    45   107   108    2
    46   153   152   ar
    47    69    68    1
    48   114   115    1
    49    94    95    1
    50   103   102   ar
    51   151   152    1
    52   151   150    1
    53   152   154   ar
    54   118   115    1
    55   117   116    2
    56   169   171   am
    57   169   170    2
    58   146   147    1
    59   115   116    1
    60    68    67    1
    61   147   150    1
    62   147   148    1
    63   116   119   am
    64   102   101    1
    65   102   104   ar
    66   210   211    1
    67   101   100    1
    68   148   149    2
    69   211   214    1
    70   211   212    1
    71   214   215    1
    72   158   157    2
    73   119   120    1
    74    96    97    1
    75   157   156    1
    76   218   216   ar
    77   100    97    1
    78   212   213    2
    79   215   216    1
    80   120   121    1
    81   120   123    1
    82   216   217   ar
    83   145   144    1
    84    97    98    1
    85   121   122    2
    86   144   143   ar
    87   144   142   ar
    88   143   141   ar
    89   142   140   ar
    90   124   123    1
    91   141   139   ar
    92   140   139   ar
    93    99    98    2
    94   160   161    1
    95   160   159    1
    96   163   162    1
    97   139   138    1
    98   123   125    1
    99   156   159    1
   100   156   155    1
   101   162   161    1
   102   219   220    1
   103   138   135    1
   104   220   221    1
   105   137   136    2
   106   135   136    1
   107   135   134    1
   108   223   221   am
   109   223   224    1
   110   134   128   am
   111   221   222    2
   112   228   227    1
   113   228   229    1
   114   126   127    1
   115   133   131   am
   116    61    60    2
   117   130   127    1
   118   130   131    1
   119   227   224    1
   120   128   127    1
   121   128   129    2
   122    66    64   am
   123   232   231    1
   124   231   233    1
   125   231   230    2
   126    65    64    2
   127    64    63    1
   128   224   225    1
   129   131   132    2
   130   230   229    1
   131   193   191   ar
   132   193   192   ar
   133   225   226    2
   134    63    62    1
   135    60    59    1
   136    62    59    1
   137   191   189   ar
   138   192   190   ar
   139    59    58    1
   140    44    42   ar
   141    44    46   ar
   142   189   187   ar
   143   189   188   ar
   144   190   187   ar
   145    42    41   ar
   146   208   207    2
   147   209   207   am
   148   187   185   ar
   149   188   186   ar
   150    37    38    1
   151    37    36    1
   152    37    40    1
   153   207   206    1
   154    34    33    1
   155    54    56   ar
   156    54    52   ar
   157    46    45   ar
   158    51    52    1
   159    51    48    1
   160    38    39    2
   161    38    47   am
   162    36    27   am
   163    56    57   ar
   164    41    40    1
   165    41    43   ar
   166    52    53   ar
   167    47    48    1
   168    48    49    1
   169    29    30    1
   170    29    26    1
   171    31    30    1
   172    31    32    1
   173   185   186   ar
   174   185   184    1
   175    33    32    2
   176    33    35    1
   177    57    55   ar
   178    45    43   ar
   179   206   205    1
   180    53    55   ar
   181    27    26    1
   182    27    28    2
   183    26    25    1
   184   184   181    1
   185   205   202    1
   186    49    50    2
   187   180   181    1
   188   181   182    1
   189   183   182    2
   190    12    14   ar
   191    12    10   ar
   192   182   194   am
   193    14    13   ar
   194   202   203    1
   195   202   201    1
   196   204   203    2
   197   201   196   am
   198   197   196    2
   199   194   195    1
   200   196   195    1
   201    10     9   ar
   202    10     8   ar
   203   195   198    1
   204    22    24   ar
   205    22    20   ar
   206    13    11   ar
   207    24    23   ar
   208     9     7   ar
   209    20    19    1
   210    20    21   ar
   211    23    21   ar
   212    19    16    1
   213     8    11   ar
   214     8     6   ar
   215     7     6   ar
   216   198   200    1
   217   198   199    1
   218    16    15    1
   219    16    17    1
   220     6     5    1
   221    18    17    2
   222     5     2    1
   223     1     2    1
   224     2     3    1
   225     3     4    2
