@<TRIPOS>MOLECULE
tmp/4j7gA00.pdb
 230 224 0 0 0
SMALL
GASTEIGER

@<TRIPOS>ATOM
      1  N        -18.3650   51.0350  -15.3460 N.3    94  ARG94      -0.1231
      2  CA       -17.8460   49.7250  -14.9400 C.3    94  ARG94       0.1694
      3  C        -16.7540   49.9590  -13.9010 C.2    94  ARG94       0.2592
      4  O        -16.0110   50.9330  -13.9890 O.2    94  ARG94      -0.2718
      5  CB       -17.1670   48.9730  -16.1050 C.3    94  ARG94       0.0321
      6  CG       -18.1620   48.5440  -17.1690 C.3    94  ARG94       0.0489
      7  CD       -17.4320   47.6560  -18.1820 C.3    94  ARG94       0.2205
      8  NE       -16.5100   48.4610  -18.9850 N.pl3  94  ARG94      -0.0865
      9  CZ       -15.4660   47.9700  -19.6460 C.cat  94  ARG94       0.5346
     10  NH1      -14.6920   48.8070  -20.3300 N.pl3  94  ARG94       0.1354
     11  NH2      -15.1710   46.6800  -19.6150 N.pl3  94  ARG94       0.1354
     12  N        -16.6470   49.0730  -12.9120 N.am   95  GLU95      -0.1966
     13  CA       -15.5380   49.1090  -11.9400 C.3    95  GLU95       0.1733
     14  C        -15.2430   47.7270  -11.4030 C.2    95  GLU95       0.2616
     15  O        -16.1490   46.9680  -11.0190 O.2    95  GLU95      -0.2715
     16  CB       -15.8030   50.0930  -10.7850 C.3    95  GLU95       0.0429
     17  CG       -14.6470   50.1950   -9.8090 C.3    95  GLU95       0.1163
     18  CD       -14.8200   51.2860   -8.7600 C.2    95  GLU95       0.3649
     19  OE1      -13.8350   51.5230   -8.0380 O.co2  95  GLU95      -0.2457
     20  OE2      -15.8920   51.9240   -8.7020 O.co2  95  GLU95      -0.2457
     21  N        -13.9630   47.3730  -11.3620 N.am   96  TRP96      -0.1960
     22  CA       -13.5920   46.0550  -10.8680 C.3    96  TRP96       0.1771
     23  C        -12.1300   46.0120  -10.5050 C.2    96  TRP96       0.2620
     24  O        -11.3830   46.9280  -10.8560 O.2    96  TRP96      -0.2715
     25  CB       -13.9780   44.9180  -11.8170 C.3    96  TRP96       0.0590
     26  CG       -13.0150   44.8320  -12.9890 C.ar   96  TRP96       0.0006
     27  CD1      -11.9480   43.9740  -13.0780 C.ar   96  TRP96       0.0946
     28  CD2      -13.1040   45.5070  -14.2540 C.ar   96  TRP96       0.0152
     29  NE1      -11.3130   44.1530  -14.2900 N.ar   96  TRP96      -0.2442
     30  CE2      -12.0270   45.0500  -15.0430 C.ar   96  TRP96       0.0810
     31  CE3      -14.0090   46.4210  -14.8120 C.ar   96  TRP96       0.0012
     32  CZ2      -11.7970   45.5190  -16.3570 C.ar   96  TRP96       0.0191
     33  CZ3      -13.7710   46.9200  -16.0840 C.ar   96  TRP96       0.0001
     34  CH2      -12.6580   46.4720  -16.8330 C.ar   96  TRP96       0.0015
     35  N        -11.7290   44.9930   -9.7460 N.am   97  GLN97      -0.1963
     36  CA       -10.3180   44.7350   -9.4870 C.3    97  GLN97       0.1733
     37  C        -10.0450   43.2860   -9.8450 C.2    97  GLN97       0.2616
     38  O        -10.9330   42.4210   -9.7650 O.2    97  GLN97      -0.2715
     39  CB        -9.9330   45.0070   -8.0140 C.3    97  GLN97       0.0408
     40  CG       -10.1890   46.4660   -7.6150 C.3    97  GLN97       0.0908
     41  CD        -9.7510   46.8250   -6.1890 C.2    97  GLN97       0.2608
     42  OE1       -9.4610   45.9590   -5.3720 O.2    97  GLN97      -0.2717
     43  NE2       -9.5830   48.1180   -5.9340 N.am   97  GLN97      -0.0878
     44  N         -8.8060   43.0570  -10.2760 N.am   98  GLN98      -0.1977
     45  CA        -8.4070   41.7170  -10.6850 C.3    98  GLN98       0.1601
     46  C         -6.9240   41.4700  -10.5530 C.2    98  GLN98       0.2287
     47  O         -6.1680   42.4340  -10.6810 O.2    98  GLN98      -0.2864
     48  CB        -8.8500   41.4480  -12.1310 C.3    98  GLN98       0.0394
     49  CG        -8.2500   42.4460  -13.1350 C.3    98  GLN98       0.0908
     50  CD        -8.3380   42.0510  -14.6080 C.2    98  GLN98       0.2608
     51  OE1       -9.2470   42.5200  -15.3060 O.2    98  GLN98      -0.2717
     52  NE2       -7.4050   41.2300  -15.0890 N.am   98  GLN98      -0.0878
     53  N         -3.3620   40.1020  -24.8570 N.3   175  GLN175     -0.1245
     54  CA        -4.6910   40.1680  -24.2520 C.3   175  GLN175      0.1566
     55  C         -4.8100   41.2850  -23.2340 C.2   175  GLN175      0.2260
     56  O         -4.0430   41.3570  -22.2600 O.2   175  GLN175     -0.2867
     57  CB        -5.0250   38.8500  -23.5420 C.3   175  GLN175      0.0367
     58  CG        -5.5190   37.7130  -24.4060 C.3   175  GLN175      0.0905
     59  CD        -4.3350   36.9810  -25.0540 C.2   175  GLN175      0.2608
     60  OE1       -3.1640   37.3800  -24.9550 O.2   175  GLN175     -0.2717
     61  NE2       -4.6630   35.8860  -25.7410 N.am  175  GLN175     -0.0878
     62  N         -7.3930   41.6650  -21.3680 N.3   177  SER177     -0.1202
     63  CA        -8.1410   41.2800  -20.1720 C.3   177  SER177      0.2020
     64  C         -7.1110   40.7600  -19.1560 C.2   177  SER177      0.2618
     65  O         -7.3130   40.9700  -17.9500 O.2   177  SER177     -0.2717
     66  CB        -9.0170   40.0720  -20.5100 C.3   177  SER177      0.2103
     67  OG        -8.1830   39.1520  -21.2050 O.3   177  SER177     -0.2182
     68  N         -6.0080   40.1210  -19.5430 N.am  178  TRP178     -0.1975
     69  CA        -5.1990   39.3680  -18.5740 C.3   178  TRP178      0.1640
     70  C         -3.7620   39.8850  -18.4490 C.2   178  TRP178      0.2290
     71  O         -3.0300   39.5420  -17.5060 O.2   178  TRP178     -0.2864
     72  CB        -5.1040   37.8770  -18.9680 C.3   178  TRP178      0.0576
     73  CG        -6.4570   37.1970  -18.9630 C.ar  178  TRP178      0.0006
     74  CD1       -7.5130   37.4580  -18.1490 C.ar  178  TRP178      0.0946
     75  CD2       -6.9000   36.1510  -19.8390 C.ar  178  TRP178      0.0152
     76  NE1       -8.6030   36.6560  -18.4540 N.ar  178  TRP178     -0.2442
     77  CE2       -8.2190   35.8170  -19.4620 C.ar  178  TRP178      0.0810
     78  CE3       -6.3210   35.4910  -20.9310 C.ar  178  TRP178      0.0012
     79  CZ2       -8.9730   34.8420  -20.1270 C.ar  178  TRP178      0.0191
     80  CZ3       -7.0690   34.5070  -21.5940 C.ar  178  TRP178      0.0001
     81  CH2       -8.3740   34.1900  -21.1730 C.ar  178  TRP178      0.0015
     82  N        -11.6020   38.7660   -5.1300 N.3   272  TRP272     -0.1241
     83  CA       -10.8630   37.5610   -5.4830 C.3   272  TRP272      0.1605
     84  C        -10.3390   36.9500   -4.2040 C.2   272  TRP272      0.2264
     85  O         -9.9500   37.7140   -3.3100 O.2   272  TRP272     -0.2867
     86  CB        -9.6670   37.9520   -6.3750 C.3   272  TRP272      0.0550
     87  CG       -10.1140   38.3050   -7.7600 C.ar  272  TRP272      0.0003
     88  CD1      -10.7380   39.4610   -8.1520 C.ar  272  TRP272      0.0946
     89  CD2       -9.9940   37.4950   -8.9380 C.ar  272  TRP272      0.0152
     90  NE1      -11.0200   39.4330   -9.5020 N.ar  272  TRP272     -0.2442
     91  CE2      -10.5820   38.2320   -9.9900 C.ar  272  TRP272      0.0810
     92  CE3       -9.4010   36.2550   -9.1870 C.ar  272  TRP272      0.0012
     93  CZ2      -10.6530   37.7300  -11.2980 C.ar  272  TRP272      0.0191
     94  CZ3       -9.4420   35.7530  -10.5020 C.ar  272  TRP272      0.0001
     95  CH2      -10.0540   36.5230  -11.5220 C.ar  272  TRP272      0.0015
     96  N        -12.0720   34.1500   -8.6550 N.3   281  HIS281     -0.1241
     97  CA       -12.9980   35.2360   -8.4170 C.3   281  HIS281      0.1621
     98  C        -14.0800   34.6760   -7.4740 C.2   281  HIS281      0.2264
     99  O        -14.3780   33.4730   -7.4790 O.2   281  HIS281     -0.2867
    100  CB       -13.6690   35.6670   -9.7370 C.3   281  HIS281      0.0745
    101  CG       -14.5890   36.8360   -9.6090 C.ar  281  HIS281      0.0817
    102  ND1      -15.9500   36.7130   -9.4260 N.ar  281  HIS281     -0.2268
    103  CD2      -14.3450   38.1650   -9.6830 C.ar  281  HIS281      0.1154
    104  CE1      -16.4960   37.9130   -9.3540 C.ar  281  HIS281      0.1986
    105  NE2      -15.5420   38.8140   -9.5030 N.ar  281  HIS281     -0.2212
    106  N        -14.4290   34.5570  -15.0230 N.3   286  TYR286     -0.1227
    107  CA       -13.1980   35.1670  -15.5520 C.3   286  TYR286      0.1736
    108  C        -12.0460   34.1930  -15.6830 C.2   286  TYR286      0.2595
    109  O        -11.8670   33.6560  -16.7800 O.2   286  TYR286     -0.2718
    110  CB       -12.7760   36.4810  -14.8640 C.3   286  TYR286      0.0548
    111  CG       -13.9580   37.3780  -14.6200 C.ar  286  TYR286     -0.0200
    112  CD1      -14.7320   37.8400  -15.6810 C.ar  286  TYR286     -0.0009
    113  CD2      -14.3690   37.6800  -13.3200 C.ar  286  TYR286     -0.0009
    114  CE1      -15.8610   38.5670  -15.4660 C.ar  286  TYR286      0.0417
    115  CE2      -15.5010   38.4450  -13.0880 C.ar  286  TYR286      0.0417
    116  CZ       -16.2420   38.8590  -14.1750 C.ar  286  TYR286      0.1957
    117  OH       -17.3850   39.5940  -14.0410 O.3   286  TYR286     -0.2866
    118  N        -11.2200   33.9830  -14.6610 N.am  287  PHE287     -0.1976
    119  CA       -10.0660   33.1200  -14.7980 C.3   287  PHE287      0.1639
    120  C         -9.6090   32.7070  -13.3890 C.2   287  PHE287      0.2290
    121  O        -10.1270   33.2820  -12.4270 O.2   287  PHE287     -0.2864
    122  CB        -8.9290   33.8460  -15.5300 C.3   287  PHE287      0.0560
    123  CG        -8.4220   35.1330  -14.8960 C.ar  287  PHE287     -0.0200
    124  CD1       -9.0010   36.3690  -15.1780 C.ar  287  PHE287     -0.0042
    125  CD2       -7.3390   35.1120  -14.0330 C.ar  287  PHE287     -0.0042
    126  CE1       -8.4880   37.5380  -14.6500 C.ar  287  PHE287     -0.0003
    127  CE2       -6.8380   36.2990  -13.4680 C.ar  287  PHE287     -0.0003
    128  CZ        -7.4220   37.5280  -13.7800 C.ar  287  PHE287     -0.0000
    129  N        -13.8040   29.9470  -24.7340 N.3   311  GLY311     -0.1225
    130  CA       -14.2090   31.2540  -25.2580 C.3   311  GLY311      0.1811
    131  C        -14.8400   31.1360  -26.6400 C.2   311  GLY311      0.2280
    132  O        -14.7910   30.0710  -27.2560 O.2   311  GLY311     -0.2866
    133  N        -14.9440   33.5600  -30.1410 N.3   313  VAL313     -0.1245
    134  CA       -14.3680   34.7610  -30.7590 C.3   313  VAL313      0.1561
    135  C        -14.7840   34.6650  -32.2230 C.2   313  VAL313      0.2260
    136  O        -14.4090   33.6810  -32.8620 O.2   313  VAL313     -0.2867
    137  CB       -12.8380   34.6930  -30.7090 C.3   313  VAL313      0.0252
    138  CG1      -12.2210   35.9430  -31.4390 C.3   313  VAL313      0.0019
    139  CG2      -12.3460   34.5750  -29.2680 C.3   313  VAL313      0.0019
    140  N        -13.0220   47.8320  -28.7980 N.3   331  ARG331     -0.1245
    141  CA       -13.1810   47.2430  -27.4560 C.3   331  ARG331      0.1563
    142  C        -12.3770   47.9850  -26.3820 C.2   331  ARG331      0.2260
    143  O        -11.2450   48.4560  -26.5780 O.2   331  ARG331     -0.2867
    144  CB       -12.6070   45.8270  -27.5350 C.3   331  ARG331      0.0307
    145  CG       -13.1790   45.0640  -26.3250 C.3   331  ARG331      0.0489
    146  CD       -12.7220   43.6640  -26.5100 C.3   331  ARG331      0.2205
    147  NE       -12.9310   42.7460  -25.3940 N.pl3 331  ARG331     -0.0865
    148  CZ       -13.9700   41.9200  -25.3290 C.cat 331  ARG331      0.5346
    149  NH1      -14.9550   41.9410  -26.2430 N.pl3 331  ARG331      0.1354
    150  NH2      -13.9110   41.0700  -24.3130 N.pl3 331  ARG331      0.1354
    151  N        -10.6370   47.4120  -22.9380 N.3   333  ASP333     -0.1239
    152  CA       -10.2230   46.4430  -21.9260 C.3   333  ASP333      0.1674
    153  C         -9.2670   47.0990  -20.9280 C.2   333  ASP333      0.2266
    154  O         -8.5470   48.0790  -21.2170 O.2   333  ASP333     -0.2867
    155  CB        -9.5930   45.2340  -22.6240 C.3   333  ASP333      0.1410
    156  CG       -10.6510   44.2640  -23.1640 C.2   333  ASP333      0.3668
    157  OD1      -11.8860   44.4090  -23.0140 O.co2 333  ASP333     -0.2456
    158  OD2      -10.2210   43.2770  -23.7870 O.co2 333  ASP333     -0.2456
    159  N        -16.2690   38.6530  -28.7460 N.3   347  GLN347     -0.1231
    160  CA       -15.0930   38.1300  -28.0930 C.3   347  GLN347      0.1698
    161  C        -15.4990   38.0030  -26.6230 C.2   347  GLN347      0.2592
    162  O        -15.6990   39.0270  -25.9520 O.2   347  GLN347     -0.2718
    163  CB       -13.8880   39.1130  -28.1680 C.3   347  GLN347      0.0381
    164  CG       -12.6830   38.6750  -27.3980 C.3   347  GLN347      0.0905
    165  CD       -11.5730   39.7270  -27.4150 C.2   347  GLN347      0.2608
    166  OE1      -11.3010   40.3010  -28.4830 O.2   347  GLN347     -0.2717
    167  NE2      -10.9160   39.9590  -26.2750 N.am  347  GLN347     -0.0878
    168  N        -15.7450   36.7680  -26.1930 N.am  348  CYS348     -0.1956
    169  CA       -16.1340   36.6370  -24.7720 C.3   348  CYS348      0.1843
    170  C        -15.9510   35.2030  -24.2830 C.2   348  CYS348      0.2626
    171  O        -15.8570   34.2990  -25.1070 O.2   348  CYS348     -0.2714
    172  CB       -17.5770   37.0920  -24.5810 C.3   348  CYS348      0.0997
    173  SG       -18.7700   35.9310  -25.2950 S.3   348  CYS348     -0.0797
    174  N        -15.9550   35.0530  -22.9590 N.am  349  THR349     -0.1950
    175  CA       -16.1610   33.7170  -22.3920 C.3   349  THR349      0.1897
    176  C        -17.6190   33.7160  -21.9040 C.2   349  THR349      0.2313
    177  O        -17.9690   34.4710  -21.0030 O.2   349  THR349     -0.2863
    178  CB       -15.2310   33.5720  -21.1690 C.3   349  THR349      0.1794
    179  OG1      -13.8550   33.8860  -21.4170 O.3   349  THR349     -0.2208
    180  CG2      -15.2720   32.1240  -20.6670 C.3   349  THR349      0.0378
    181  N        -19.0250   34.2580  -18.3270 N.3   352  ASN352     -0.1225
    182  CA       -18.9030   35.5460  -17.6750 C.3   352  ASN352      0.1785
    183  C        -20.1360   36.4320  -17.7710 C.2   352  ASN352      0.2597
    184  O        -20.1540   37.5150  -17.1830 O.2   352  ASN352     -0.2718
    185  CB       -17.7120   36.3350  -18.2560 C.3   352  ASN352      0.1169
    186  CG       -16.3830   35.6920  -17.9600 C.2   352  ASN352      0.2627
    187  OD1      -16.2440   34.8740  -17.0550 O.2   352  ASN352     -0.2716
    188  ND2      -15.3620   36.0610  -18.7280 N.am  352  ASN352     -0.0877
    189  N        -21.1100   36.0260  -18.5860 N.am  353  TYR353     -0.1976
    190  CA       -22.2910   36.8420  -18.7670 C.3   353  TYR353      0.1639
    191  C        -23.5660   36.1060  -18.3330 C.2   353  TYR353      0.2290
    192  O        -24.6450   36.6890  -18.5000 O.2   353  TYR353     -0.2864
    193  CB       -22.4140   37.3660  -20.2100 C.3   353  TYR353      0.0560
    194  CG       -21.2660   38.2650  -20.6270 C.ar  353  TYR353     -0.0198
    195  CD1      -21.4010   39.6480  -20.7040 C.ar  353  TYR353     -0.0009
    196  CD2      -20.0530   37.7180  -21.0100 C.ar  353  TYR353     -0.0009
    197  CE1      -20.3220   40.4680  -21.1110 C.ar  353  TYR353      0.0417
    198  CE2      -18.9370   38.5330  -21.3640 C.ar  353  TYR353      0.0417
    199  CZ       -19.0920   39.8990  -21.4320 C.ar  353  TYR353      0.1957
    200  OH       -17.9900   40.6350  -21.8580 O.3   353  TYR353     -0.2866
    201  N         -4.4790   29.9750  -26.3340 N.3   384  GLU384     -0.1245
    202  CA        -3.6180   31.1560  -26.1560 C.3   384  GLU384      0.1567
    203  C         -2.2380   30.8100  -25.6210 C.2   384  GLU384      0.2260
    204  O         -2.0100   29.6320  -25.3180 O.2   384  GLU384     -0.2867
    205  CB        -4.3080   32.2090  -25.2720 C.3   384  GLU384      0.0388
    206  CG        -5.7800   32.4490  -25.6340 C.3   384  GLU384      0.1160
    207  CD        -6.0190   33.0020  -27.0340 C.2   384  GLU384      0.3649
    208  OE1       -5.0760   33.4140  -27.7340 O.co2 384  GLU384     -0.2457
    209  OE2       -7.1860   33.0450  -27.4760 O.co2 384  GLU384     -0.2457
    210  N         -6.0840   27.5880  -22.2460 N.3   392  VAL392     -0.1245
    211  CA        -7.1060   28.5930  -22.4970 C.3   392  VAL392      0.1561
    212  C         -7.4840   28.5370  -23.9960 C.2   392  VAL392      0.2260
    213  O         -6.6540   28.8460  -24.8720 O.2   392  VAL392     -0.2867
    214  CB        -6.5860   30.0090  -22.1650 C.3   392  VAL392      0.0252
    215  CG1       -7.6180   31.0090  -22.6810 C.3   392  VAL392      0.0019
    216  CG2       -6.3860   30.2180  -20.6290 C.3   392  VAL392      0.0019
    217  N        -10.5350   28.8170  -27.3210 N.3   394  ALA394     -0.1245
    218  CA       -11.7690   29.4530  -27.7990 C.3   394  ALA394      0.1562
    219  C        -12.0830   28.8870  -29.1600 C.2   394  ALA394      0.2260
    220  O        -11.1560   28.4890  -29.8840 O.2   394  ALA394     -0.2867
    221  CB       -11.5920   30.9940  -27.9420 C.3   394  ALA394      0.0290
    222  N         -6.8450   38.8880  -30.5000 N.3   432  GLU432     -0.1245
    223  CA        -7.9010   37.9920  -31.0170 C.3   432  GLU432      0.1567
    224  C         -8.3090   38.2770  -32.4770 C.2   432  GLU432      0.2260
    225  O         -8.5590   37.3880  -33.3100 O.2   432  GLU432     -0.2867
    226  CB        -9.1540   38.0640  -30.1300 C.3   432  GLU432      0.0388
    227  CG        -8.9010   37.4270  -28.7240 C.3   432  GLU432      0.1160
    228  CD        -8.2310   38.3630  -27.7060 C.2   432  GLU432      0.3649
    229  OE1       -8.0330   37.9210  -26.5490 O.co2 432  GLU432     -0.2457
    230  OE2       -7.8740   39.5290  -27.9810 O.co2 432  GLU432     -0.2457
@<TRIPOS>BOND
     1   225   224    2
     2   136   135    2
     3   224   223    1
     4   135   134    1
     5   138   137    1
     6   223   222    1
     7   223   226    1
     8   134   137    1
     9   134   133    1
    10   137   139    1
    11   226   227    1
    12   220   219    2
    13   219   218    1
    14   140   141    1
    15   159   160    1
    16   227   228    1
    17   166   165    2
    18   163   160    1
    19   163   164    1
    20   160   161    1
    21   230   228   ar
    22   221   218    1
    23   218   217    1
    24   208   207   ar
    25   228   229   ar
    26   144   141    1
    27   144   145    1
    28   209   207   ar
    29   141   142    1
    30   165   164    1
    31   165   167   am
    32   132   131    2
    33   207   206    1
    34   131   130    1
    35   161   168   am
    36   161   162    2
    37   143   142    2
    38   146   145    1
    39   146   147    1
    40   201   202    1
    41   149   148    1
    42   168   169    1
    43   202   203    1
    44   202   205    1
    45    61    59   am
    46   206   205    1
    47   203   204    2
    48   147   148    2
    49   148   150    1
    50   173   172    1
    51   130   129    1
    52   171   170    2
    53    59    60    2
    54    59    58    1
    55   213   212    2
    56    53    54    1
    57   169   172    1
    58   169   170    1
    59    58    57    1
    60   170   174   am
    61    54    57    1
    62    54    55    1
    63   212   211    1
    64   158   156   ar
    65    55    56    2
    66   156   157   ar
    67   156   155    1
    68   174   175    1
    69   151   152    1
    70   215   214    1
    71   155   152    1
    72   211   210    1
    73   211   214    1
    74   175   176    1
    75   175   178    1
    76   214   216    1
    77   152   153    1
    78   176   177    2
    79   200   199    1
    80    80    81   ar
    81    80    78   ar
    82   199   198   ar
    83   199   197   ar
    84   179   178    1
    85    62    63    1
    86   198   196   ar
    87   154   153    2
    88    67    66    1
    89    81    79   ar
    90   178   180    1
    91   197   195   ar
    92   196   194   ar
    93    78    75   ar
    94   195   194   ar
    95   194   193    1
    96    66    63    1
    97    10     9    1
    98   193   190    1
    99    63    64    1
   100    79    77   ar
   101    75    77   ar
   102    75    73   ar
   103     9    11    1
   104     9     8    2
   105    68    64   am
   106    68    69    1
   107    77    76   ar
   108    64    65    2
   109     8     7    1
   110    72    73    1
   111    72    69    1
   112    73    74   ar
   113   190   189    1
   114   190   191    1
   115   188   186   am
   116   189   183   am
   117    69    70    1
   118   192   191    2
   119    76    74   ar
   120    70    71    2
   121   181   182    1
   122   185   186    1
   123   185   182    1
   124     7     6    1
   125   186   187    2
   126   183   182    1
   127   183   184    2
   128     6     5    1
   129    34    32   ar
   130    34    33   ar
   131   109   108    2
   132    32    30   ar
   133     5     2    1
   134    33    31   ar
   135   108   107    1
   136   108   118   am
   137   112   114   ar
   138   112   111   ar
   139   107   106    1
   140   107   110    1
   141   122   123    1
   142   122   119    1
   143   114   116   ar
   144     1     2    1
   145    51    50    2
   146   124   123   ar
   147   124   126   ar
   148    52    50   am
   149    30    29   ar
   150    30    28   ar
   151     2     3    1
   152   123   125   ar
   153   110   111    1
   154    31    28   ar
   155   119   118    1
   156   119   120    1
   157   126   128   ar
   158   111   113   ar
   159    50    49    1
   160    29    27   ar
   161    28    26   ar
   162   116   117    1
   163   116   115   ar
   164   125   127   ar
   165     4     3    2
   166     3    12   am
   167   128   127   ar
   168   120   121    2
   169   113   115   ar
   170    49    48    1
   171    27    26   ar
   172    26    25    1
   173    12    13    1
   174    48    45    1
   175    13    14    1
   176    13    16    1
   177    25    22    1
   178    95    93   ar
   179    95    94   ar
   180    14    21   am
   181    14    15    2
   182    21    22    1
   183    93    91   ar
   184    22    23    1
   185    24    23    2
   186    16    17    1
   187    45    46    1
   188    45    44    1
   189    47    46    2
   190    23    35   am
   191    94    92   ar
   192    44    37   am
   193    91    90   ar
   194    91    89   ar
   195    37    38    2
   196    37    36    1
   197    17    18    1
   198    35    36    1
   199   100   101    1
   200   100    97    1
   201   103   101   ar
   202   103   105   ar
   203   101   102   ar
   204   105   104   ar
   205    90    88   ar
   206    36    39    1
   207   102   104   ar
   208    92    89   ar
   209    89    87   ar
   210    18    20   ar
   211    18    19   ar
   212    96    97    1
   213    97    98    1
   214    88    87   ar
   215    39    40    1
   216    87    86    1
   217    40    41    1
   218    99    98    2
   219    86    83    1
   220    41    43   am
   221    41    42    2
   222    83    82    1
   223    83    84    1
   224    84    85    2
