@<TRIPOS>MOLECULE
tmp/4j7hA00.pdb
 221 212 0 0 0
SMALL
GASTEIGER

@<TRIPOS>ATOM
      1  N        -21.1360   13.2040    3.9820 N.3    57  TRP57      -0.1241
      2  CA       -20.3210   11.9920    3.9720 C.3    57  TRP57       0.1605
      3  C        -20.1960   11.4620    2.5550 C.2    57  TRP57       0.2264
      4  O        -21.1140   11.6060    1.7400 O.2    57  TRP57      -0.2867
      5  CB       -20.9580   10.8820    4.8120 C.3    57  TRP57       0.0550
      6  CG       -20.9580   11.1430    6.2890 C.ar   57  TRP57       0.0003
      7  CD1      -21.8470   11.9200    6.9990 C.ar   57  TRP57       0.0946
      8  CD2      -20.0010   10.6440    7.2500 C.ar   57  TRP57       0.0152
      9  NE1      -21.4960   11.9280    8.3310 N.ar   57  TRP57      -0.2442
     10  CE2      -20.3620   11.1740    8.5070 C.ar   57  TRP57       0.0810
     11  CE3      -18.8740    9.8090    7.1530 C.ar   57  TRP57       0.0012
     12  CZ2      -19.6720   10.8550    9.6860 C.ar   57  TRP57       0.0191
     13  CZ3      -18.1660    9.5170    8.3190 C.ar   57  TRP57       0.0001
     14  CH2      -18.5710   10.0400    9.5600 C.ar   57  TRP57       0.0015
     15  N        -16.2250   11.8890    6.4250 N.3    68  HIS68      -0.1241
     16  CA       -16.9560   13.1680    6.4560 C.3    68  HIS68       0.1621
     17  C        -16.1520   14.2020    5.6710 C.2    68  HIS68       0.2264
     18  O        -14.9540   14.3120    5.8790 O.2    68  HIS68      -0.2867
     19  CB       -17.1310   13.6860    7.8800 C.3    68  HIS68       0.0745
     20  CG       -18.1920   14.7340    7.9990 C.ar   68  HIS68       0.0817
     21  ND1      -17.9300   16.0710    7.7720 N.ar   68  HIS68      -0.2268
     22  CD2      -19.5100   14.6500    8.2990 C.ar   68  HIS68       0.1154
     23  CE1      -19.0470   16.7630    7.9270 C.ar   68  HIS68       0.1986
     24  NE2      -20.0180   15.9280    8.2510 N.ar   68  HIS68      -0.2212
     25  N        -13.8470   15.9240   10.0580 N.3    72  ARG72      -0.1231
     26  CA       -14.2010   15.7370   11.4700 C.3    72  ARG72       0.1694
     27  C        -14.7750   14.3270   11.6540 C.2    72  ARG72       0.2592
     28  O        -14.9420   13.5910   10.6830 O.2    72  ARG72      -0.2718
     29  CB       -15.2410   16.7760   11.9140 C.3    72  ARG72       0.0321
     30  CG       -14.6540   18.1900   11.9600 C.3    72  ARG72       0.0489
     31  CD       -15.5310   19.1430   12.7630 C.3    72  ARG72       0.2205
     32  NE       -16.7710   19.5010   12.0820 N.pl3  72  ARG72      -0.0865
     33  CZ       -17.9490   19.5850   12.6930 C.cat  72  ARG72       0.5346
     34  NH1      -18.0540   19.3090   13.9920 N.pl3  72  ARG72       0.1354
     35  NH2      -19.0220   19.9280   11.9890 N.pl3  72  ARG72       0.1354
     36  N        -15.1030   13.9470   12.8850 N.am   73  PHE73      -0.1962
     37  CA       -15.7730   12.6670   13.1350 C.3    73  PHE73       0.1771
     38  C        -14.8940   11.4490   12.8440 C.2    73  PHE73       0.2619
     39  O        -13.6770   11.5220   13.0090 O.2    73  PHE73      -0.2715
     40  CB       -17.1360   12.5690   12.4340 C.3    73  PHE73       0.0574
     41  CG       -17.9670   13.8060   12.6660 C.ar   73  PHE73      -0.0200
     42  CD1      -18.2870   14.2030   13.9510 C.ar   73  PHE73      -0.0042
     43  CD2      -18.3330   14.6050   11.5910 C.ar   73  PHE73      -0.0042
     44  CE1      -19.0470   15.3500   14.1780 C.ar   73  PHE73      -0.0003
     45  CE2      -19.0750   15.7740   11.8170 C.ar   73  PHE73      -0.0003
     46  CZ       -19.4110   16.1320   13.1070 C.ar   73  PHE73      -0.0000
     47  N        -15.4960   10.3340   12.4440 N.am   74  PHE74      -0.1974
     48  CA       -14.8040    9.0740   12.2890 C.3    74  PHE74       0.1639
     49  C        -14.8040    8.6900   10.8180 C.2    74  PHE74       0.2290
     50  O        -15.4310    9.3770    9.9930 O.2    74  PHE74      -0.2864
     51  CB       -15.5400    8.0100   13.1140 C.3    74  PHE74       0.0560
     52  CG       -16.9980    7.8100   12.7290 C.ar   74  PHE74      -0.0200
     53  CD1      -17.3250    6.8110   11.8070 C.ar   74  PHE74      -0.0042
     54  CD2      -18.0020    8.5960   13.2790 C.ar   74  PHE74      -0.0042
     55  CE1      -18.6830    6.5980   11.4670 C.ar   74  PHE74      -0.0003
     56  CE2      -19.3630    8.3870   12.9450 C.ar   74  PHE74      -0.0003
     57  CZ       -19.6900    7.3680   12.0420 C.ar   74  PHE74      -0.0000
     58  N        -10.9220    6.6260   14.3350 N.3   103  GLN103     -0.1245
     59  CA       -10.9850    8.0650   14.6330 C.3   103  GLN103      0.1566
     60  C         -9.7540    8.2920   15.5260 C.2   103  GLN103      0.2260
     61  O         -9.7970    7.9990   16.7240 O.2   103  GLN103     -0.2867
     62  CB       -12.2740    8.4160   15.3960 C.3   103  GLN103      0.0367
     63  CG       -12.3070    9.8860   15.8510 C.3   103  GLN103      0.0905
     64  CD       -13.6750   10.4190   16.2130 C.2   103  GLN103      0.2608
     65  OE1      -14.6130    9.6360   16.3670 O.2   103  GLN103     -0.2717
     66  NE2      -13.7970   11.7390   16.4330 N.am  103  GLN103     -0.0878
     67  N        -11.1350   11.2200   22.7470 N.3   107  GLY107     -0.1210
     68  CA       -12.2370   12.0410   23.2660 C.3   107  GLY107      0.1956
     69  C        -12.2230   12.0680   24.7850 C.2   107  GLY107      0.2612
     70  O        -11.5510   11.2790   25.4460 O.2   107  GLY107     -0.2717
     71  N        -12.9960   13.0050   25.3160 N.am  108  ILE108     -0.1965
     72  CA       -13.1480   13.1400   26.7780 C.3   108  ILE108      0.1727
     73  C        -14.4660   12.5250   27.1940 C.2   108  ILE108      0.2616
     74  O        -15.5140   12.8620   26.6220 O.2   108  ILE108     -0.2715
     75  CB       -13.1980   14.6390   27.1790 C.3   108  ILE108      0.0290
     76  CG1      -11.8260   15.2490   26.8990 C.3   108  ILE108      0.0022
     77  CG2      -13.5390   14.7910   28.6750 C.3   108  ILE108      0.0023
     78  CD1      -11.8780   16.7630   27.0170 C.3   108  ILE108      0.0001
     79  N        -14.4200   11.6390   28.1900 N.am  109  LEU109     -0.1977
     80  CA       -15.6500   11.1740   28.8360 C.3   109  LEU109      0.1596
     81  C        -15.4470   11.5660   30.2960 C.2   109  LEU109      0.2287
     82  O        -14.7150   10.9200   31.0440 O.2   109  LEU109     -0.2864
     83  CB       -15.7530    9.6620   28.6850 C.3   109  LEU109      0.0297
     84  CG       -15.6360    9.0320   27.2930 C.3   109  LEU109      0.0022
     85  CD1      -15.6710    7.5110   27.4100 C.3   109  LEU109      0.0001
     86  CD2      -16.8040    9.5600   26.4380 C.3   109  LEU109      0.0001
     87  N        -28.9550   12.1380   27.6990 N.3   127  LYS127     -0.1245
     88  CA       -28.4340   12.5130   26.3990 C.3   127  LYS127      0.1561
     89  C        -29.0320   11.6540   25.2950 C.2   127  LYS127      0.2260
     90  O        -29.0390   10.4180   25.3540 O.2   127  LYS127     -0.2867
     91  CB       -26.9060   12.3350   26.4000 C.3   127  LYS127      0.0271
     92  CG       -26.2710   12.7550   25.0660 C.3   127  LYS127      0.0035
     93  CD       -24.7450   12.7970   25.1580 C.3   127  LYS127      0.0206
     94  CE       -24.1360   13.2620   23.8410 C.3   127  LYS127      0.1093
     95  NZ       -24.0920   14.7490   23.8430 N.3   127  LYS127     -0.1314
     96  N        -28.7390   10.0420   21.7500 N.3   129  GLU129     -0.1245
     97  CA       -27.7490    9.6450   20.7620 C.3   129  GLU129      0.1567
     98  C        -28.5170    8.7890   19.7640 C.2   129  GLU129      0.2260
     99  O        -29.3460    7.9610   20.1470 O.2   129  GLU129     -0.2867
    100  CB       -26.5810    8.8750   21.4160 C.3   129  GLU129      0.0388
    101  CG       -25.8550    9.8190   22.3680 C.3   129  GLU129      0.1160
    102  CD       -24.6280    9.1870   23.0310 C.2   129  GLU129      0.3649
    103  OE1      -24.8370    8.5400   24.0640 O.co2 129  GLU129     -0.2457
    104  OE2      -23.4940    9.3690   22.5430 O.co2 129  GLU129     -0.2457
    105  N        -19.1410   14.8340   27.2780 N.3   143  GLN143     -0.1231
    106  CA       -18.6840   13.8350   26.3090 C.3   143  GLN143      0.1698
    107  C        -18.3280   14.7160   25.1060 C.2   143  GLN143      0.2592
    108  O        -19.2100   15.3430   24.5100 O.2   143  GLN143     -0.2718
    109  CB       -19.8640   12.8940   26.0900 C.3   143  GLN143      0.0381
    110  CG       -19.5840   11.5420   25.5070 C.3   143  GLN143      0.0905
    111  CD       -20.8660   10.7790   25.2760 C.2   143  GLN143      0.2608
    112  OE1      -21.3390    9.9930   26.1060 O.2   143  GLN143     -0.2717
    113  NE2      -21.4080   10.9630   24.0740 N.am  143  GLN143     -0.0878
    114  N        -17.0530   14.8390   24.7630 N.am  144  ALA144     -0.1966
    115  CA       -16.6220   15.8150   23.7600 C.3   144  ALA144      0.1728
    116  C        -15.2990   15.4020   23.1450 C.2   144  ALA144      0.2616
    117  O        -14.5140   14.6780   23.7600 O.2   144  ALA144     -0.2715
    118  CB       -16.4390   17.1860   24.4190 C.3   144  ALA144      0.0334
    119  N        -15.0090   15.9080   21.9500 N.am  145  THR145     -0.1951
    120  CA       -13.7210   15.6390   21.3460 C.3   145  THR145      0.1897
    121  C        -13.1450   16.8860   20.6800 C.2   145  THR145      0.2313
    122  O        -13.9280   17.6820   20.1410 O.2   145  THR145     -0.2863
    123  CB       -13.8750   14.3880   20.4570 C.3   145  THR145      0.1794
    124  OG1      -12.5810   13.8140   20.2200 O.3   145  THR145     -0.2208
    125  CG2      -14.5810   14.7240   19.1700 C.3   145  THR145      0.0378
    126  N        -14.1920   18.6690   17.3800 N.3   148  ASN148     -0.1240
    127  CA       -15.4400   19.4340   17.3310 C.3   148  ASN148      0.1653
    128  C        -15.4290   20.8750   17.8650 C.2   148  ASN148      0.2266
    129  O        -16.4450   21.5690   17.7740 O.2   148  ASN148     -0.2867
    130  CB       -16.5830   18.6640   18.0040 C.3   148  ASN148      0.1155
    131  CG       -16.9430   17.3870   17.2680 C.2   148  ASN148      0.2627
    132  OD1      -16.8110   17.3270   16.0490 O.2   148  ASN148     -0.2716
    133  ND2      -17.3850   16.3630   17.9960 N.am  148  ASN148     -0.0877
    134  N        -11.8490    1.2850   23.3930 N.3   173  GLU173     -0.1245
    135  CA       -13.2260    0.9870   22.9630 C.3   173  GLU173      0.1567
    136  C        -13.2290   -0.3860   22.2960 C.2   173  GLU173      0.2260
    137  O        -12.2330   -1.1380   22.2940 O.2   173  GLU173     -0.2867
    138  CB       -13.7320    2.1070   22.0280 C.3   173  GLU173      0.0388
    139  CG       -13.6770    3.4600   22.7350 C.3   173  GLU173      0.1160
    140  CD       -13.9950    4.6600   21.8610 C.2   173  GLU173      0.3649
    141  OE1      -15.1860    4.9100   21.5740 O.co2 173  GLU173     -0.2457
    142  OE2      -13.0170    5.3610   21.5070 O.co2 173  GLU173     -0.2457
    143  N         -8.8380    2.4940   19.1290 N.3   181  LYS181     -0.1245
    144  CA        -9.2990    3.7870   19.6110 C.3   181  LYS181      0.1561
    145  C         -9.4470    3.7330   21.1360 C.2   181  LYS181      0.2260
    146  O         -9.9500    2.7330   21.6580 O.2   181  LYS181     -0.2867
    147  CB       -10.6500    4.1060   18.9900 C.3   181  LYS181      0.0271
    148  CG       -10.6620    5.6540   18.9460 C.3   181  LYS181      0.0035
    149  CD       -12.0530    6.1380   18.8510 C.3   181  LYS181      0.0206
    150  CE       -12.0690    7.6480   18.9190 C.3   181  LYS181      0.1093
    151  NZ       -12.0070    7.9730   20.3470 N.3   181  LYS181     -0.1314
    152  N        -10.5640    6.3960   24.6460 N.3   183  ASN183     -0.1240
    153  CA       -11.0340    7.7120   25.0620 C.3   183  ASN183      0.1653
    154  C        -10.5160    7.9720   26.4730 C.2   183  ASN183      0.2266
    155  O        -10.1680    7.0440   27.2220 O.2   183  ASN183     -0.2867
    156  CB       -12.5650    7.7170   25.1820 C.3   183  ASN183      0.1155
    157  CG       -13.1940    7.9480   23.8200 C.2   183  ASN183      0.2627
    158  OD1      -12.6540    8.6980   23.0010 O.2   183  ASN183     -0.2716
    159  ND2      -14.2950    7.2440   23.5670 N.am  183  ASN183     -0.0877
    160  N        -20.6120    4.7910   27.7290 N.3   221  ASN221     -0.1240
    161  CA       -19.5430    5.6830   28.1940 C.3   221  ASN221      0.1653
    162  C        -19.5680    5.9100   29.6950 C.2   221  ASN221      0.2266
    163  O        -18.5220    5.9560   30.3450 O.2   221  ASN221     -0.2867
    164  CB       -19.5480    6.9810   27.3920 C.3   221  ASN221      0.1155
    165  CG       -19.0940    6.7270   25.9610 C.2   221  ASN221      0.2627
    166  OD1      -18.2630    5.8380   25.6920 O.2   221  ASN221     -0.2716
    167  ND2      -19.6360    7.5170   25.0370 N.am  221  ASN221     -0.0877
    168  N        -28.8900   16.0580   11.2200 N.3   298  TRP298     -0.1227
    169  CA       -27.6870   15.6170   10.5310 C.3   298  TRP298      0.1737
    170  C        -27.8500   14.1990   10.0090 C.2   298  TRP298      0.2596
    171  O        -28.8480   13.5480   10.3120 O.2   298  TRP298     -0.2718
    172  CB       -26.4440   15.7370   11.4230 C.3   298  TRP298      0.0564
    173  CG       -26.3240   14.6700   12.4910 C.ar  298  TRP298      0.0003
    174  CD1      -25.6080   13.5020   12.3920 C.ar  298  TRP298      0.0946
    175  CD2      -26.8980   14.6840   13.8070 C.ar  298  TRP298      0.0152
    176  NE1      -25.6930   12.8130   13.5790 N.ar  298  TRP298     -0.2442
    177  CE2      -26.4710   13.5070   14.4640 C.ar  298  TRP298      0.0810
    178  CE3      -27.6870   15.5840   14.5240 C.ar  298  TRP298      0.0012
    179  CZ2      -26.8670   13.1910   15.7670 C.ar  298  TRP298      0.0191
    180  CZ3      -28.0630   15.2770   15.8280 C.ar  298  TRP298      0.0001
    181  CH2      -27.6530   14.0920   16.4390 C.ar  298  TRP298      0.0015
    182  N        -26.8810   13.7520    9.2160 N.am  299  THR299     -0.1939
    183  CA       -26.8560   12.3830    8.7460 C.3   299  THR299      0.2028
    184  C        -25.5020   11.7810    9.1380 C.2   299  THR299      0.2642
    185  O        -24.5070   12.5020    9.2080 O.2   299  THR299     -0.2714
    186  CB       -27.0230   12.2440    7.2150 C.3   299  THR299      0.1808
    187  OG1      -25.8880   12.8140    6.5420 O.3   299  THR299     -0.2208
    188  CG2      -28.3450   12.8840    6.7430 C.3   299  THR299      0.0379
    189  N        -25.4660   10.4660    9.3340 N.am  300  GLN300     -0.1976
    190  CA       -24.1920    9.8010    9.6260 C.3   300  GLN300      0.1601
    191  C        -24.3260    8.2960    9.4170 C.2   300  GLN300      0.2287
    192  O        -25.4230    7.7380    9.5090 O.2   300  GLN300     -0.2864
    193  CB       -23.7520   10.1430   11.0670 C.3   300  GLN300      0.0394
    194  CG       -24.6640    9.5190   12.1200 C.3   300  GLN300      0.0908
    195  CD       -24.0610    9.5260   13.5200 C.2   300  GLN300      0.2608
    196  OE1      -24.2610   10.4450   14.3210 O.2   300  GLN300     -0.2717
    197  NE2      -23.2350    8.4980   13.7770 N.am  300  GLN300     -0.0878
    198  N        -22.1510    2.3660   22.5460 N.3   383  GLU383     -0.1245
    199  CA       -22.0930    3.8290   22.3400 C.3   383  GLU383      0.1567
    200  C        -23.0730    4.2770   21.2450 C.2   383  GLU383      0.2260
    201  O        -22.8590    3.9510   20.0760 O.2   383  GLU383     -0.2867
    202  CB       -20.7170    4.1500   21.6990 C.3   383  GLU383      0.0388
    203  CG       -19.5280    4.4040   22.5770 C.3   383  GLU383      0.1160
    204  CD       -18.2700    4.6120   21.7360 C.2   383  GLU383      0.3649
    205  OE1      -18.2750    5.5270   20.8920 O.co2 383  GLU383     -0.2457
    206  OE2      -17.2760    3.8610   21.8740 O.co2 383  GLU383     -0.2457
    207  N        -23.5610    7.0050   19.6960 N.3   385  GLY385     -0.1210
    208  CA       -23.0220    7.8420   18.6210 C.3   385  GLY385      0.1956
    209  C        -22.4230    7.0510   17.4680 C.2   385  GLY385      0.2611
    210  O        -22.1490    7.6550   16.4430 O.2   385  GLY385     -0.2717
    211  N        -22.1910    5.7460   17.5920 N.am  386  ARG386     -0.1979
    212  CA       -21.4940    4.9740   16.5810 C.3   386  ARG386      0.1597
    213  C        -22.2670    3.6980   16.2420 C.2   386  ARG386      0.2287
    214  O        -22.0900    3.1610   15.1420 O.2   386  ARG386     -0.2864
    215  CB       -20.0840    4.6040   17.1060 C.3   386  ARG386      0.0334
    216  CG       -19.2090    5.8150   17.3570 C.3   386  ARG386      0.0492
    217  CD       -18.8000    6.5510   16.0870 C.3   386  ARG386      0.2205
    218  NE       -17.9540    7.7140   16.3670 N.pl3 386  ARG386     -0.0865
    219  CZ       -18.3920    8.9630   16.5440 C.cat 386  ARG386      0.5346
    220  NH1      -17.4850    9.9210   16.7340 N.pl3 386  ARG386      0.1354
    221  NH2      -19.6970    9.2870   16.5520 N.pl3 386  ARG386      0.1354
@<TRIPOS>BOND
     1     4     3    2
     2     3     2    1
     3     2     1    1
     4     2     5    1
     5     5     6    1
     6    17    18    2
     7    17    16    1
     8     6     7   ar
     9     6     8   ar
    10    15    16    1
    11    16    19    1
    12   187   186    1
    13   188   186    1
    14     7     9   ar
    15    11     8   ar
    16    11    13   ar
    17   186   183    1
    18     8    10   ar
    19    21    23   ar
    20    21    20   ar
    21    19    20    1
    22    23    24   ar
    23    20    22   ar
    24    24    22   ar
    25    13    14   ar
    26     9    10   ar
    27    10    12   ar
    28   183   184    1
    29   183   182    1
    30   184   185    2
    31   184   189   am
    32   182   170   am
    33   189   190    1
    34   191   192    2
    35   191   190    1
    36    14    12   ar
    37   190   193    1
    38    50    49    2
    39   170   171    2
    40   170   169    1
    41    25    26    1
    42   169   168    1
    43   169   172    1
    44    28    27    2
    45    49    48    1
    46   193   194    1
    47   172   173    1
    48    55    53   ar
    49    55    57   ar
    50    26    27    1
    51    26    29    1
    52    43    45   ar
    53    43    41   ar
    54    27    36   am
    55    53    52   ar
    56    45    46   ar
    57    29    30    1
    58    30    31    1
    59    35    33    1
    60    57    56   ar
    61    32    33    2
    62    32    31    1
    63   194   195    1
    64    48    47    1
    65    48    51    1
    66   174   173   ar
    67   174   176   ar
    68    40    41    1
    69    40    37    1
    70    47    38   am
    71   173   175   ar
    72    41    42   ar
    73    33    34    1
    74    52    51    1
    75    52    54   ar
    76    38    39    2
    77    38    37    1
    78    36    37    1
    79    56    54   ar
    80    46    44   ar
    81   195   197   am
    82   195   196    2
    83   176   177   ar
    84   175   177   ar
    85   175   178   ar
    86    42    44   ar
    87    58    59    1
    88   177   179   ar
    89   178   180   ar
    90    59    62    1
    91    59    60    1
    92   214   213    2
    93    62    63    1
    94    60    61    2
    95   179   181   ar
    96   180   181   ar
    97    63    64    1
    98   132   131    2
    99   217   218    1
   100   217   216    1
   101    64    65    2
   102    64    66   am
   103   213   212    1
   104   218   219    2
   105   210   209    2
   106   219   221    1
   107   219   220    1
   108   212   215    1
   109   212   211    1
   110   215   216    1
   111   131   133   am
   112   131   130    1
   113   127   126    1
   114   127   128    1
   115   127   130    1
   116   209   211   am
   117   209   208    1
   118   129   128    2
   119   208   207    1
   120   149   150    1
   121   149   148    1
   122   150   151    1
   123   148   147    1
   124   147   144    1
   125   143   144    1
   126   125   123    1
   127   144   145    1
   128    98    99    2
   129    98    97    1
   130   201   200    2
   131   122   121    2
   132   124   123    1
   133   123   120    1
   134   121   120    1
   135    97   100    1
   136    97    96    1
   137   205   204   ar
   138   145   146    2
   139   200   199    1
   140   120   119    1
   141   100   101    1
   142   142   140   ar
   143   141   140   ar
   144   202   199    1
   145   202   203    1
   146   204   206   ar
   147   204   203    1
   148   140   139    1
   149   119   116   am
   150   138   139    1
   151   138   135    1
   152   137   136    2
   153   136   135    1
   154   199   198    1
   155   101   102    1
   156   104   102   ar
   157    67    68    1
   158   135   134    1
   159   158   157    2
   160   102   103   ar
   161   116   115    1
   162   116   117    2
   163    68    69    1
   164   159   157   am
   165   115   118    1
   166   115   114    1
   167   157   156    1
   168    94    95    1
   169    94    93    1
   170   113   111   am
   171   108   107    2
   172   152   153    1
   173   114   107   am
   174    69    71   am
   175    69    70    2
   176   167   165   am
   177   153   156    1
   178   153   154    1
   179    92    93    1
   180    92    91    1
   181   107   106    1
   182   111   110    1
   183   111   112    2
   184    89    90    2
   185    89    88    1
   186    71    72    1
   187   110   109    1
   188   166   165    2
   189   165   164    1
   190   109   106    1
   191   106   105    1
   192    88    91    1
   193    88    87    1
   194    86    84    1
   195   154   155    2
   196    74    73    2
   197    72    75    1
   198    72    73    1
   199    76    78    1
   200    76    75    1
   201    75    77    1
   202    73    79   am
   203    84    85    1
   204    84    83    1
   205   164   161    1
   206   160   161    1
   207    79    80    1
   208   161   162    1
   209    83    80    1
   210    80    81    1
   211   162   163    2
   212    81    82    2
