@<TRIPOS>MOLECULE
tmp/4j7iA00.pdb
 211 205 0 0 0
SMALL
GASTEIGER

@<TRIPOS>ATOM
      1  N         39.0770  -19.4990   -8.7660 N.3   129  TYR129     -0.1241
      2  CA        39.8760  -18.2880   -8.6260 C.3   129  TYR129      0.1605
      3  C         39.0320  -17.1570   -8.1150 C.2   129  TYR129      0.2264
      4  O         38.5910  -16.2980   -8.8850 O.2   129  TYR129     -0.2867
      5  CB        40.5130  -17.8650   -9.9460 C.3   129  TYR129      0.0534
      6  CG        41.8590  -17.1210   -9.8000 C.ar  129  TYR129     -0.0201
      7  CD1       43.0410  -17.6800  -10.3030 C.ar  129  TYR129     -0.0009
      8  CD2       41.9460  -15.8420   -9.1980 C.ar  129  TYR129     -0.0009
      9  CE1       44.2600  -16.9950  -10.2290 C.ar  129  TYR129      0.0417
     10  CE2       43.1650  -15.1510   -9.1320 C.ar  129  TYR129      0.0417
     11  CZ        44.3290  -15.7390   -9.6320 C.ar  129  TYR129      0.1957
     12  OH        45.5850  -15.0870   -9.5890 O.3   129  TYR129     -0.2866
     13  N         41.0670   -2.2130  -13.4750 N.3   136  HIS136     -0.1241
     14  CA        42.2500   -2.2720  -14.3390 C.3   136  HIS136      0.1621
     15  C         43.1990   -1.0880  -14.1270 C.2   136  HIS136      0.2264
     16  O         44.4410   -1.2760  -14.0620 O.2   136  HIS136     -0.2867
     17  CB        41.8470   -2.4280  -15.8170 C.3   136  HIS136      0.0745
     18  CG        41.1360   -3.7540  -16.1400 C.ar  136  HIS136      0.0817
     19  ND1       41.8040   -4.8750  -16.5210 N.ar  136  HIS136     -0.2268
     20  CD2       39.7780   -4.0970  -16.1260 C.ar  136  HIS136      0.1154
     21  CE1       40.9170   -5.8580  -16.7690 C.ar  136  HIS136      0.1986
     22  NE2       39.6800   -5.3860  -16.5120 N.ar  136  HIS136     -0.2212
     23  N         45.1520   -1.6650  -11.0200 N.3   139  VAL139     -0.1231
     24  CA        46.0930   -2.7470  -11.3070 C.3   139  VAL139      0.1692
     25  C         47.2430   -2.2670  -12.1900 C.2   139  VAL139      0.2592
     26  O         48.4160   -2.6110  -11.9480 O.2   139  VAL139     -0.2718
     27  CB        45.3820   -3.9160  -12.0200 C.3   139  VAL139      0.0266
     28  CG1       46.2710   -5.1440  -12.0730 C.3   139  VAL139      0.0020
     29  CG2       44.0870   -4.2460  -11.3190 C.3   139  VAL139      0.0020
     30  N         46.8980   -1.5020  -13.2340 N.am  140  ASP140     -0.1974
     31  CA        47.8810   -1.0690  -14.2410 C.3   140  ASP140      0.1709
     32  C         48.7140    0.1520  -13.7740 C.2   140  ASP140      0.2293
     33  O         49.7930    0.4020  -14.3050 O.2   140  ASP140     -0.2864
     34  CB        47.1980   -0.7940  -15.6010 C.3   140  ASP140      0.1436
     35  CG        46.4580   -2.0420  -16.1790 C.2   140  ASP140      0.3671
     36  OD1       46.9670   -3.1930  -16.0490 O.co2 140  ASP140     -0.2456
     37  OD2       45.3710   -1.8540  -16.7890 O.co2 140  ASP140     -0.2456
     38  N         50.2830    0.3130  -10.8310 N.3   142  ARG142     -0.1245
     39  CA        51.2120   -0.1180   -9.7580 C.3   142  ARG142      0.1563
     40  C         52.2620   -1.1320  -10.2450 C.2   142  ARG142      0.2260
     41  O         52.1370   -1.6420  -11.3470 O.2   142  ARG142     -0.2867
     42  CB        50.4260   -0.6790   -8.5580 C.3   142  ARG142      0.0307
     43  CG        49.3430   -1.6770   -8.9400 C.3   142  ARG142      0.0489
     44  CD        48.6250   -2.2700   -7.7340 C.3   142  ARG142      0.2205
     45  NE        48.3020   -3.6840   -7.9510 N.pl3 142  ARG142     -0.0865
     46  CZ        47.4210   -4.3850   -7.2370 C.cat 142  ARG142      0.5346
     47  NH1       46.7300   -3.8050   -6.2590 N.pl3 142  ARG142      0.1354
     48  NH2       47.2160   -5.6740   -7.5110 N.pl3 142  ARG142      0.1354
     49  N         54.7980   -4.4180  -10.7880 N.3   144  TRP144     -0.1241
     50  CA        54.5450   -5.8470  -10.9830 C.3   144  TRP144      0.1605
     51  C         54.5890   -6.6470   -9.7120 C.2   144  TRP144      0.2264
     52  O         53.8490   -7.6410   -9.5610 O.2   144  TRP144     -0.2867
     53  CB        55.5100   -6.4460  -12.0080 C.3   144  TRP144      0.0550
     54  CG        54.9220   -6.5210  -13.3970 C.ar  144  TRP144      0.0003
     55  CD1       55.2670   -5.7520  -14.5120 C.ar  144  TRP144      0.0946
     56  CD2       53.8450   -7.4070  -13.8640 C.ar  144  TRP144      0.0152
     57  NE1       54.4980   -6.0980  -15.6050 N.ar  144  TRP144     -0.2442
     58  CE2       53.6260   -7.0840  -15.2810 C.ar  144  TRP144      0.0810
     59  CE3       53.0700   -8.3950  -13.2730 C.ar  144  TRP144      0.0012
     60  CZ2       52.6630   -7.7290  -16.0430 C.ar  144  TRP144      0.0191
     61  CZ3       52.0970   -9.0400  -14.0560 C.ar  144  TRP144      0.0001
     62  CH2       51.9060   -8.7160  -15.4100 C.ar  144  TRP144      0.0015
     63  N         51.3690   -7.5520   -8.4070 N.3   147  ASN147     -0.1225
     64  CA        50.4870   -8.0160   -9.4550 C.3   147  ASN147      0.1785
     65  C         50.6980   -9.4820   -9.7660 C.2   147  ASN147      0.2598
     66  O         50.3280   -9.9620  -10.8280 O.2   147  ASN147     -0.2718
     67  CB        50.6480   -7.1450  -10.6810 C.3   147  ASN147      0.1169
     68  CG        49.8790   -5.8670  -10.5530 C.2   147  ASN147      0.2627
     69  OD1       48.8800   -5.8260   -9.8400 O.2   147  ASN147     -0.2716
     70  ND2       50.3310   -4.8100  -11.2220 N.am  147  ASN147     -0.0877
     71  N         51.2690  -10.1900   -8.8010 N.am  148  GLY148     -0.1942
     72  CA        51.4420  -11.6400   -8.8760 C.3   148  GLY148      0.2014
     73  C         50.1600  -12.4470   -9.0490 C.2   148  GLY148      0.2639
     74  O         50.1490  -13.4520   -9.7810 O.2   148  GLY148     -0.2714
     75  N         49.0810  -12.0240   -8.3870 N.am  149  ASN149     -0.1958
     76  CA        47.8610  -12.8130   -8.4040 C.3   149  ASN149      0.1819
     77  C         46.7200  -12.0950   -9.1170 C.2   149  ASN149      0.2622
     78  O         45.5790  -12.4870   -8.9980 O.2   149  ASN149     -0.2715
     79  CB        47.4480  -13.2270   -6.9680 C.3   149  ASN149      0.1195
     80  CG        48.5270  -14.0500   -6.2440 C.2   149  ASN149      0.2630
     81  OD1       49.3650  -14.6770   -6.8680 O.2   149  ASN149     -0.2716
     82  ND2       48.4790  -14.0640   -4.9140 N.am  149  ASN149     -0.0877
     83  N         47.0090  -11.0510   -9.8750 N.am  150  THR150     -0.1937
     84  CA        45.8940  -10.3650  -10.5420 C.3   150  THR150      0.2028
     85  C         45.3680  -11.1380  -11.7470 C.2   150  THR150      0.2642
     86  O         46.1560  -11.5560  -12.6100 O.2   150  THR150     -0.2714
     87  CB        46.2790   -8.9620  -10.9930 C.3   150  THR150      0.1808
     88  OG1       47.6060   -9.0090  -11.5190 O.3   150  THR150     -0.2208
     89  CG2       46.2430   -8.0290   -9.8160 C.3   150  THR150      0.0379
     90  N         44.0390  -11.2990  -11.8320 N.am  151  LEU151     -0.1963
     91  CA        43.4480  -12.0310  -12.9530 C.3   151  LEU151      0.1728
     92  C         42.2930  -11.2700  -13.5620 C.2   151  LEU151      0.2616
     93  O         41.3170  -10.9230  -12.8710 O.2   151  LEU151     -0.2715
     94  CB        42.9950  -13.4420  -12.5320 C.3   151  LEU151      0.0311
     95  CG        41.9840  -14.2020  -13.4480 C.3   151  LEU151      0.0022
     96  CD1       42.6660  -14.8710  -14.6280 C.3   151  LEU151      0.0001
     97  CD2       41.1840  -15.2290  -12.6670 C.3   151  LEU151      0.0001
     98  N         42.3710  -11.0410  -14.8680 N.am  152  SER152     -0.1950
     99  CA        41.3550  -10.2300  -15.5260 C.3   152  SER152      0.1924
    100  C         40.0690  -11.0020  -15.5590 C.2   152  SER152      0.2314
    101  O         40.0530  -12.1690  -15.9500 O.2   152  SER152     -0.2863
    102  CB        41.7750   -9.7890  -16.9280 C.3   152  SER152      0.2116
    103  OG        40.7290   -9.0200  -17.5030 O.3   152  SER152     -0.2180
    104  N         36.0880   -6.4830  -18.5200 N.3   155  GLU155     -0.1245
    105  CA        36.7600   -5.2490  -18.9680 C.3   155  GLU155      0.1567
    106  C         36.6930   -4.1440  -17.9300 C.2   155  GLU155      0.2260
    107  O         37.4900   -3.2010  -17.9860 O.2   155  GLU155     -0.2867
    108  CB        36.2600   -4.7700  -20.3430 C.3   155  GLU155      0.0388
    109  CG        36.2340   -5.8420  -21.4390 C.3   155  GLU155      0.1160
    110  CD        37.6090   -6.3830  -21.8090 C.2   155  GLU155      0.3649
    111  OE1       38.6100   -5.6480  -21.7000 O.co2 155  GLU155     -0.2457
    112  OE2       37.6920   -7.5490  -22.2290 O.co2 155  GLU155     -0.2457
    113  N         39.2320   -6.5320  -12.2270 N.3   158  VAL158     -0.1245
    114  CA        40.3080   -7.4920  -11.9720 C.3   158  VAL158      0.1561
    115  C         40.1090   -8.1860  -10.6120 C.2   158  VAL158      0.2260
    116  O         39.6310   -7.5700   -9.6430 O.2   158  VAL158     -0.2867
    117  CB        41.7020   -6.8290  -12.0460 C.3   158  VAL158      0.0252
    118  CG1       42.8230   -7.8700  -11.8590 C.3   158  VAL158      0.0019
    119  CG2       41.8610   -6.0900  -13.3650 C.3   158  VAL158      0.0019
    120  N         44.5820  -19.3470   -7.4030 N.3   177  HIS177     -0.1241
    121  CA        45.7520  -18.4600   -7.5060 C.3   177  HIS177      0.1621
    122  C         47.0680  -19.1920   -7.2700 C.2   177  HIS177      0.2264
    123  O         48.1270  -18.6320   -7.4740 O.2   177  HIS177     -0.2867
    124  CB        45.6140  -17.2910   -6.5240 C.3   177  HIS177      0.0745
    125  CG        45.4030  -17.7350   -5.0890 C.ar  177  HIS177      0.0817
    126  ND1       44.2410  -18.3080   -4.6610 N.ar  177  HIS177     -0.2268
    127  CD2       46.2590  -17.7030   -3.9800 C.ar  177  HIS177      0.1154
    128  CE1       44.3510  -18.6280   -3.3450 C.ar  177  HIS177      0.1986
    129  NE2       45.5810  -18.2490   -2.9240 N.ar  177  HIS177     -0.2212
    130  N         47.9700  -21.9720   -8.7810 N.3   179  ALA179     -0.1245
    131  CA        48.3580  -22.6120  -10.0330 C.3   179  ALA179      0.1562
    132  C         49.4480  -21.8300  -10.7660 C.2   179  ALA179      0.2260
    133  O         49.3310  -20.6100  -10.9790 O.2   179  ALA179     -0.2867
    134  CB        47.1490  -22.7920  -10.9370 C.3   179  ALA179      0.0290
    135  N         42.0500  -20.9560  -17.5250 N.3   189  TYR189     -0.1241
    136  CA        41.0440  -20.1620  -16.8400 C.3   189  TYR189      0.1605
    137  C         39.7950  -20.1790  -17.6970 C.2   189  TYR189      0.2264
    138  O         39.8840  -20.0930  -18.9220 O.2   189  TYR189     -0.2867
    139  CB        41.5500  -18.7310  -16.6560 C.3   189  TYR189      0.0534
    140  CG        42.8160  -18.6530  -15.8200 C.ar  189  TYR189     -0.0201
    141  CD1       42.8950  -19.2860  -14.5750 C.ar  189  TYR189     -0.0009
    142  CD2       43.9420  -17.9540  -16.2730 C.ar  189  TYR189     -0.0009
    143  CE1       44.0610  -19.2310  -13.8170 C.ar  189  TYR189      0.0417
    144  CE2       45.1150  -17.8920  -15.5110 C.ar  189  TYR189      0.0417
    145  CZ        45.1600  -18.5230  -14.2950 C.ar  189  TYR189      0.1957
    146  OH        46.2960  -18.4610  -13.5430 O.3   189  TYR189     -0.2866
    147  N         36.3930  -16.6840  -12.1070 N.3   201  LYS201     -0.1245
    148  CA        36.9440  -17.7240  -12.9930 C.3   201  LYS201      0.1561
    149  C         37.3310  -19.0020  -12.2470 C.2   201  LYS201      0.2260
    150  O         37.4790  -19.0260  -11.0170 O.2   201  LYS201     -0.2867
    151  CB        38.1330  -17.1980  -13.7850 C.3   201  LYS201      0.0271
    152  CG        37.7360  -16.0740  -14.7500 C.3   201  LYS201      0.0035
    153  CD        38.6970  -15.9080  -15.9240 C.3   201  LYS201      0.0206
    154  CE        38.1390  -14.9310  -16.9430 C.3   201  LYS201      0.1093
    155  NZ        39.2270  -14.1040  -17.5420 N.3   201  LYS201     -0.1314
    156  N         48.1660  -21.0660  -18.8110 N.3   218  ALA218     -0.1231
    157  CA        48.7760  -19.9150  -19.4760 C.3   218  ALA218      0.1694
    158  C         48.2840  -18.5840  -18.8660 C.2   218  ALA218      0.2592
    159  O         47.0740  -18.2640  -18.9390 O.2   218  ALA218     -0.2718
    160  CB        48.4700  -19.9550  -20.9810 C.3   218  ALA218      0.0304
    161  N         49.2070  -17.7990  -18.2980 N.am  219  PHE219     -0.1962
    162  CA        48.8340  -16.4970  -17.7140 C.3   219  PHE219      0.1771
    163  C         48.3590  -15.5130  -18.7520 C.2   219  PHE219      0.2620
    164  O         47.5380  -14.6150  -18.4380 O.2   219  PHE219     -0.2715
    165  CB        49.9700  -15.8910  -16.8880 C.3   219  PHE219      0.0574
    166  CG        50.1980  -16.5960  -15.5780 C.ar  219  PHE219     -0.0200
    167  CD1       49.4730  -17.7420  -15.2510 C.ar  219  PHE219     -0.0042
    168  CD2       51.1620  -16.1480  -14.6810 C.ar  219  PHE219     -0.0042
    169  CE1       49.7090  -18.4270  -14.0550 C.ar  219  PHE219     -0.0003
    170  CE2       51.3920  -16.8340  -13.4850 C.ar  219  PHE219     -0.0003
    171  CZ        50.6630  -17.9710  -13.1750 C.ar  219  PHE219     -0.0000
    172  N         48.8650  -15.6750  -19.9850 N.am  220  GLY220     -0.1940
    173  CA        48.3960  -14.8810  -21.1160 C.3   220  GLY220      0.2014
    174  C         48.5490  -13.3730  -20.9350 C.2   220  GLY220      0.2639
    175  O         47.6110  -12.5900  -21.2140 O.2   220  GLY220     -0.2714
    176  N         49.7370  -12.9480  -20.5040 N.am  221  TYR221     -0.1959
    177  CA        50.0800  -11.5230  -20.5300 C.3   221  TYR221      0.1771
    178  C         50.2730  -11.0630  -21.9730 C.2   221  TYR221      0.2619
    179  O         50.5700  -11.8790  -22.8470 O.2   221  TYR221     -0.2715
    180  CB        51.3470  -11.2640  -19.7200 C.3   221  TYR221      0.0574
    181  CG        51.2310  -11.6760  -18.2570 C.ar  221  TYR221     -0.0198
    182  CD1       50.1850  -11.1860  -17.4390 C.ar  221  TYR221     -0.0009
    183  CD2       52.1610  -12.5460  -17.6860 C.ar  221  TYR221     -0.0009
    184  CE1       50.0800  -11.5570  -16.1060 C.ar  221  TYR221      0.0417
    185  CE2       52.0730  -12.9150  -16.3490 C.ar  221  TYR221      0.0417
    186  CZ        51.0370  -12.4190  -15.5670 C.ar  221  TYR221      0.1957
    187  OH        50.9530  -12.8160  -14.2650 O.3   221  TYR221     -0.2866
    188  N         50.1050   -9.7640  -22.2270 N.am  222  ASP222     -0.1971
    189  CA        50.3280   -9.2200  -23.5740 C.3   222  ASP222      0.1709
    190  C         51.7720   -9.4580  -24.0460 C.2   222  ASP222      0.2293
    191  O         52.7320   -8.9160  -23.4660 O.2   222  ASP222     -0.2864
    192  CB        49.9890   -7.7300  -23.6370 C.3   222  ASP222      0.1436
    193  CG        49.8180   -7.2270  -25.0720 C.2   222  ASP222      0.3671
    194  OD1       50.3750   -7.8580  -26.0100 O.co2 222  ASP222     -0.2456
    195  OD2       49.1200   -6.1970  -25.2640 O.co2 222  ASP222     -0.2456
    196  N         52.9110   -5.1540  -26.5720 N.3   225  PRO225     -0.2116
    197  CA        52.1730   -3.8830  -26.4370 C.3   225  PRO225      0.1372
    198  C         52.8990   -2.6870  -27.0950 C.2   225  PRO225      0.2244
    199  O         52.3200   -1.6030  -27.2370 O.2   225  PRO225     -0.2868
    200  CB        52.0860   -3.7000  -24.9160 C.3   225  PRO225      0.0268
    201  CG        53.2590   -4.4690  -24.3500 C.3   225  PRO225      0.0207
    202  CD        53.8180   -5.3790  -25.4260 C.3   225  PRO225      0.0892
    203  N         54.7040   -6.9350  -21.8310 N.3   227  GLU227     -0.1245
    204  CA        54.2480   -6.4630  -20.4900 C.3   227  GLU227      0.1567
    205  C         53.9440   -7.6010  -19.4880 C.2   227  GLU227      0.2260
    206  O         52.7940   -8.1340  -19.4020 O.2   227  GLU227     -0.2867
    207  CB        53.0550   -5.4900  -20.6060 C.3   227  GLU227      0.0388
    208  CG        52.3840   -5.1260  -19.2780 C.3   227  GLU227      0.1160
    209  CD        53.2020   -4.1630  -18.3940 C.2   227  GLU227      0.3649
    210  OE1       52.6100   -3.1640  -17.9390 O.co2 227  GLU227     -0.2457
    211  OE2       54.4080   -4.4060  -18.1130 O.co2 227  GLU227     -0.2457
@<TRIPOS>BOND
     1   199   198    2
     2   198   197    1
     3   196   197    1
     4   196   202    1
     5   197   200    1
     6   194   193   ar
     7   202   201    1
     8   195   193   ar
     9   193   192    1
    10   200   201    1
    11   190   189    1
    12   190   191    2
    13   192   189    1
    14   189   188    1
    15   179   178    2
    16   112   110   ar
    17   188   178   am
    18   178   177    1
    19   203   204    1
    20   110   111   ar
    21   110   109    1
    22   109   108    1
    23   175   174    2
    24   173   174    1
    25   173   172    1
    26   160   157    1
    27   174   176   am
    28   207   204    1
    29   207   208    1
    30   177   176    1
    31   177   180    1
    32   204   205    1
    33   108   105    1
    34   172   163   am
    35   180   181    1
    36   205   206    2
    37   157   158    1
    38   157   156    1
    39   208   209    1
    40   105   104    1
    41   105   106    1
    42   159   158    2
    43   138   137    2
    44   158   161   am
    45   163   164    2
    46   163   162    1
    47   209   211   ar
    48   209   210   ar
    49   161   162    1
    50   181   183   ar
    51   181   182   ar
    52   107   106    2
    53   162   165    1
    54   137   136    1
    55   183   185   ar
    56   155   154    1
    57   135   136    1
    58   103   102    1
    59   182   184   ar
    60   154   153    1
    61   102    99    1
    62   165   166    1
    63   136   139    1
    64    37    35   ar
    65    21    19   ar
    66    21    22   ar
    67   139   140    1
    68    19    18   ar
    69    22    20   ar
    70   185   186   ar
    71   142   140   ar
    72   142   144   ar
    73    35    36   ar
    74    35    34    1
    75    18    20   ar
    76    18    17    1
    77   184   186   ar
    78    60    62   ar
    79    60    58   ar
    80   101   100    2
    81   153   152    1
    82   140   141   ar
    83    17    14    1
    84    57    58   ar
    85    57    55   ar
    86    34    31    1
    87   166   167   ar
    88   166   168   ar
    89   186   187    1
    90   100    99    1
    91    99    98    1
    92   144   145   ar
    93    62    61   ar
    94    58    56   ar
    95   167   169   ar
    96    98    92   am
    97   152   151    1
    98   168   170   ar
    99    96    95    1
   100   141   143   ar
   101    55    54   ar
   102    14    15    1
   103    14    13    1
   104    33    32    2
   105   145   143   ar
   106   145   146    1
   107    31    32    1
   108    31    30    1
   109    15    16    2
   110    61    59   ar
   111   169   171   ar
   112    56    54   ar
   113    56    59   ar
   114   151   148    1
   115    92    91    1
   116    92    93    2
   117   170   171   ar
   118    95    97    1
   119    95    94    1
   120    54    53    1
   121   119   117    1
   122    30    25   am
   123   148   149    1
   124   148   147    1
   125    91    94    1
   126    91    90    1
   127    86    85    2
   128   149   150    2
   129   113   114    1
   130    25    26    2
   131    25    24    1
   132    28    27    1
   133   117   114    1
   134   117   118    1
   135    27    29    1
   136    27    24    1
   137    53    50    1
   138   114   115    1
   139    90    85   am
   140    85    84    1
   141    88    87    1
   142    41    40    2
   143    24    23    1
   144    70    68   am
   145    87    84    1
   146    87    89    1
   147    50    49    1
   148    50    51    1
   149   133   132    2
   150   134   131    1
   151    38    39    1
   152    66    65    2
   153   132   131    1
   154    67    68    1
   155    67    64    1
   156   115   116    2
   157    68    69    2
   158    84    83    1
   159     7     9   ar
   160     7     6   ar
   161    40    39    1
   162     9    11   ar
   163   131   130    1
   164     5     6    1
   165     5     2    1
   166    83    77   am
   167     6     8   ar
   168    74    73    2
   169    65    64    1
   170    65    71   am
   171    39    42    1
   172    51    52    2
   173    11    12    1
   174    11    10   ar
   175    64    63    1
   176     8    10   ar
   177    77    78    2
   178    77    76    1
   179    73    72    1
   180    73    75   am
   181    43    42    1
   182    43    44    1
   183     4     3    2
   184    72    71    1
   185     1     2    1
   186     2     3    1
   187    76    75    1
   188    76    79    1
   189    45    44    1
   190    45    46    2
   191    48    46    1
   192   121   120    1
   193   121   122    1
   194   121   124    1
   195   123   122    2
   196    46    47    1
   197    79    80    1
   198    81    80    2
   199   124   125    1
   200    80    82   am
   201   125   126   ar
   202   125   127   ar
   203   126   128   ar
   204   127   129   ar
   205   128   129   ar
