@<TRIPOS>MOLECULE
tmp/4j7mA00.pdb
 255 243 0 0 0
SMALL
GASTEIGER

@<TRIPOS>ATOM
      1  N          4.8280   13.1320   16.1350 N.3    69  ARG69      -0.1245
      2  CA         5.6660   12.1860   15.4140 C.3    69  ARG69       0.1563
      3  C          5.8660   12.7220   13.9970 C.2    69  ARG69       0.2260
      4  O          4.9810   13.3760   13.4430 O.2    69  ARG69      -0.2867
      5  CB         4.9870   10.8160   15.3600 C.3    69  ARG69       0.0307
      6  CG         5.7030    9.7970   14.4890 C.3    69  ARG69       0.0489
      7  CD         5.0140    8.4430   14.5510 C.3    69  ARG69       0.2205
      8  NE         3.6290    8.5030   14.0920 N.pl3  69  ARG69      -0.0865
      9  CZ         3.2600    8.6620   12.8230 C.cat  69  ARG69       0.5346
     10  NH1        4.1720    8.7760   11.8660 N.pl3  69  ARG69       0.1354
     11  NH2        1.9720    8.7130   12.5110 N.pl3  69  ARG69       0.1354
     12  N          5.5070   12.5080   10.5300 N.3    71  GLU71      -0.1245
     13  CA         4.7150   11.7330    9.5830 C.3    71  GLU71       0.1567
     14  C          5.4160   11.4280    8.2640 C.2    71  GLU71       0.2260
     15  O          4.9940   10.5310    7.5300 O.2    71  GLU71      -0.2867
     16  CB         3.3910   12.4420    9.3060 C.3    71  GLU71       0.0388
     17  CG         2.4580   12.4670   10.4990 C.3    71  GLU71       0.1160
     18  CD         1.1090   13.0640   10.1620 C.2    71  GLU71       0.3649
     19  OE1        1.0560   14.2700    9.8430 O.co2  71  GLU71      -0.2457
     20  OE2        0.1040   12.3240   10.2070 O.co2  71  GLU71      -0.2457
     21  N         -0.4880   -4.9130   10.1730 N.3   105  TRP105     -0.1227
     22  CA        -0.8900   -4.0600   11.2890 C.3   105  TRP105      0.1737
     23  C         -2.4000   -4.1650   11.4500 C.2   105  TRP105      0.2595
     24  O         -3.1210   -4.2720   10.4590 O.2   105  TRP105     -0.2718
     25  CB        -0.5660   -2.5840   11.0140 C.3   105  TRP105      0.0564
     26  CG         0.8600   -2.1990   11.1990 C.ar  105  TRP105      0.0003
     27  CD1        1.7430   -1.8450   10.2240 C.ar  105  TRP105      0.0946
     28  CD2        1.5640   -2.0890   12.4400 C.ar  105  TRP105      0.0152
     29  NE1        2.9570   -1.5180   10.7790 N.ar  105  TRP105     -0.2442
     30  CE2        2.8750   -1.6610   12.1390 C.ar  105  TRP105      0.0810
     31  CE3        1.2140   -2.3090   13.7780 C.ar  105  TRP105      0.0012
     32  CZ2        3.8430   -1.4500   13.1290 C.ar  105  TRP105      0.0191
     33  CZ3        2.1780   -2.0960   14.7660 C.ar  105  TRP105      0.0001
     34  CH2        3.4750   -1.6720   14.4320 C.ar  105  TRP105      0.0015
     35  N         -2.8760   -4.1150   12.6920 N.am  106  ARG106     -0.1966
     36  CA        -4.3100   -4.1760   12.9630 C.3   106  ARG106      0.1729
     37  C         -5.0540   -3.1240   12.1430 C.2   106  ARG106      0.2616
     38  O         -6.1260   -3.3940   11.6050 O.2   106  ARG106     -0.2715
     39  CB        -4.5710   -3.9470   14.4610 C.3   106  ARG106      0.0348
     40  CG        -6.0470   -3.9860   14.8850 C.3   106  ARG106      0.0492
     41  CD        -6.7270   -2.6380   14.6950 C.3   106  ARG106      0.2205
     42  NE        -5.9890   -1.5770   15.3750 N.pl3 106  ARG106     -0.0865
     43  CZ        -5.9190   -1.4330   16.6930 C.cat 106  ARG106      0.5346
     44  NH1       -6.5560   -2.2810   17.4920 N.pl3 106  ARG106      0.1354
     45  NH2       -5.1840   -0.4580   17.2170 N.pl3 106  ARG106      0.1354
     46  N         -4.4750   -1.9260   12.0540 N.am  107  GLY107     -0.1955
     47  CA        -5.1010   -0.8450   11.3120 C.3   107  GLY107      0.1869
     48  C         -5.3470   -1.1490    9.8440 C.2   107  GLY107      0.2309
     49  O         -6.2910   -0.6220    9.2470 O.2   107  GLY107     -0.2863
     50  N         -8.3900   -3.2500    9.7930 N.3   110  THR110     -0.1203
     51  CA        -9.5620   -2.4050   10.0620 C.3   110  THR110      0.1994
     52  C        -10.0670   -1.7700    8.7660 C.2   110  THR110      0.2617
     53  O        -11.2750   -1.7230    8.5110 O.2   110  THR110     -0.2717
     54  CB        -9.2270   -1.2800   11.0690 C.3   110  THR110      0.1784
     55  OG1       -8.8790   -1.8620   12.3290 O.3   110  THR110     -0.2211
     56  CG2      -10.4260   -0.3390   11.2630 C.3   110  THR110      0.0376
     57  N         -9.1460   -1.2860    7.9410 N.am  111  LYS111     -0.1979
     58  CA        -9.5390   -0.6740    6.6790 C.3   111  LYS111      0.1596
     59  C        -10.1980   -1.6860    5.7460 C.2   111  LYS111      0.2287
     60  O        -11.0570   -1.3310    4.9400 O.2   111  LYS111     -0.2864
     61  CB        -8.3320   -0.0190    6.0110 C.3   111  LYS111      0.0298
     62  CG        -7.8600    1.2120    6.7710 C.3   111  LYS111      0.0038
     63  CD        -6.9550    2.0820    5.9260 C.3   111  LYS111      0.0206
     64  CE        -6.6980    3.4070    6.6190 C.3   111  LYS111      0.1093
     65  NZ        -5.9310    4.3490    5.7570 N.3   111  LYS111     -0.1314
     66  N        -12.8050    7.5810    1.7580 N.3   121  GLU121     -0.1245
     67  CA       -11.3740    7.3410    1.6060 C.3   121  GLU121      0.1567
     68  C        -10.9840    5.9490    1.1340 C.2   121  GLU121      0.2260
     69  O        -11.3820    4.9440    1.7210 O.2   121  GLU121     -0.2867
     70  CB       -10.6570    7.6370    2.9240 C.3   121  GLU121      0.0388
     71  CG       -10.9730    9.0100    3.4950 C.3   121  GLU121      0.1160
     72  CD       -10.0140    9.4160    4.5920 C.2   121  GLU121      0.3649
     73  OE1       -8.8190    9.6170    4.2870 O.co2 121  GLU121     -0.2457
     74  OE2      -10.4510    9.5320    5.7570 O.co2 121  GLU121     -0.2457
     75  N         -8.0120   21.0480   12.0280 N.3   155  LEU155     -0.1245
     76  CA        -7.8320   19.6070   12.0610 C.3   155  LEU155      0.1561
     77  C         -6.5780   19.2460   12.8420 C.2   155  LEU155      0.2260
     78  O         -6.5640   18.2670   13.5870 O.2   155  LEU155     -0.2867
     79  CB        -7.7440   19.0550   10.6360 C.3   155  LEU155      0.0270
     80  CG        -7.6880   17.5330   10.4920 C.3   155  LEU155      0.0019
     81  CD1       -8.9100   16.9080   11.1530 C.3   155  LEU155      0.0001
     82  CD2       -7.6280   17.1620    9.0130 C.3   155  LEU155      0.0001
     83  N         -7.4840   19.4210   16.3810 N.3   158  LEU158     -0.1231
     84  CA        -8.3640   18.3200   16.7650 C.3   158  LEU158      0.1693
     85  C         -7.5500   17.0440   16.9680 C.2   158  LEU158      0.2591
     86  O         -7.8730   16.2200   17.8220 O.2   158  LEU158     -0.2718
     87  CB        -9.4350   18.0830   15.6970 C.3   158  LEU158      0.0284
     88  CG       -10.5880   19.0870   15.6630 C.3   158  LEU158      0.0019
     89  CD1      -11.4470   18.8380   14.4290 C.3   158  LEU158      0.0001
     90  CD2      -11.4160   18.9610   16.9390 C.3   158  LEU158      0.0001
     91  N         -6.4930   16.8820   16.1780 N.am  159  MET159     -0.1979
     92  CA        -5.6410   15.7050   16.2970 C.3   159  MET159      0.1605
     93  C         -4.9160   15.7300   17.6410 C.2   159  MET159      0.2287
     94  O         -4.7670   14.7050   18.3030 O.2   159  MET159     -0.2864
     95  CB        -4.6430   15.6700   15.1380 C.3   159  MET159      0.0413
     96  CG        -5.2980   15.3620   13.8020 C.3   159  MET159      0.0598
     97  SD        -4.1620   15.5020   12.4010 S.3   159  MET159     -0.1393
     98  CE        -2.8090   14.4580   12.9540 C.3   159  MET159      0.0692
     99  N         -5.9790   17.2020   20.3410 N.3   161  MET161     -0.1230
    100  CA        -7.0140   16.9750   21.3380 C.3   161  MET161      0.1702
    101  C         -7.2850   15.5020   21.6190 C.2   161  MET161      0.2593
    102  O         -7.5030   15.1150   22.7720 O.2   161  MET161     -0.2718
    103  CB        -8.2880   17.7010   20.9040 C.3   161  MET161      0.0401
    104  CG        -8.1050   19.2160   20.9140 C.3   161  MET161      0.0596
    105  SD        -9.4100   20.1520   20.0900 S.3   161  MET161     -0.1393
    106  CE       -10.7490   19.7830   21.1020 C.3   161  MET161      0.0692
    107  N         -7.2640   14.6790   20.5760 N.am  162  GLY162     -0.1942
    108  CA        -7.4970   13.2580   20.7760 C.3   162  GLY162      0.2014
    109  C         -6.4140   12.6500   21.6550 C.2   162  GLY162      0.2638
    110  O         -6.6950   11.8490   22.5500 O.2   162  GLY162     -0.2714
    111  N         -5.1670   13.0290   21.4040 N.am  163  TYR163     -0.1973
    112  CA        -4.0530   12.5130   22.1930 C.3   163  TYR163      0.1639
    113  C         -4.0970   13.0920   23.6050 C.2   163  TYR163      0.2290
    114  O         -3.7800   12.4080   24.5750 O.2   163  TYR163     -0.2864
    115  CB        -2.7150   12.8800   21.5470 C.3   163  TYR163      0.0560
    116  CG        -2.4690   12.2540   20.1920 C.ar  163  TYR163     -0.0198
    117  CD1       -2.2860   10.8770   20.0530 C.ar  163  TYR163     -0.0009
    118  CD2       -2.4000   13.0450   19.0470 C.ar  163  TYR163     -0.0009
    119  CE1       -2.0330   10.3040   18.8000 C.ar  163  TYR163      0.0417
    120  CE2       -2.1510   12.4850   17.7920 C.ar  163  TYR163      0.0417
    121  CZ        -1.9690   11.1190   17.6770 C.ar  163  TYR163      0.1957
    122  OH        -1.7260   10.5800   16.4330 O.3   163  TYR163     -0.2866
    123  N         -6.2270   11.1820   26.1190 N.3   166  GLU166     -0.1245
    124  CA        -5.5780   10.0070   26.6990 C.3   166  GLU166      0.1567
    125  C         -4.8190   10.3820   27.9690 C.2   166  GLU166      0.2260
    126  O         -4.8050    9.6320   28.9460 O.2   166  GLU166     -0.2867
    127  CB        -4.6000    9.3960   25.6920 C.3   166  GLU166      0.0388
    128  CG        -5.2610    8.8190   24.4470 C.3   166  GLU166      0.1160
    129  CD        -4.2530    8.4670   23.3610 C.2   166  GLU166      0.3649
    130  OE1       -3.0700    8.2490   23.6920 O.co2 166  GLU166     -0.2457
    131  OE2       -4.6470    8.4010   22.1780 O.co2 166  GLU166     -0.2457
    132  N          3.6070   12.1730   20.5250 N.3   186  THR186     -0.1218
    133  CA         2.9980   11.0700   19.7970 C.3   186  THR186      0.1862
    134  C          3.9550   10.0190   19.2550 C.2   186  THR186      0.2287
    135  O          3.5520    9.1440   18.4910 O.2   186  THR186     -0.2866
    136  CB         2.0930   11.5880   18.6610 C.3   186  THR186      0.1770
    137  OG1        2.8450   12.4260   17.7810 O.3   186  THR186     -0.2211
    138  CG2        0.9330   12.3840   19.2470 C.3   186  THR186      0.0375
    139  N         -1.6920   -0.5420   18.3570 N.3   208  GLU208     -0.1245
    140  CA        -1.4640    0.2750   19.5340 C.3   208  GLU208      0.1567
    141  C         -2.6420    0.0990   20.4770 C.2   208  GLU208      0.2260
    142  O         -3.7920   -0.0240   20.0420 O.2   208  GLU208     -0.2867
    143  CB        -1.3100    1.7500   19.1490 C.3   208  GLU208      0.0388
    144  CG        -1.1010    2.6740   20.3370 C.3   208  GLU208      0.1160
    145  CD        -0.5990    4.0530   19.9420 C.2   208  GLU208      0.3649
    146  OE1       -0.4510    4.9080   20.8420 O.co2 208  GLU208     -0.2457
    147  OE2       -0.3450    4.2820   18.7400 O.co2 208  GLU208     -0.2457
    148  N         -4.2940    1.7610   24.0860 N.3   210  ASP210     -0.1239
    149  CA        -4.2580    2.9390   24.9470 C.3   210  ASP210      0.1674
    150  C         -3.9260    2.7020   26.4030 C.2   210  ASP210      0.2266
    151  O         -3.1470    3.4480   26.9960 O.2   210  ASP210     -0.2867
    152  CB        -5.5840    3.6840   24.8900 C.3   210  ASP210      0.1410
    153  CG        -5.8300    4.3210   23.5520 C.2   210  ASP210      0.3668
    154  OD1       -4.8660    4.8330   22.9530 O.co2 210  ASP210     -0.2456
    155  OD2       -6.9910    4.3180   23.1110 O.co2 210  ASP210     -0.2456
    156  N         -9.9130    0.9790   24.9900 N.3   227  GLU227     -0.1231
    157  CA        -9.6360    1.8700   23.8670 C.3   227  GLU227      0.1699
    158  C        -10.2780    3.2200   24.1900 C.2   227  GLU227      0.2592
    159  O        -11.4390    3.2730   24.5740 O.2   227  GLU227     -0.2718
    160  CB       -10.2460    1.2820   22.5920 C.3   227  GLU227      0.0402
    161  CG       -10.1270    2.1480   21.3490 C.3   227  GLU227      0.1161
    162  CD        -8.6950    2.3390   20.9010 C.2   227  GLU227      0.3649
    163  OE1       -7.8820    1.3940   20.9940 O.co2 227  GLU227     -0.2457
    164  OE2       -8.3860    3.4410   20.4350 O.co2 227  GLU227     -0.2457
    165  N         -9.5230    4.3040   24.0420 N.am  228  LEU228     -0.1966
    166  CA       -10.0460    5.6420   24.3310 C.3   228  LEU228      0.1728
    167  C        -10.3980    6.3830   23.0410 C.2   228  LEU228      0.2616
    168  O         -9.7370    6.2130   22.0300 O.2   228  LEU228     -0.2715
    169  CB        -9.0080    6.4440   25.1260 C.3   228  LEU228      0.0311
    170  CG        -8.6220    5.8630   26.4940 C.3   228  LEU228      0.0022
    171  CD1       -7.5360    6.7210   27.1390 C.3   228  LEU228      0.0001
    172  CD2       -9.8500    5.8060   27.3890 C.3   228  LEU228      0.0001
    173  N        -11.4420    7.2030   23.0770 N.am  229  LYS229     -0.1963
    174  CA       -11.8630    7.9550   21.8960 C.3   229  LYS229      0.1728
    175  C        -12.5150    9.2620   22.3160 C.2   229  LYS229      0.2617
    176  O        -12.9900    9.3820   23.4410 O.2   229  LYS229     -0.2715
    177  CB       -12.9170    7.1660   21.1120 C.3   229  LYS229      0.0311
    178  CG       -12.4580    5.8390   20.5500 C.3   229  LYS229      0.0038
    179  CD       -11.5500    6.0570   19.3560 C.3   229  LYS229      0.0206
    180  CE       -11.2220    4.7410   18.6760 C.3   229  LYS229      0.1093
    181  NZ       -10.2780    4.9490   17.5540 N.3   229  LYS229     -0.1314
    182  N        -12.5220   10.2470   21.4210 N.am  230  THR230     -0.1937
    183  CA       -13.2430   11.4860   21.7070 C.3   230  THR230      0.2028
    184  C        -14.1920   11.6420   20.5290 C.2   230  THR230      0.2643
    185  O        -13.9650   11.0680   19.4580 O.2   230  THR230     -0.2714
    186  CB       -12.3510   12.7510   21.7890 C.3   230  THR230      0.1808
    187  OG1      -11.7570   13.0140   20.5130 O.3   230  THR230     -0.2208
    188  CG2      -11.2810   12.5860   22.8510 C.3   230  THR230      0.0379
    189  N        -15.2650   12.3910   20.7300 N.am  231  SER231     -0.1935
    190  CA       -16.2350   12.6110   19.6660 C.3   231  SER231      0.2055
    191  C        -17.0610   13.8240   20.0570 C.2   231  SER231      0.2642
    192  O        -17.1440   14.1660   21.2380 O.2   231  SER231     -0.2714
    193  CB       -17.1400   11.3840   19.5080 C.3   231  SER231      0.2130
    194  OG       -17.8400   11.4220   18.2750 O.3   231  SER231     -0.2179
    195  N        -17.6600   14.4850   19.0740 N.am  232  LYS232     -0.1977
    196  CA       -18.4690   15.6590   19.3700 C.3   232  LYS232      0.1596
    197  C        -19.6590   15.2960   20.2410 C.2   232  LYS232      0.2287
    198  O        -20.2420   14.2170   20.1100 O.2   232  LYS232     -0.2864
    199  CB       -18.9700   16.3140   18.0810 C.3   232  LYS232      0.0298
    200  CG       -17.8830   16.9700   17.2540 C.3   232  LYS232      0.0038
    201  CD       -18.4650   17.6340   16.0150 C.3   232  LYS232      0.0206
    202  CE       -17.3730   18.2790   15.1740 C.3   232  LYS232      0.1093
    203  NZ       -17.9240   18.9550   13.9640 N.3   232  LYS232     -0.1314
    204  N        -19.3590    6.3220   12.7370 N.3   247  LYS247     -0.1245
    205  CA       -18.2940    6.2410   13.7220 C.3   247  LYS247      0.1561
    206  C        -18.2110    4.8990   14.4410 C.2   247  LYS247      0.2260
    207  O        -17.1320    4.3110   14.5100 O.2   247  LYS247     -0.2867
    208  CB       -18.4190    7.3780   14.7390 C.3   247  LYS247      0.0271
    209  CG       -17.2340    7.4620   15.6940 C.3   247  LYS247      0.0035
    210  CD       -17.0170    8.8840   16.1850 C.3   247  LYS247      0.0206
    211  CE       -16.5880    9.7910   15.0420 C.3   247  LYS247      0.1093
    212  NZ       -16.4460   11.2060   15.4860 N.3   247  LYS247     -0.1314
    213  N        -16.3570    2.1360   12.6280 N.3   250  LYS250     -0.1231
    214  CA       -14.9040    2.2180   12.7240 C.3   250  LYS250      0.1693
    215  C        -14.4000    1.8180   14.1050 C.2   250  LYS250      0.2592
    216  O        -13.4010    1.1160   14.2170 O.2   250  LYS250     -0.2718
    217  CB       -14.4310    3.6300   12.3580 C.3   250  LYS250      0.0285
    218  CG       -14.6440    3.9510   10.8810 C.3   250  LYS250      0.0035
    219  CD       -14.0380    5.2830   10.4730 C.3   250  LYS250      0.0206
    220  CE       -14.1950    5.5020    8.9720 C.3   250  LYS250      0.1093
    221  NZ       -13.5450    6.7590    8.5020 N.3   250  LYS250     -0.1314
    222  N        -15.0910    2.2600   15.1530 N.am  251  TRP251     -0.1976
    223  CA       -14.6900    1.9130   16.5110 C.3   251  TRP251      0.1640
    224  C        -14.8010    0.4030   16.7110 C.2   251  TRP251      0.2290
    225  O        -13.9140   -0.2230   17.2960 O.2   251  TRP251     -0.2864
    226  CB       -15.5740    2.6250   17.5310 C.3   251  TRP251      0.0576
    227  CG       -15.3210    4.1030   17.6460 C.ar  251  TRP251      0.0006
    228  CD1      -14.5420    4.8770   16.8280 C.ar  251  TRP251      0.0946
    229  CD2      -15.8780    4.9890   18.6230 C.ar  251  TRP251      0.0152
    230  NE1      -14.5840    6.1890   17.2390 N.ar  251  TRP251     -0.2442
    231  CE2      -15.3980    6.2860   18.3350 C.ar  251  TRP251      0.0810
    232  CE3      -16.7390    4.8120   19.7160 C.ar  251  TRP251      0.0012
    233  CZ2      -15.7530    7.4050   19.1010 C.ar  251  TRP251      0.0191
    234  CZ3      -17.0920    5.9220   20.4770 C.ar  251  TRP251      0.0001
    235  CH2      -16.5980    7.2030   20.1640 C.ar  251  TRP251      0.0015
    236  N        -12.0070   -1.6140   14.7060 N.3   254  GLN254     -0.1245
    237  CA       -10.7070   -1.4480   15.3460 C.3   254  GLN254      0.1566
    238  C        -10.4940   -2.2710   16.6110 C.2   254  GLN254      0.2260
    239  O         -9.4420   -2.8970   16.7780 O.2   254  GLN254     -0.2867
    240  CB       -10.4790    0.0230   15.6650 C.3   254  GLN254      0.0367
    241  CG        -9.1450    0.3020   16.3400 C.3   254  GLN254      0.0905
    242  CD        -8.9990    1.7570   16.7040 C.2   254  GLN254      0.2608
    243  OE1       -9.8370    2.3130   17.4160 O.2   254  GLN254     -0.2717
    244  NE2       -7.9330    2.3890   16.2170 N.am  254  GLN254     -0.0878
    245  N        -16.7390   15.8760   23.5610 N.3   268  ARG268     -0.1245
    246  CA       -16.2750   17.2480   23.7170 C.3   268  ARG268      0.1563
    247  C        -17.2670   18.2860   23.2290 C.2   268  ARG268      0.2260
    248  O        -18.0100   18.0510   22.2740 O.2   268  ARG268     -0.2867
    249  CB       -14.9530   17.4360   22.9780 C.3   268  ARG268      0.0307
    250  CG       -15.0360   17.1420   21.5000 C.3   268  ARG268      0.0489
    251  CD       -13.6920   17.3500   20.8150 C.3   268  ARG268      0.2205
    252  NE       -13.7350   16.9160   19.4240 N.pl3 268  ARG268     -0.0865
    253  CZ       -14.4970   17.4650   18.4830 C.cat 268  ARG268      0.5346
    254  NH1      -15.2920   18.4880   18.7720 N.pl3 268  ARG268      0.1354
    255  NH2      -14.4750   16.9810   17.2500 N.pl3 268  ARG268      0.1354
@<TRIPOS>BOND
     1    68    67    1
     2    68    69    2
     3    67    66    1
     4    67    70    1
     5    70    71    1
     6    71    72    1
     7    73    72   ar
     8    72    74   ar
     9    60    59    2
    10    59    58    1
    11    65    64    1
    12    63    64    1
    13    63    62    1
    14    61    58    1
    15    61    62    1
    16    58    57    1
    17    15    14    2
    18    57    52   am
    19    14    13    1
    20   221   220    1
    21    53    52    2
    22    52    51    1
    23   220   219    1
    24    82    80    1
    25    49    48    2
    26    16    13    1
    27    16    17    1
    28    13    12    1
    29    50    51    1
    30    19    18   ar
    31    48    47    1
    32    51    54    1
    33    18    20   ar
    34    18    17    1
    35    21    22    1
    36    27    29   ar
    37    27    26   ar
    38    24    23    2
    39   219   218    1
    40    80    79    1
    41    80    81    1
    42    79    76    1
    43    29    30   ar
    44   218   217    1
    45    25    26    1
    46    25    22    1
    47    54    56    1
    48    54    55    1
    49    26    28   ar
    50    22    23    1
    51    47    46    1
    52    23    35   am
    53    38    37    2
    54    10     9    1
    55    75    76    1
    56    46    37   am
    57    76    77    1
    58    30    28   ar
    59    30    32   ar
    60    37    36    1
    61   217   214    1
    62    97    98    1
    63    97    96    1
    64    28    31   ar
    65    11     9    1
    66   213   214    1
    67    35    36    1
    68   214   215    1
    69   204   205    1
    70     9     8    2
    71    77    78    2
    72    36    39    1
    73    32    34   ar
    74     4     3    2
    75   205   206    1
    76   205   208    1
    77    31    33   ar
    78    96    95    1
    79   203   202    1
    80     3     2    1
    81     8     7    1
    82   215   216    2
    83   215   222   am
    84    89    88    1
    85    34    33   ar
    86   206   207    2
    87    39    40    1
    88     6     7    1
    89     6     5    1
    90    41    40    1
    91    41    42    1
    92   236   237    1
    93   208   209    1
    94   211   212    1
    95   211   210    1
    96    95    92    1
    97   222   223    1
    98   202   201    1
    99   237   240    1
   100   237   238    1
   101     5     2    1
   102    42    43    2
   103     2     1    1
   104    88    87    1
   105    88    90    1
   106   240   241    1
   107   209   210    1
   108    87    84    1
   109   201   200    1
   110    91    92    1
   111    91    85   am
   112   244   242   am
   113    92    93    1
   114   241   242    1
   115    83    84    1
   116   122   121    1
   117   223   224    1
   118   223   226    1
   119   238   239    2
   120    43    45    1
   121    43    44    1
   122   242   243    2
   123   224   225    2
   124    84    85    1
   125   228   230   ar
   126   228   227   ar
   127    85    86    2
   128   230   231   ar
   129   255   253    1
   130   200   199    1
   131   226   227    1
   132   181   180    1
   133    93    94    2
   134   227   229   ar
   135   121   120   ar
   136   121   119   ar
   137   137   136    1
   138   120   118   ar
   139   199   196    1
   140   194   193    1
   141   231   229   ar
   142   231   233   ar
   143   139   140    1
   144   253   254    1
   145   253   252    2
   146   135   134    2
   147   229   232   ar
   148   136   138    1
   149   136   133    1
   150   180   179    1
   151   147   145   ar
   152   119   117   ar
   153   118   116   ar
   154   195   196    1
   155   195   191   am
   156   233   235   ar
   157   143   140    1
   158   143   144    1
   159   134   133    1
   160   179   178    1
   161   196   197    1
   162   252   251    1
   163   185   184    2
   164   193   190    1
   165   140   141    1
   166   190   191    1
   167   190   189    1
   168   232   234   ar
   169   133   132    1
   170   145   144    1
   171   145   146   ar
   172   142   141    2
   173   117   116   ar
   174   191   192    2
   175   105   104    1
   176   105   106    1
   177   198   197    2
   178   235   234   ar
   179   116   115    1
   180    99   100    1
   181   164   162   ar
   182   187   186    1
   183   184   189   am
   184   184   183    1
   185   178   177    1
   186   107   108    1
   187   107   101   am
   188   108   109    1
   189   251   250    1
   190   162   163   ar
   191   162   161    1
   192   103   104    1
   193   103   100    1
   194   177   174    1
   195   100   101    1
   196   161   160    1
   197   111   109   am
   198   111   112    1
   199   182   183    1
   200   182   175   am
   201   250   249    1
   202   115   112    1
   203   101   102    2
   204   109   110    2
   205   183   186    1
   206   186   188    1
   207   174   175    1
   208   174   173    1
   209   168   167    2
   210   131   129   ar
   211   112   113    1
   212   248   247    2
   213   175   176    2
   214   160   157    1
   215   154   153   ar
   216   249   246    1
   217   167   173   am
   218   167   166    1
   219   155   153   ar
   220   247   246    1
   221   129   130   ar
   222   129   128    1
   223   153   152    1
   224   245   246    1
   225   113   114    2
   226   157   158    1
   227   157   156    1
   228   165   158   am
   229   165   166    1
   230   148   149    1
   231   158   159    2
   232   166   169    1
   233   128   127    1
   234   152   149    1
   235   149   150    1
   236   169   170    1
   237   127   124    1
   238   123   124    1
   239   150   151    2
   240   170   171    1
   241   170   172    1
   242   124   125    1
   243   125   126    2
