@<TRIPOS>MOLECULE
tmp/4j7nA00.pdb
 251 239 0 0 0
SMALL
GASTEIGER

@<TRIPOS>ATOM
      1  N          4.8780   -3.9720   21.6810 N.3    26  PHE26      -0.1241
      2  CA         6.0670   -3.1400   21.6090 C.3    26  PHE26       0.1605
      3  C          5.6760   -1.6910   21.8320 C.2    26  PHE26       0.2264
      4  O          4.4920   -1.3360   21.7710 O.2    26  PHE26      -0.2867
      5  CB         6.8660   -3.3380   20.3030 C.3    26  PHE26       0.0534
      6  CG         6.1270   -2.9150   19.0650 C.ar   26  PHE26      -0.0203
      7  CD1        6.1490   -1.5870   18.6480 C.ar   26  PHE26      -0.0042
      8  CD2        5.4050   -3.8600   18.3210 C.ar   26  PHE26      -0.0042
      9  CE1        5.4520   -1.1890   17.4780 C.ar   26  PHE26      -0.0003
     10  CE2        4.7140   -3.4620   17.1620 C.ar   26  PHE26      -0.0003
     11  CZ         4.7420   -2.1430   16.7520 C.ar   26  PHE26      -0.0000
     12  N          6.9130    2.6060   21.2410 N.3    28  LEU28      -0.1245
     13  CA         7.7240    3.6060   20.5340 C.3    28  LEU28       0.1561
     14  C          7.8140    4.7610   21.5450 C.2    28  LEU28       0.2260
     15  O          6.7900    5.1620   22.1180 O.2    28  LEU28      -0.2867
     16  CB         7.0440    4.0880   19.2440 C.3    28  LEU28       0.0270
     17  CG         6.7690    2.9460   18.2560 C.3    28  LEU28       0.0019
     18  CD1        5.9920    3.4780   17.0490 C.3    28  LEU28       0.0001
     19  CD2        8.0890    2.2990   17.8350 C.3    28  LEU28       0.0001
     20  N         10.5480    8.2710   18.9240 N.3    32  ARG32      -0.1245
     21  CA        10.1080    7.2590   17.9690 C.3    32  ARG32       0.1563
     22  C         11.0150    6.0310   17.9130 C.2    32  ARG32       0.2260
     23  O         11.0500    5.3300   16.9020 O.2    32  ARG32      -0.2867
     24  CB         9.9530    7.8800   16.5700 C.3    32  ARG32       0.0307
     25  CG         8.9480    7.1410   15.6470 C.3    32  ARG32       0.0489
     26  CD         7.5000    7.1160   16.1850 C.3    32  ARG32       0.2205
     27  NE         6.5740    6.5600   15.1880 N.pl3  32  ARG32      -0.0865
     28  CZ         5.2740    6.3720   15.3930 C.cat  32  ARG32       0.5346
     29  NH1        4.7060    6.6760   16.5660 N.pl3  32  ARG32       0.1354
     30  NH2        4.5280    5.8930   14.4070 N.pl3  32  ARG32       0.1354
     31  N          4.4080   13.5940   15.5800 N.3    69  ARG69      -0.1231
     32  CA         5.3620   12.7100   14.9180 C.3    69  ARG69       0.1694
     33  C          5.5160   13.2510   13.5010 C.2    69  ARG69       0.2592
     34  O          4.6110   13.9040   12.9730 O.2    69  ARG69      -0.2718
     35  CB         4.8650   11.2620   14.8860 C.3    69  ARG69       0.0321
     36  CG         3.6050   11.0420   14.1080 C.3    69  ARG69       0.0489
     37  CD         3.3540    9.5420   13.9030 C.3    69  ARG69       0.2205
     38  NE         2.0960    9.2970   13.1980 N.pl3  69  ARG69      -0.0865
     39  CZ         0.8910    9.3900   13.7570 C.cat  69  ARG69       0.5346
     40  NH1        0.7720    9.7220   15.0370 N.pl3  69  ARG69       0.1354
     41  NH2       -0.1970    9.1500   13.0320 N.pl3  69  ARG69       0.1354
     42  N          6.6720   12.9920   12.8950 N.am   70  ASP70      -0.1960
     43  CA         6.9870   13.4790   11.5440 C.3    70  ASP70       0.1840
     44  C          6.3420   12.5760   10.4940 C.2    70  ASP70       0.2621
     45  O          6.7870   11.4540   10.3040 O.2    70  ASP70      -0.2715
     46  CB         8.5120   13.4870   11.3690 C.3    70  ASP70       0.1450
     47  CG         8.9540   14.1370   10.0720 C.2    70  ASP70       0.3671
     48  OD1        8.1080   14.3280    9.1710 O.co2  70  ASP70      -0.2456
     49  OD2       10.1600   14.4510    9.9560 O.co2  70  ASP70      -0.2456
     50  N          5.3150   13.0620    9.8020 N.am   71  GLU71      -0.1977
     51  CA         4.6190   12.2300    8.8270 C.3    71  GLU71       0.1602
     52  C          5.3560   12.0300    7.5100 C.2    71  GLU71       0.2287
     53  O          4.9510   11.1980    6.6980 O.2    71  GLU71      -0.2864
     54  CB         3.2170   12.7850    8.5630 C.3    71  GLU71       0.0415
     55  CG         2.3460   12.8650    9.8090 C.3    71  GLU71       0.1163
     56  CD         2.0810   11.5020   10.4380 C.2    71  GLU71       0.3649
     57  OE1        1.5880   11.4740   11.5880 O.co2  71  GLU71      -0.2457
     58  OE2        2.3580   10.4670    9.7870 O.co2  71  GLU71      -0.2457
     59  N          8.2290   10.7990    7.3060 N.3    73  VAL73      -0.1245
     60  CA         9.0420    9.6030    7.4960 C.3    73  VAL73       0.1561
     61  C          8.1310    8.4190    7.1640 C.2    73  VAL73       0.2260
     62  O          7.1360    8.2260    7.8440 O.2    73  VAL73      -0.2867
     63  CB         9.4910    9.4810    8.9770 C.3    73  VAL73       0.0252
     64  CG1       10.2160    8.1710    9.2110 C.3    73  VAL73       0.0019
     65  CG2       10.3840   10.6610    9.3550 C.3    73  VAL73       0.0019
     66  N          7.3330    4.8400    7.5280 N.3    75  GLU75      -0.1245
     67  CA         7.7150    3.6930    8.3320 C.3    75  GLU75       0.1567
     68  C          7.1960    2.3640    7.8100 C.2    75  GLU75       0.2260
     69  O          7.7600    1.3330    8.1380 O.2    75  GLU75      -0.2867
     70  CB         7.2160    3.8720    9.7660 C.3    75  GLU75       0.0388
     71  CG         7.7220    5.1810   10.4040 C.3    75  GLU75       0.1160
     72  CD         7.1430    5.4450   11.7910 C.2    75  GLU75       0.3649
     73  OE1        5.9320    5.2170   11.9870 O.co2  75  GLU75      -0.2457
     74  OE2        7.9140    5.9030   12.6710 O.co2  75  GLU75      -0.2457
     75  N          8.3050   -1.3690   12.0440 N.3    79  HIS79      -0.1241
     76  CA         8.2960   -1.7250   13.4630 C.3    79  HIS79       0.1621
     77  C          7.7160   -3.1120   13.7160 C.2    79  HIS79       0.2264
     78  O          8.2010   -3.8500   14.5890 O.2    79  HIS79      -0.2867
     79  CB         7.5320   -0.6900   14.2870 C.3    79  HIS79       0.0745
     80  CG         8.1330    0.6790   14.2390 C.ar   79  HIS79       0.0817
     81  ND1        9.4850    0.9230   14.3560 N.ar   79  HIS79      -0.2268
     82  CD2        7.5400    1.8870   14.1000 C.ar   79  HIS79       0.1154
     83  CE1        9.7000    2.2320   14.2850 C.ar   79  HIS79       0.1986
     84  NE2        8.5350    2.8340   14.1280 N.ar   79  HIS79      -0.2212
     85  N         -0.8050   -4.1340    9.3990 N.3   105  TRP105     -0.1227
     86  CA        -1.2320   -3.3150   10.5440 C.3   105  TRP105      0.1737
     87  C         -2.7440   -3.4090   10.6960 C.2   105  TRP105      0.2595
     88  O         -3.4730   -3.5500    9.6890 O.2   105  TRP105     -0.2718
     89  CB        -0.8870   -1.8310   10.3260 C.3   105  TRP105      0.0564
     90  CG         0.5630   -1.5080   10.4010 C.ar  105  TRP105      0.0003
     91  CD1        1.3100   -0.9470    9.4160 C.ar  105  TRP105      0.0946
     92  CD2        1.4280   -1.6310   11.5460 C.ar  105  TRP105      0.0152
     93  NE1        2.5880   -0.7080    9.8670 N.ar  105  TRP105     -0.2442
     94  CE2        2.6820   -1.1100   11.1710 C.ar  105  TRP105      0.0810
     95  CE3        1.2650   -2.1240   12.8480 C.ar  105  TRP105      0.0012
     96  CZ2        3.7820   -1.0520   12.0510 C.ar  105  TRP105      0.0191
     97  CZ3        2.3630   -2.0720   13.7370 C.ar  105  TRP105      0.0001
     98  CH2        3.5980   -1.5360   13.3330 C.ar  105  TRP105      0.0015
     99  N         -3.2200   -3.3150   11.9470 N.am  106  ARG106     -0.1966
    100  CA        -4.6590   -3.3410   12.2110 C.3   106  ARG106      0.1729
    101  C         -5.3620   -2.2860   11.3620 C.2   106  ARG106      0.2617
    102  O         -6.4160   -2.5700   10.7960 O.2   106  ARG106     -0.2715
    103  CB        -4.8900   -3.0520   13.7040 C.3   106  ARG106      0.0348
    104  CG        -6.3620   -3.0700   14.1550 C.3   106  ARG106      0.0492
    105  CD        -7.0400   -1.6900   13.9950 C.3   106  ARG106      0.2205
    106  NE        -6.3000   -0.6380   14.6990 N.pl3 106  ARG106     -0.0865
    107  CZ        -6.3110   -0.4490   16.0250 C.cat 106  ARG106      0.5346
    108  NH1       -7.0730   -1.2070   16.8250 N.pl3 106  ARG106      0.1354
    109  NH2       -5.4690    0.4290   16.5710 N.pl3 106  ARG106      0.1354
    110  N         -4.8040   -1.0740   11.2760 N.am  107  GLY107     -0.1940
    111  CA        -5.4470   -0.0110   10.4990 C.3   107  GLY107      0.2014
    112  C         -5.6800   -0.3530    9.0360 C.2   107  GLY107      0.2638
    113  O         -6.6560    0.1270    8.4190 O.2   107  GLY107     -0.2714
    114  N         -4.7950   -1.1520    8.4510 N.am  108  HIS108     -0.1973
    115  CA        -4.9650   -1.5420    7.0480 C.3   108  HIS108      0.1656
    116  C         -6.1840   -2.4650    6.9530 C.2   108  HIS108      0.2291
    117  O         -6.9760   -2.3750    5.9980 O.2   108  HIS108     -0.2864
    118  CB        -3.7310   -2.2840    6.5690 C.3   108  HIS108      0.0771
    119  CG        -2.4760   -1.4660    6.5560 C.ar  108  HIS108      0.0820
    120  ND1       -2.3930   -0.1710    7.0260 N.ar  108  HIS108     -0.2267
    121  CD2       -1.2330   -1.7890    6.1190 C.ar  108  HIS108      0.1154
    122  CE1       -1.1440    0.2630    6.8840 C.ar  108  HIS108      0.1986
    123  NE2       -0.4230   -0.7010    6.3410 N.ar  108  HIS108     -0.2212
    124  N         -8.6750   -2.4390    8.9980 N.3   110  THR110     -0.1203
    125  CA        -9.8690   -1.5940    9.2430 C.3   110  THR110      0.1994
    126  C        -10.3420   -0.9490    7.9360 C.2   110  THR110      0.2617
    127  O        -11.5420   -0.9370    7.6450 O.2   110  THR110     -0.2717
    128  CB        -9.5620   -0.4940   10.2530 C.3   110  THR110      0.1784
    129  OG1       -9.1820   -1.1060   11.4870 O.3   110  THR110     -0.2211
    130  CG2      -10.7980    0.4160   10.4720 C.3   110  THR110      0.0376
    131  N         -9.4120   -0.4440    7.1290 N.am  111  LYS111     -0.1979
    132  CA        -9.7980    0.1660    5.8530 C.3   111  LYS111      0.1596
    133  C        -10.4750   -0.8560    4.9390 C.2   111  LYS111      0.2287
    134  O        -11.3630   -0.5010    4.1670 O.2   111  LYS111     -0.2864
    135  CB        -8.5830    0.7870    5.1670 C.3   111  LYS111      0.0298
    136  CG        -8.0890    2.0350    5.9060 C.3   111  LYS111      0.0038
    137  CD        -7.1840    2.8640    5.0090 C.3   111  LYS111      0.0206
    138  CE        -6.7440    4.0880    5.7700 C.3   111  LYS111      0.1093
    139  NZ        -5.9920    5.0390    4.9130 N.3   111  LYS111     -0.1314
    140  N        -14.1500   -1.3610    6.1650 N.3   114  THR114     -0.1218
    141  CA       -15.1020   -0.2910    5.8820 C.3   114  THR114      0.1862
    142  C        -15.2600    0.0360    4.4050 C.2   114  THR114      0.2287
    143  O        -16.0970    0.8780    4.0580 O.2   114  THR114     -0.2866
    144  CB       -14.7210    0.9950    6.6830 C.3   114  THR114      0.1770
    145  OG1      -13.4340    1.4540    6.2950 O.3   114  THR114     -0.2211
    146  CG2      -14.6690    0.7030    8.1800 C.3   114  THR114      0.0375
    147  N        -12.7830    8.3470    0.9440 N.3   121  GLU121     -0.1245
    148  CA       -11.3600    8.0700    0.7920 C.3   121  GLU121      0.1567
    149  C        -10.9760    6.7090    0.2570 C.2   121  GLU121      0.2260
    150  O        -11.3330    5.6750    0.8310 O.2   121  GLU121     -0.2867
    151  CB       -10.6650    8.2740    2.1280 C.3   121  GLU121      0.0388
    152  CG       -10.8620    9.6610    2.7350 C.3   121  GLU121      0.1160
    153  CD       -10.2360    9.7640    4.1100 C.2   121  GLU121      0.3649
    154  OE1      -10.4860    8.8610    4.9390 O.co2 121  GLU121     -0.2457
    155  OE2       -9.5010   10.7420    4.3680 O.co2 121  GLU121     -0.2457
    156  N          0.2920   -0.2650    3.3780 N.3   138  GLU138     -0.1245
    157  CA        -0.3980    0.8130    2.6860 C.3   138  GLU138      0.1567
    158  C          0.5170    1.7820    1.9470 C.2   138  GLU138      0.2260
    159  O          1.6300    2.0810    2.4150 O.2   138  GLU138     -0.2867
    160  CB        -1.2300    1.5840    3.7160 C.3   138  GLU138      0.0388
    161  CG        -2.0200    2.7020    3.0990 C.3   138  GLU138      0.1160
    162  CD        -3.0720    3.2770    4.0540 C.2   138  GLU138      0.3649
    163  OE1       -2.8910    3.2120    5.3070 O.co2 138  GLU138     -0.2457
    164  OE2       -4.0620    3.8250    3.5260 O.co2 138  GLU138     -0.2457
    165  N          3.8430    5.5450   21.4000 N.3   189  ALA189     -0.1245
    166  CA         2.7700    4.6280   21.0680 C.3   189  ALA189      0.1562
    167  C          3.0080    3.2600   21.6710 C.2   189  ALA189      0.2260
    168  O          4.1530    2.8060   21.7900 O.2   189  ALA189     -0.2867
    169  CB         2.6510    4.4880   19.5440 C.3   189  ALA189      0.0290
    170  N          1.7690   -0.7100   21.1690 N.3   191  CYS191     -0.1235
    171  CA         1.1030   -1.5730   20.1990 C.3   191  CYS191      0.1677
    172  C          1.0340   -3.0020   20.6490 C.2   191  CYS191      0.2270
    173  O          2.0040   -3.5570   21.1820 O.2   191  CYS191     -0.2867
    174  CB         1.8160   -1.5730   18.8430 C.3   191  CYS191      0.0956
    175  SG         1.8730    0.0220   18.0100 S.3   191  CYS191     -0.0801
    176  N         -0.8040   -5.9410   14.0910 N.3   206  SER206     -0.1202
    177  CA        -0.5740   -5.1830   15.3070 C.3   206  SER206      0.2020
    178  C         -1.3450   -3.8940   15.2320 C.2   206  SER206      0.2619
    179  O         -1.5500   -3.3500   14.1430 O.2   206  SER206     -0.2717
    180  CB         0.9180   -4.9130   15.4390 C.3   206  SER206      0.2103
    181  OG         1.1640   -4.0740   16.5390 O.3   206  SER206     -0.2182
    182  N         -1.7920   -3.4360   16.3820 N.am  207  GLY207     -0.1942
    183  CA        -2.5360   -2.1950   16.4060 C.3   207  GLY207      0.2014
    184  C         -2.1930   -1.3940   17.6460 C.2   207  GLY207      0.2638
    185  O         -1.8830   -1.9670   18.6990 O.2   207  GLY207     -0.2714
    186  N         -2.2280   -0.0760   17.5180 N.am  208  GLU208     -0.1977
    187  CA        -2.0120    0.7950   18.6580 C.3   208  GLU208      0.1602
    188  C         -3.1670    0.5780   19.6410 C.2   208  GLU208      0.2287
    189  O         -4.3230    0.4360   19.2370 O.2   208  GLU208     -0.2864
    190  CB        -2.0230    2.2520   18.1990 C.3   208  GLU208      0.0415
    191  CG        -1.6560    3.2080   19.2920 C.3   208  GLU208      0.1163
    192  CD        -1.1520    4.5620   18.7710 C.2   208  GLU208      0.3649
    193  OE1       -0.5630    4.6290   17.6610 O.co2 208  GLU208     -0.2457
    194  OE2       -1.3270    5.5600   19.5040 O.co2 208  GLU208     -0.2457
    195  N        -11.9080    7.7350   22.3680 N.3   229  LYS229     -0.1231
    196  CA       -12.2990    8.5420   21.2290 C.3   229  LYS229      0.1693
    197  C        -13.0030    9.8160   21.6440 C.2   229  LYS229      0.2592
    198  O        -13.5220    9.9120   22.7530 O.2   229  LYS229     -0.2718
    199  CB       -13.3090    7.7660   20.3700 C.3   229  LYS229      0.0285
    200  CG       -12.7820    6.5070   19.7040 C.3   229  LYS229      0.0035
    201  CD       -11.7350    6.8210   18.6680 C.3   229  LYS229      0.0206
    202  CE       -11.3510    5.5150   17.9430 C.3   229  LYS229      0.1093
    203  NZ       -10.2540    5.7470   16.9900 N.3   229  LYS229     -0.1314
    204  N        -13.0080   10.7970   20.7520 N.am  230  THR230     -0.1953
    205  CA       -13.8060   12.0120   20.9710 C.3   230  THR230      0.1897
    206  C        -14.7030   12.1860   19.7400 C.2   230  THR230      0.2313
    207  O        -14.4350   11.6340   18.6610 O.2   230  THR230     -0.2863
    208  CB       -12.9890   13.2910   21.1210 C.3   230  THR230      0.1794
    209  OG1      -12.3040   13.5670   19.8940 O.3   230  THR230     -0.2208
    210  CG2      -11.9970   13.1590   22.2330 C.3   230  THR230      0.0378
    211  N        -19.8340    7.1830   12.0400 N.3   247  LYS247     -0.1245
    212  CA       -18.7170    7.1090   12.9710 C.3   247  LYS247      0.1561
    213  C        -18.5900    5.7790   13.7030 C.2   247  LYS247      0.2260
    214  O        -17.4740    5.2370   13.8050 O.2   247  LYS247     -0.2867
    215  CB       -18.8020    8.2430   13.9840 C.3   247  LYS247      0.0271
    216  CG       -17.6230    8.2540   14.9330 C.3   247  LYS247      0.0035
    217  CD       -17.3430    9.6340   15.4710 C.3   247  LYS247      0.0206
    218  CE       -16.7550   10.5450   14.4240 C.3   247  LYS247      0.1093
    219  NZ       -16.3650   11.8240   15.0700 N.3   247  LYS247     -0.1314
    220  N        -16.6900    3.0350   11.9240 N.3   250  LYS250     -0.1231
    221  CA       -15.2220    3.1090   11.9890 C.3   250  LYS250      0.1693
    222  C        -14.7040    2.6830   13.3470 C.2   250  LYS250      0.2592
    223  O        -13.7080    1.9600   13.4340 O.2   250  LYS250     -0.2718
    224  CB       -14.7700    4.5220   11.6570 C.3   250  LYS250      0.0285
    225  CG       -15.1510    4.9160   10.2290 C.3   250  LYS250      0.0035
    226  CD       -14.9060    6.3940    9.9710 C.3   250  LYS250      0.0206
    227  CE       -15.3460    6.7630    8.5460 C.3   250  LYS250      0.1093
    228  NZ       -15.1620    8.2170    8.2370 N.3   250  LYS250     -0.1314
    229  N        -15.3740    3.1010   14.4200 N.am  251  TRP251     -0.1976
    230  CA       -14.9250    2.6890   15.7450 C.3   251  TRP251      0.1640
    231  C        -15.0660    1.1870   15.9260 C.2   251  TRP251      0.2290
    232  O        -14.1860    0.5390   16.5470 O.2   251  TRP251     -0.2864
    233  CB       -15.7310    3.3820   16.8490 C.3   251  TRP251      0.0576
    234  CG       -15.4890    4.8600   16.9590 C.ar  251  TRP251      0.0006
    235  CD1      -14.6810    5.6510   16.1730 C.ar  251  TRP251      0.0946
    236  CD2      -16.1270    5.7360   17.9000 C.ar  251  TRP251      0.0152
    237  NE1      -14.7990    6.9780   16.5580 N.ar  251  TRP251     -0.2442
    238  CE2      -15.6730    7.0490   17.6170 C.ar  251  TRP251      0.0810
    239  CE3      -17.0360    5.5320   18.9500 C.ar  251  TRP251      0.0012
    240  CZ2      -16.1030    8.1640   18.3560 C.ar  251  TRP251      0.0191
    241  CZ3      -17.4690    6.6340   19.6870 C.ar  251  TRP251      0.0001
    242  CH2      -16.9920    7.9390   19.3770 C.ar  251  TRP251      0.0015
    243  N        -12.3580   -0.8020   13.8810 N.3   254  GLN254     -0.1245
    244  CA       -11.0420   -0.6500   14.4700 C.3   254  GLN254      0.1566
    245  C        -10.8380   -1.4370   15.7570 C.2   254  GLN254      0.2260
    246  O         -9.7530   -2.0300   15.9610 O.2   254  GLN254     -0.2867
    247  CB       -10.7670    0.8350   14.6800 C.3   254  GLN254      0.0367
    248  CG        -9.3740    1.1000   15.3180 C.3   254  GLN254      0.0905
    249  CD        -9.1810    2.5540   15.6340 C.2   254  GLN254      0.2608
    250  OE1      -10.0610    3.1790   16.1900 O.2   254  GLN254     -0.2717
    251  NE2       -8.0200    3.1000   15.2770 N.am  254  GLN254     -0.0878
@<TRIPOS>BOND
     1   149   148    1
     2   149   150    2
     3   148   147    1
     4   148   151    1
     5   158   159    2
     6   158   157    1
     7   151   152    1
     8   157   156    1
     9   157   160    1
    10   152   153    1
    11   161   160    1
    12   161   162    1
    13   164   162   ar
    14   162   163   ar
    15   143   142    2
    16   153   155   ar
    17   153   154   ar
    18   134   133    2
    19   142   141    1
    20   139   138    1
    21   133   132    1
    22   137   138    1
    23   137   136    1
    24   135   132    1
    25   135   136    1
    26   132   131    1
    27   141   140    1
    28   141   144    1
    29   117   116    2
    30   121   123   ar
    31   121   119   ar
    32   145   144    1
    33   123   122   ar
    34   119   118    1
    35   119   120   ar
    36   118   115    1
    37   144   146    1
    38    53    52    2
    39   122   120   ar
    40   116   115    1
    41   115   114    1
    42   131   126   am
    43    61    60    1
    44    61    62    2
    45    59    60    1
    46    60    63    1
    47    52    51    1
    48    66    67    1
    49   127   126    2
    50    68    69    2
    51    68    67    1
    52   126   125    1
    53   228   227    1
    54    67    70    1
    55   113   112    2
    56   114   112   am
    57   227   226    1
    58    54    51    1
    59    54    55    1
    60    51    50    1
    61    63    64    1
    62    63    65    1
    63   124   125    1
    64   112   111    1
    65    48    47   ar
    66   125   128    1
    67    85    86    1
    68    91    93   ar
    69    91    90   ar
    70    88    87    2
    71    70    71    1
    72    58    56   ar
    73    50    44   am
    74    55    56    1
    75    93    94   ar
    76    49    47   ar
    77   226   225    1
    78    47    46    1
    79   225   224    1
    80   128   130    1
    81   128   129    1
    82    45    44    2
    83    89    90    1
    84    89    86    1
    85    90    92   ar
    86    71    72    1
    87    56    57   ar
    88    44    43    1
    89   111   110    1
    90    86    87    1
    91    87    99   am
    92   102   101    2
    93    94    92   ar
    94    94    96   ar
    95   110   101   am
    96   101   100    1
    97    46    43    1
    98    43    42    1
    99    92    95   ar
   100   224   221    1
   101    72    73   ar
   102    72    74   ar
   103   220   221    1
   104    99   100    1
   105   221   222    1
   106   211   212    1
   107    75    76    1
   108    96    98   ar
   109   100   103    1
   110    95    97   ar
   111    42    33   am
   112   212   213    1
   113   212   215    1
   114    34    33    2
   115    41    39    1
   116    38    39    2
   117    38    37    1
   118    98    97   ar
   119   222   223    2
   120   222   229   am
   121    76    77    1
   122    76    79    1
   123    33    32    1
   124   213   214    2
   125   103   104    1
   126    77    78    2
   127    39    40    1
   128   243   244    1
   129    37    36    1
   130   215   216    1
   131   105   104    1
   132   105   106    1
   133   176   177    1
   134    82    84   ar
   135    82    80   ar
   136    36    35    1
   137    84    83   ar
   138   179   178    2
   139    80    79    1
   140    80    81   ar
   141    83    81   ar
   142    30    28    1
   143   229   230    1
   144   218   219    1
   145   218   217    1
   146   244   247    1
   147   244   245    1
   148   247   248    1
   149   106   107    2
   150    35    32    1
   151    32    31    1
   152   216   217    1
   153    27    28    2
   154    27    26    1
   155   178   177    1
   156   178   182   am
   157   251   249   am
   158   177   180    1
   159   248   249    1
   160    28    29    1
   161   180   181    1
   162   249   250    2
   163    25    26    1
   164    25    24    1
   165   230   231    1
   166   230   233    1
   167   245   246    2
   168   231   232    2
   169   107   109    1
   170   107   108    1
   171   235   237   ar
   172   235   234   ar
   173   182   183    1
   174   183   184    1
   175   237   238   ar
   176    24    21    1
   177    11    10   ar
   178    11     9   ar
   179   233   234    1
   180    23    22    2
   181   234   236   ar
   182   203   202    1
   183    18    17    1
   184    10     8   ar
   185     9     7   ar
   186   186   184   am
   187   186   187    1
   188   238   236   ar
   189   238   240   ar
   190   184   185    2
   191   193   192   ar
   192    19    17    1
   193   236   239   ar
   194    22    21    1
   195   202   201    1
   196    21    20    1
   197   175   174    1
   198   190   187    1
   199   190   191    1
   200    17    16    1
   201     8     6   ar
   202   240   242   ar
   203     7     6   ar
   204   187   188    1
   205   207   206    2
   206   201   200    1
   207   192   191    1
   208   192   194   ar
   209   174   171    1
   210   239   241   ar
   211     6     5    1
   212   189   188    2
   213    16    13    1
   214   242   241   ar
   215   169   166    1
   216   200   199    1
   217   206   205    1
   218   209   208    1
   219   171   172    1
   220   171   170    1
   221     5     2    1
   222   199   196    1
   223    13    12    1
   224    13    14    1
   225   172   173    2
   226   204   205    1
   227   204   197   am
   228   205   208    1
   229   166   165    1
   230   166   167    1
   231   208   210    1
   232   196   197    1
   233   196   195    1
   234    14    15    2
   235     2     1    1
   236     2     3    1
   237   197   198    2
   238   167   168    2
   239     4     3    2
