@<TRIPOS>MOLECULE
tmp/4j7nA01.pdb
 81 75 0 0 0
SMALL
GASTEIGER

@<TRIPOS>ATOM
      1  N         -4.6390    2.3460   -1.2090 N.3   124  GLN124     -0.1245
      2  CA        -3.7680    1.4950   -2.0040 C.3   124  GLN124      0.1566
      3  C         -3.0040    0.6390   -1.0150 C.2   124  GLN124      0.2260
      4  O         -2.4890    1.1440   -0.0080 O.2   124  GLN124     -0.2867
      5  CB        -2.7630    2.3070   -2.8180 C.3   124  GLN124      0.0367
      6  CG        -3.3900    2.9980   -3.9960 C.3   124  GLN124      0.0905
      7  CD        -2.3620    3.8220   -4.7460 C.2   124  GLN124      0.2608
      8  OE1       -1.7100    4.6840   -4.1600 O.2   124  GLN124     -0.2717
      9  NE2       -2.1930    3.5460   -6.0510 N.am  124  GLN124     -0.0878
     10  N          0.0580    2.2500    0.7810 N.3   139  VAL139     -0.1231
     11  CA         0.7850    3.2180   -0.0180 C.3   139  VAL139      0.1692
     12  C         -0.0710    4.4890   -0.0130 C.2   139  VAL139      0.2591
     13  O         -1.2980    4.4360   -0.1650 O.2   139  VAL139     -0.2718
     14  CB         0.9770    2.6900   -1.4480 C.3   139  VAL139      0.0266
     15  CG1        1.5280    3.7960   -2.3540 C.3   139  VAL139      0.0020
     16  CG2        1.9340    1.5020   -1.4100 C.3   139  VAL139      0.0020
     17  N          0.5680    5.6390    0.1610 N.am  140  GLU140     -0.1979
     18  CA        -0.1760    6.8980    0.1940 C.3   140  GLU140      0.1602
     19  C         -0.6530    7.2640   -1.2010 C.2   140  GLU140      0.2287
     20  O          0.1260    7.2510   -2.1490 O.2   140  GLU140     -0.2864
     21  CB         0.7210    8.0130    0.7480 C.3   140  GLU140      0.0415
     22  CG        -0.0240    9.3180    0.9600 C.3   140  GLU140      0.1163
     23  CD         0.7870   10.3500    1.7410 C.2   140  GLU140      0.3649
     24  OE1        1.9770   10.5390    1.4200 O.co2 140  GLU140     -0.2457
     25  OE2        0.2060   10.9670    2.6650 O.co2 140  GLU140     -0.2457
     26  N         -2.2600    9.8590   -4.1800 N.3   142  PRO142     -0.2116
     27  CA        -1.9920   11.2600   -4.5180 C.3   142  PRO142      0.1372
     28  C         -2.9150   12.2050   -3.7280 C.2   142  PRO142      0.2244
     29  O         -2.4710   13.2420   -3.2270 O.2   142  PRO142     -0.2868
     30  CB        -2.2670   11.3050   -6.0210 C.3   142  PRO142      0.0268
     31  CG        -1.8320    9.9460   -6.4810 C.3   142  PRO142      0.0207
     32  CD        -2.3880    9.0300   -5.3980 C.3   142  PRO142      0.0892
     33  N          0.1920   -4.1120   -6.3900 N.3   326  LEU326     -0.1245
     34  CA        -0.4370   -2.9490   -5.7650 C.3   326  LEU326      0.1561
     35  C         -1.9500   -3.0200   -5.9830 C.2   326  LEU326      0.2260
     36  O         -2.4070   -3.0550   -7.1240 O.2   326  LEU326     -0.2867
     37  CB         0.1430   -1.6870   -6.4040 C.3   326  LEU326      0.0270
     38  CG        -0.3050   -0.3330   -5.8410 C.3   326  LEU326      0.0019
     39  CD1        0.2230   -0.1870   -4.4080 C.3   326  LEU326      0.0001
     40  CD2        0.2180    0.8050   -6.7190 C.3   326  LEU326      0.0001
     41  N         -5.3670   -1.1980   -5.6790 N.3   328  SER328     -0.1217
     42  CA        -5.8600    0.1810   -5.5880 C.3   328  SER328      0.1889
     43  C         -7.3730    0.2380   -5.6300 C.2   328  SER328      0.2288
     44  O         -8.0160   -0.5240   -6.3570 O.2   328  SER328     -0.2866
     45  CB        -5.2760    1.0110   -6.7370 C.3   328  SER328      0.2089
     46  OG        -3.8530    1.0700   -6.6670 O.3   328  SER328     -0.2183
     47  N         -8.5110   -2.7640   -8.0880 N.3   336  THR336     -0.1218
     48  CA        -7.7070   -3.0900   -9.2740 C.3   336  THR336      0.1862
     49  C         -6.2650   -3.4300   -8.8870 C.2   336  THR336      0.2287
     50  O         -5.8130   -3.0870   -7.7970 O.2   336  THR336     -0.2866
     51  CB        -7.7180   -1.9130  -10.2660 C.3   336  THR336      0.1770
     52  OG1       -7.1780   -0.7390   -9.6530 O.3   336  THR336     -0.2211
     53  CG2       -9.1670   -1.6430  -10.6930 C.3   336  THR336      0.0375
     54  N         -1.9820   -3.6700  -10.0460 N.3   338  SER338     -0.1217
     55  CA        -0.8730   -3.3450  -10.9530 C.3   338  SER338      0.1889
     56  C          0.3650   -4.0370  -10.3350 C.2   338  SER338      0.2288
     57  O          0.4100   -4.2890   -9.1220 O.2   338  SER338     -0.2866
     58  CB        -0.6890   -1.8190  -11.1160 C.3   338  SER338      0.2089
     59  OG        -0.4730   -1.1680   -9.8830 O.3   338  SER338     -0.2183
     60  N          4.6500   -4.2210   -9.8060 N.3   340  HIS340     -0.1241
     61  CA         5.8420   -3.3760   -9.8100 C.3   340  HIS340      0.1621
     62  C          6.9970   -4.0480   -9.1150 C.2   340  HIS340      0.2264
     63  O          6.7980   -4.8820   -8.2320 O.2   340  HIS340     -0.2867
     64  CB         5.5550   -2.0870   -9.0320 C.3   340  HIS340      0.0745
     65  CG         4.2660   -1.4260   -9.4090 C.ar  340  HIS340      0.0817
     66  ND1        4.2170   -0.3510  -10.2690 N.ar  340  HIS340     -0.2268
     67  CD2        2.9850   -1.6700   -9.0350 C.ar  340  HIS340      0.1154
     68  CE1        2.9620    0.0450  -10.4010 C.ar  340  HIS340      0.1986
     69  NE2        2.1940   -0.7380   -9.6630 N.ar  340  HIS340     -0.2212
     70  N          7.7040    1.1680   -4.6210 N.3   345  TYR345     -0.1241
     71  CA         6.7250    0.3640   -3.9070 C.3   345  TYR345      0.1605
     72  C          7.2160   -0.7540   -3.0150 C.2   345  TYR345      0.2264
     73  O          6.5550   -1.0490   -2.0260 O.2   345  TYR345     -0.2867
     74  CB         5.7130   -0.1930   -4.9170 C.3   345  TYR345      0.0534
     75  CG         4.9750    0.8790   -5.6940 C.ar  345  TYR345     -0.0201
     76  CD1        4.0200    1.6890   -5.0850 C.ar  345  TYR345     -0.0009
     77  CD2        5.2250    1.0720   -7.0490 C.ar  345  TYR345     -0.0009
     78  CE1        3.3260    2.6650   -5.8130 C.ar  345  TYR345      0.0417
     79  CE2        4.5370    2.0470   -7.7850 C.ar  345  TYR345      0.0417
     80  CZ         3.6020    2.8230   -7.1660 C.ar  345  TYR345      0.1957
     81  OH         2.9220    3.7480   -7.9210 O.3   345  TYR345     -0.2866
@<TRIPOS>BOND
     1    58    55    1
     2    58    59    1
     3    55    56    1
     4    55    54    1
     5    53    51    1
     6    68    66   ar
     7    68    69   ar
     8    56    57    2
     9    66    65   ar
    10    51    52    1
    11    51    48    1
    12    61    60    1
    13    61    62    1
    14    61    64    1
    15    69    67   ar
    16    65    67   ar
    17    65    64    1
    18    48    49    1
    19    48    47    1
    20    62    63    2
    21    49    50    2
    22    81    80    1
    23    79    80   ar
    24    79    77   ar
    25    80    78   ar
    26    36    35    2
    27    77    75   ar
    28    45    46    1
    29    45    42    1
    30    40    38    1
    31    31    30    1
    32    31    32    1
    33    37    38    1
    34    37    34    1
    35    33    34    1
    36    44    43    2
    37     9     7   am
    38    30    27    1
    39    35    34    1
    40    38    39    1
    41    78    76   ar
    42    75    76   ar
    43    75    74    1
    44    41    42    1
    45    43    42    1
    46    32    26    1
    47    74    71    1
    48     7     8    2
    49     7     6    1
    50    70    71    1
    51    27    26    1
    52    27    28    1
    53     6     5    1
    54    71    72    1
    55    28    29    2
    56    72    73    2
    57     5     2    1
    58    15    14    1
    59    20    19    2
    60     2     1    1
    61     2     3    1
    62    14    16    1
    63    14    11    1
    64    19    18    1
    65     3     4    2
    66    13    12    2
    67    11    12    1
    68    11    10    1
    69    12    17   am
    70    17    18    1
    71    18    21    1
    72    21    22    1
    73    22    23    1
    74    24    23   ar
    75    23    25   ar
