@<TRIPOS>MOLECULE
tmp/4j81A00.pdb
 177 167 0 0 0
SMALL
GASTEIGER

@<TRIPOS>ATOM
      1  N       -110.0220   70.3720  129.4600 N.3    14  ARG14      -0.1245
      2  CA      -109.6110   71.0600  128.2400 C.3    14  ARG14       0.1563
      3  C       -109.9840   70.3190  126.9580 C.2    14  ARG14       0.2260
      4  O       -109.6310   69.1630  126.7810 O.2    14  ARG14      -0.2867
      5  CB      -108.1010   71.3150  128.2730 C.3    14  ARG14       0.0307
      6  CG      -107.5480   72.0410  127.0590 C.3    14  ARG14       0.0489
      7  CD      -106.0620   72.3160  127.2200 C.3    14  ARG14       0.2205
      8  NE      -105.7680   72.9660  128.4930 N.pl3  14  ARG14      -0.0865
      9  CZ      -104.6770   72.7430  129.2170 C.cat  14  ARG14       0.5346
     10  NH1     -103.7590   71.8870  128.7960 N.pl3  14  ARG14       0.1354
     11  NH2     -104.5060   73.3820  130.3640 N.pl3  14  ARG14       0.1354
     12  N       -109.4320   69.7350  123.1350 N.3    16  LYS16      -0.1245
     13  CA      -108.3680   69.9070  122.1500 C.3    16  LYS16       0.1561
     14  C       -108.8240   69.6640  120.7090 C.2    16  LYS16       0.2260
     15  O       -108.2350   70.1880  119.7720 O.2    16  LYS16      -0.2867
     16  CB      -107.1870   68.9900  122.4750 C.3    16  LYS16       0.0271
     17  CG      -106.6120   69.1880  123.8630 C.3    16  LYS16       0.0035
     18  CD      -106.1320   70.6150  124.0600 C.3    16  LYS16       0.0206
     19  CE      -105.0600   70.9860  123.0530 C.3    16  LYS16       0.1093
     20  NZ      -104.2830   72.1800  123.4790 N.3    16  LYS16      -0.1314
     21  N       -108.0440   66.8500  126.9130 N.3    32  TYR32      -0.1241
     22  CA      -106.6670   66.7540  127.3750 C.3    32  TYR32       0.1605
     23  C       -106.5110   65.6080  128.3950 C.2    32  TYR32       0.2264
     24  O       -105.4100   65.0920  128.6080 O.2    32  TYR32      -0.2867
     25  CB      -106.2600   68.1070  127.9820 C.3    32  TYR32       0.0534
     26  CG      -104.7750   68.3270  128.1290 C.ar   32  TYR32      -0.0201
     27  CD1     -104.0170   68.7780  127.0560 C.ar   32  TYR32      -0.0009
     28  CD2     -104.1330   68.0920  129.3420 C.ar   32  TYR32      -0.0009
     29  CE1     -102.6470   68.9910  127.1770 C.ar   32  TYR32       0.0417
     30  CE2     -102.7600   68.2970  129.4740 C.ar   32  TYR32       0.0417
     31  CZ      -102.0320   68.7490  128.3860 C.ar   32  TYR32       0.1957
     32  OH      -100.6760   68.9600  128.4990 O.3    32  TYR32      -0.2866
     33  N       -105.5520   64.9300  121.1770 N.3    58  ARG58      -0.1245
     34  CA      -105.5750   66.2310  120.5040 C.3    58  ARG58       0.1563
     35  C       -106.4010   66.2710  119.2290 C.2    58  ARG58       0.2260
     36  O       -106.7180   67.3550  118.7300 O.2    58  ARG58      -0.2867
     37  CB      -104.1510   66.6970  120.1770 C.3    58  ARG58       0.0307
     38  CG      -103.3060   66.9070  121.3990 C.3    58  ARG58       0.0489
     39  CD      -101.8840   67.3600  121.0440 C.3    58  ARG58       0.2205
     40  NE      -101.0880   67.2990  122.2590 N.pl3  58  ARG58      -0.0865
     41  CZ      -100.8720   68.3310  123.0650 C.cat  58  ARG58       0.5346
     42  NH1     -101.3380   69.5390  122.7500 N.pl3  58  ARG58       0.1354
     43  NH2     -100.1680   68.1520  124.1760 N.pl3  58  ARG58       0.1354
     44  N        -94.2840   60.0710  118.2470 N.3    97  ASP97      -0.1225
     45  CA       -94.4140   61.3390  118.9650 C.3    97  ASP97       0.1805
     46  C        -95.8690   61.7860  118.8870 C.2    97  ASP97       0.2597
     47  O        -96.6990   61.0970  118.2830 O.2    97  ASP97      -0.2718
     48  CB       -93.4940   62.3980  118.3480 C.3    97  ASP97       0.1424
     49  CG       -93.0060   63.4340  119.3580 C.2    97  ASP97       0.3668
     50  OD1      -93.7020   63.6980  120.3710 O.co2  97  ASP97      -0.2456
     51  OD2      -91.9240   64.0100  119.1050 O.co2  97  ASP97      -0.2456
     52  N        -96.1810   62.9320  119.4900 N.am   98  TYR98      -0.1976
     53  CA       -97.5800   63.3660  119.6300 C.3    98  TYR98       0.1639
     54  C        -98.3030   63.4630  118.2930 C.2    98  TYR98       0.2290
     55  O        -97.7230   63.8790  117.3020 O.2    98  TYR98      -0.2864
     56  CB       -97.6620   64.7420  120.2830 C.3    98  TYR98       0.0560
     57  CG       -97.2260   64.8200  121.7260 C.ar   98  TYR98      -0.0198
     58  CD1      -96.7420   63.7050  122.3960 C.ar   98  TYR98      -0.0009
     59  CD2      -97.3210   66.0170  122.4230 C.ar   98  TYR98      -0.0009
     60  CE1      -96.3470   63.7830  123.7200 C.ar   98  TYR98       0.0417
     61  CE2      -96.9320   66.1040  123.7480 C.ar   98  TYR98       0.0417
     62  CZ       -96.4470   64.9840  124.3880 C.ar   98  TYR98       0.1957
     63  OH       -96.0600   65.0660  125.7080 O.3    98  TYR98      -0.2866
     64  N       -101.0380   65.5490  116.2820 N.3   100  ARG100     -0.1245
     65  CA      -101.6280   66.8850  116.4210 C.3   100  ARG100      0.1563
     66  C       -102.9500   67.0510  115.6850 C.2   100  ARG100      0.2260
     67  O       -103.8130   67.8430  116.0870 O.2   100  ARG100     -0.2867
     68  CB      -100.6590   67.9560  115.9090 C.3   100  ARG100      0.0307
     69  CG       -99.3610   68.0760  116.6820 C.3   100  ARG100      0.0489
     70  CD       -99.5570   68.8340  117.9890 C.3   100  ARG100      0.2205
     71  NE       -98.2960   68.9690  118.7100 N.pl3 100  ARG100     -0.0865
     72  CZ       -98.1410   69.6760  119.8230 C.cat 100  ARG100      0.5346
     73  NH1      -99.1720   70.3470  120.3400 N.pl3 100  ARG100      0.1354
     74  NH2      -96.9470   69.7220  120.4060 N.pl3 100  ARG100      0.1354
     75  N        -95.7350   65.4820  115.7280 N.3   116  ASP116     -0.1239
     76  CA       -94.5170   66.1310  116.1930 C.3   116  ASP116      0.1674
     77  C        -93.2830   65.4330  115.6160 C.2   116  ASP116      0.2266
     78  O        -92.1750   65.9610  115.6930 O.2   116  ASP116     -0.2867
     79  CB       -94.4660   66.1110  117.7280 C.3   116  ASP116      0.1410
     80  CG       -95.3920   67.1270  118.3570 C.2   116  ASP116      0.3668
     81  OD1      -96.2300   67.6820  117.6220 O.co2 116  ASP116     -0.2456
     82  OD2      -95.2970   67.3530  119.5870 O.co2 116  ASP116     -0.2456
     83  N        -90.3710   70.9500  111.6540 N.3   140  HIS140     -0.1226
     84  CA       -90.8440   71.1120  113.0210 C.3   140  HIS140      0.1752
     85  C        -92.1940   70.4110  113.1070 C.2   140  HIS140      0.2596
     86  O        -92.6070   69.7610  112.1450 O.2   140  HIS140     -0.2718
     87  CB       -90.9620   72.5940  113.4100 C.3   140  HIS140      0.0759
     88  CG       -90.7070   72.8570  114.8690 C.ar  140  HIS140      0.0818
     89  ND1      -91.3040   72.1270  115.8730 N.ar  140  HIS140     -0.2268
     90  CD2      -89.9180   73.7680  115.4850 C.ar  140  HIS140      0.1154
     91  CE1      -90.8960   72.5770  117.0480 C.ar  140  HIS140      0.1986
     92  NE2      -90.0550   73.5730  116.8390 N.ar  140  HIS140     -0.2212
     93  N        -92.8740   70.5400  114.2420 N.am  141  PHE141     -0.1976
     94  CA       -94.1200   69.8150  114.4810 C.3   141  PHE141      0.1639
     95  C        -95.1670   70.1460  113.4210 C.2   141  PHE141      0.2290
     96  O        -95.4280   71.3240  113.1410 O.2   141  PHE141     -0.2864
     97  CB       -94.7260   70.1860  115.8400 C.3   141  PHE141      0.0560
     98  CG       -93.8310   69.9340  117.0290 C.ar  141  PHE141     -0.0200
     99  CD1      -92.7060   69.1350  116.9380 C.ar  141  PHE141     -0.0042
    100  CD2      -94.1520   70.4890  118.2610 C.ar  141  PHE141     -0.0042
    101  CE1      -91.9010   68.9090  118.0490 C.ar  141  PHE141     -0.0003
    102  CE2      -93.3570   70.2620  119.3770 C.ar  141  PHE141     -0.0003
    103  CZ       -92.2280   69.4750  119.2680 C.ar  141  PHE141     -0.0000
    104  N        -98.7440   70.7090  112.7840 N.3   143  MET143     -0.1245
    105  CA       -99.8190   71.0780  113.7070 C.3   143  MET143      0.1570
    106  C       -101.2060   70.8540  113.1440 C.2   143  MET143      0.2261
    107  O       -102.1770   70.7460  113.8970 O.2   143  MET143     -0.2867
    108  CB       -99.6880   72.5490  114.1020 C.3   143  MET143      0.0387
    109  CG       -98.3850   72.8900  114.7930 C.3   143  MET143      0.0595
    110  SD       -98.2530   72.1640  116.4490 S.3   143  MET143     -0.1393
    111  CE       -99.4230   73.1540  117.3660 C.3   143  MET143      0.0692
    112  N        -94.9180   74.3030  112.5770 N.3   160  LEU160     -0.1245
    113  CA       -94.2010   75.2940  113.3740 C.3   160  LEU160      0.1561
    114  C        -92.9050   75.7200  112.7050 C.2   160  LEU160      0.2260
    115  O        -92.2200   76.6300  113.1890 O.2   160  LEU160     -0.2867
    116  CB       -93.9210   74.7670  114.7890 C.3   160  LEU160      0.0270
    117  CG       -95.1410   74.5370  115.6770 C.3   160  LEU160      0.0019
    118  CD1      -94.7110   74.0800  117.0800 C.3   160  LEU160      0.0001
    119  CD2      -96.0430   75.7830  115.7430 C.3   160  LEU160      0.0001
    120  N       -100.0030   77.3240  113.2270 N.3   187  ASN187     -0.1240
    121  CA      -100.7810   76.4250  114.0730 C.3   187  ASN187      0.1653
    122  C       -101.9310   75.7390  113.3470 C.2   187  ASN187      0.2266
    123  O       -102.4060   74.6900  113.7810 O.2   187  ASN187     -0.2867
    124  CB      -101.3710   77.1880  115.2710 C.3   187  ASN187      0.1155
    125  CG      -100.3130   77.7500  116.1900 C.2   187  ASN187      0.2627
    126  OD1      -99.2590   77.1520  116.3830 O.2   187  ASN187     -0.2716
    127  ND2     -100.5950   78.9180  116.7690 N.am  187  ASN187     -0.0877
    128  N        -98.8670   81.7200  116.2990 N.3   205  ASP205     -0.1239
    129  CA       -98.4360   82.2770  117.5870 C.3   205  ASP205      0.1674
    130  C        -97.9340   83.7240  117.4710 C.2   205  ASP205      0.2266
    131  O        -97.7400   84.3910  118.4830 O.2   205  ASP205     -0.2867
    132  CB       -97.2980   81.4450  118.2000 C.3   205  ASP205      0.1410
    133  CG       -97.7610   80.1300  118.8000 C.2   205  ASP205      0.3668
    134  OD1      -98.9810   79.8780  118.8740 O.co2 205  ASP205     -0.2456
    135  OD2      -96.8770   79.3460  119.2170 O.co2 205  ASP205     -0.2456
    136  N       -101.6480   83.8160  121.2840 N.3   229  ASN229     -0.1240
    137  CA      -101.5480   82.8260  120.2050 C.3   229  ASN229      0.1653
    138  C       -102.8800   82.5650  119.5220 C.2   229  ASN229      0.2266
    139  O       -103.8870   82.3210  120.1910 O.2   229  ASN229     -0.2867
    140  CB      -101.0440   81.4810  120.7390 C.3   229  ASN229      0.1155
    141  CG       -99.6420   81.5530  121.3070 C.2   229  ASN229      0.2627
    142  OD1      -98.8590   82.4300  120.9590 O.2   229  ASN229     -0.2716
    143  ND2      -99.3150   80.6060  122.1810 N.am  229  ASN229     -0.0877
    144  N       -105.7290   81.9520  122.4230 N.3   247  GLU247     -0.1245
    145  CA      -105.4350   81.7660  123.8350 C.3   247  GLU247      0.1567
    146  C       -105.7260   83.0510  124.6060 C.2   247  GLU247      0.2260
    147  O       -105.5920   83.0830  125.8350 O.2   247  GLU247     -0.2867
    148  CB      -103.9860   81.2870  124.0500 C.3   247  GLU247      0.0388
    149  CG      -103.6740   79.9090  123.4360 C.3   247  GLU247      0.1160
    150  CD      -102.2500   79.4410  123.7070 C.2   247  GLU247      0.3649
    151  OE1     -101.6460   78.8110  122.8170 O.co2 247  GLU247     -0.2457
    152  OE2     -101.7360   79.6900  124.8160 O.co2 247  GLU247     -0.2457
    153  N       -108.8140   79.7580  127.5570 N.3   271  ARG271     -0.1245
    154  CA      -108.1590   79.6740  126.2410 C.3   271  ARG271      0.1563
    155  C       -108.9230   78.8360  125.2080 C.2   271  ARG271      0.2260
    156  O       -109.4000   77.7510  125.5170 O.2   271  ARG271     -0.2867
    157  CB      -106.7250   79.1420  126.3720 C.3   271  ARG271      0.0307
    158  CG      -105.7960   80.0310  127.2130 C.3   271  ARG271      0.0489
    159  CD      -104.4390   79.3560  127.4230 C.3   271  ARG271      0.2205
    160  NE      -104.5820   78.1340  128.2190 N.pl3 271  ARG271     -0.0865
    161  CZ      -103.5830   77.3160  128.5390 C.cat 271  ARG271      0.5346
    162  NH1     -102.3460   77.5810  128.1430 N.pl3 271  ARG271      0.1354
    163  NH2     -103.8260   76.2320  129.2680 N.pl3 271  ARG271      0.1354
    164  N       -109.0020   76.5110  121.7750 N.3   273  TRP273     -0.1241
    165  CA      -108.0580   75.5820  121.1360 C.3   273  TRP273      0.1605
    166  C       -108.4860   75.0290  119.7800 C.2   273  TRP273      0.2264
    167  O       -107.6410   74.7110  118.9430 O.2   273  TRP273     -0.2867
    168  CB      -107.8030   74.3890  122.0580 C.3   273  TRP273      0.0550
    169  CG      -107.1770   74.7440  123.3500 C.ar  273  TRP273      0.0003
    170  CD1     -107.7430   74.6500  124.5960 C.ar  273  TRP273      0.0946
    171  CD2     -105.8600   75.2580  123.5440 C.ar  273  TRP273      0.0152
    172  NE1     -106.8570   75.0790  125.5450 N.ar  273  TRP273     -0.2442
    173  CE2     -105.6890   75.4450  124.9310 C.ar  273  TRP273      0.0810
    174  CE3     -104.8010   75.5620  122.6790 C.ar  273  TRP273      0.0012
    175  CZ2     -104.5050   75.9430  125.4730 C.ar  273  TRP273      0.0191
    176  CZ3     -103.6340   76.0580  123.2140 C.ar  273  TRP273      0.0001
    177  CH2     -103.4900   76.2340  124.6030 C.ar  273  TRP273      0.0015
@<TRIPOS>BOND
     1    83    84    1
     2    86    85    2
     3   112   113    1
     4   114   115    2
     5   114   113    1
     6   104   105    1
     7    84    85    1
     8    84    87    1
     9    85    93   am
    10    96    95    2
    11   106   105    1
    12   106   107    2
    13   120   121    1
    14   122   123    2
    15   122   121    1
    16   113   116    1
    17    87    88    1
    18    95    94    1
    19   105   108    1
    20   121   124    1
    21   108   109    1
    22    93    94    1
    23    94    97    1
    24   116   117    1
    25   109   110    1
    26    88    90   ar
    27    88    89   ar
    28   124   125    1
    29    90    92   ar
    30    77    78    2
    31    77    76    1
    32   117   119    1
    33   117   118    1
    34    66    67    2
    35    66    65    1
    36    75    76    1
    37    97    98    1
    38    89    91   ar
    39    68    65    1
    40    68    69    1
    41   125   126    2
    42   125   127   am
    43    76    79    1
    44    64    65    1
    45   128   129    1
    46   110   111    1
    47    69    70    1
    48    92    91   ar
    49    99    98   ar
    50    99   101   ar
    51    98   100   ar
    52    55    54    2
    53   130   129    1
    54   130   131    2
    55   129   132    1
    56    81    80   ar
    57    79    80    1
    58    70    71    1
    59   101   103   ar
    60   132   133    1
    61    44    45    1
    62   100   102   ar
    63    47    46    2
    64    54    53    1
    65    48    45    1
    66    48    49    1
    67    80    82   ar
    68    71    72    2
    69    36    35    2
    70   133   134   ar
    71   133   135   ar
    72    46    45    1
    73    46    52   am
    74   167   166    2
    75    51    49   ar
    76    35    34    1
    77   103   102   ar
    78    49    50   ar
    79    52    53    1
    80   138   139    2
    81   138   137    1
    82    53    56    1
    83    15    14    2
    84   166   165    1
    85    72    73    1
    86    72    74    1
    87    37    34    1
    88    37    38    1
    89   137   140    1
    90   137   136    1
    91    56    57    1
    92    34    33    1
    93    14    13    1
    94   140   141    1
    95   142   141    2
    96    39    38    1
    97    39    40    1
    98   165   164    1
    99   165   168    1
   100   141   143   am
   101    57    58   ar
   102    57    59   ar
   103   168   169    1
   104    13    16    1
   105    13    12    1
   106    40    41    2
   107    58    60   ar
   108    59    61   ar
   109   144   145    1
   110    16    17    1
   111   174   176   ar
   112   174   171   ar
   113    42    41    1
   114   151   150   ar
   115    19    20    1
   116    19    18    1
   117    41    43    1
   118   176   177   ar
   119   169   171   ar
   120   169   170   ar
   121   149   150    1
   122   149   148    1
   123   171   173   ar
   124   150   152   ar
   125    60    62   ar
   126    61    62   ar
   127   145   148    1
   128   145   146    1
   129    17    18    1
   130    62    63    1
   131   170   172   ar
   132   177   175   ar
   133   146   147    2
   134   173   175   ar
   135   173   172   ar
   136   155   156    2
   137   155   154    1
   138   154   157    1
   139   154   153    1
   140   157   158    1
   141     4     3    2
   142    21    22    1
   143     3     2    1
   144    27    29   ar
   145    27    26   ar
   146     6     7    1
   147     6     5    1
   148    29    31   ar
   149   158   159    1
   150     7     8    1
   151    22    25    1
   152    22    23    1
   153   159   160    1
   154    25    26    1
   155    26    28   ar
   156   162   161    1
   157   160   161    2
   158     2     5    1
   159     2     1    1
   160    31    32    1
   161    31    30   ar
   162    23    24    2
   163     8     9    2
   164   161   163    1
   165    10     9    1
   166     9    11    1
   167    28    30   ar
