@<TRIPOS>MOLECULE
tmp/4j82A00.pdb
 203 191 0 0 0
SMALL
GASTEIGER

@<TRIPOS>ATOM
      1  N        -16.1820  121.6450 -137.5940 N.3    14  ARG14      -0.1245
      2  CA       -16.9490  121.5890 -136.3420 C.3    14  ARG14       0.1563
      3  C        -16.0970  121.5210 -135.0670 C.2    14  ARG14       0.2260
      4  O        -15.2980  120.6040 -134.9040 O.2    14  ARG14      -0.2867
      5  CB       -17.9090  120.4000 -136.3950 C.3    14  ARG14       0.0307
      6  CG       -18.7010  120.1950 -135.1160 C.3    14  ARG14       0.0489
      7  CD       -19.6010  118.9750 -135.2250 C.3    14  ARG14       0.2205
      8  NE       -20.4180  119.0320 -136.4380 N.pl3  14  ARG14      -0.0865
      9  CZ       -20.7370  117.9770 -137.1830 C.cat  14  ARG14       0.5346
     10  NH1      -20.3120  116.7690 -136.8410 N.pl3  14  ARG14       0.1354
     11  NH2      -21.4740  118.1270 -138.2760 N.pl3  14  ARG14       0.1354
     12  N        -15.6530  120.7840 -131.2080 N.3    16  LYS16      -0.1245
     13  CA       -16.3320  119.9430 -130.2100 C.3    16  LYS16       0.1561
     14  C        -15.8710  120.2700 -128.8020 C.2    16  LYS16       0.2260
     15  O        -16.5980  120.0430 -127.8350 O.2    16  LYS16      -0.2867
     16  CB       -16.0840  118.4490 -130.4970 C.3    16  LYS16       0.0271
     17  CG       -16.6020  117.9590 -131.8480 C.3    16  LYS16       0.0035
     18  CD       -18.1200  118.1190 -131.9470 C.3    16  LYS16       0.0206
     19  CE       -18.8140  117.3100 -130.8650 C.3    16  LYS16       0.1093
     20  NZ       -20.2820  117.2740 -131.0930 N.3    16  LYS16      -0.1314
     21  N        -13.7820  118.2480 -134.9810 N.3    32  TYR32      -0.1241
     22  CA       -14.2980  116.9630 -135.4420 C.3    32  TYR32       0.1605
     23  C        -13.3510  116.3290 -136.4780 C.2    32  TYR32       0.2264
     24  O        -13.3910  115.1220 -136.7200 O.2    32  TYR32      -0.2867
     25  CB       -15.7130  117.1600 -136.0160 C.3    32  TYR32       0.0534
     26  CG       -16.5000  115.8910 -136.2660 C.ar   32  TYR32      -0.0201
     27  CD1      -17.3480  115.3730 -135.2950 C.ar   32  TYR32      -0.0009
     28  CD2      -16.4130  115.2240 -137.4800 C.ar   32  TYR32      -0.0009
     29  CE1      -18.0770  114.2210 -135.5200 C.ar   32  TYR32       0.0417
     30  CE2      -17.1320  114.0700 -137.7140 C.ar   32  TYR32       0.0417
     31  CZ       -17.9590  113.5730 -136.7310 C.ar   32  TYR32       0.1957
     32  OH       -18.6800  112.4220 -136.9610 O.3    32  TYR32      -0.2866
     33  N        -12.6180  112.5070 -134.6820 N.3    56  PRO56      -0.2116
     34  CA       -12.9830  113.6760 -133.8750 C.3    56  PRO56       0.1372
     35  C        -12.2190  113.7660 -132.5550 C.2    56  PRO56       0.2244
     36  O        -11.9840  112.7450 -131.8970 O.2    56  PRO56      -0.2868
     37  CB       -14.4750  113.4460 -133.5920 C.3    56  PRO56       0.0268
     38  CG       -14.9560  112.7150 -134.8220 C.3    56  PRO56       0.0207
     39  CD       -13.8070  111.8130 -135.2170 C.3    56  PRO56       0.0892
     40  N        -13.0090  115.3460 -129.2090 N.3    58  ARG58      -0.1245
     41  CA       -14.1680  115.9230 -128.5170 C.3    58  ARG58       0.1563
     42  C        -13.8160  116.7080 -127.2610 C.2    58  ARG58       0.2260
     43  O        -14.6060  117.5340 -126.8110 O.2    58  ARG58      -0.2867
     44  CB       -15.2090  114.8420 -128.1800 C.3    58  ARG58       0.0307
     45  CG       -15.9490  114.2800 -129.3940 C.3    58  ARG58       0.0489
     46  CD       -16.9060  113.1340 -129.0130 C.3    58  ARG58       0.2205
     47  NE       -17.1900  112.3300 -130.1990 N.pl3  58  ARG58      -0.0865
     48  CZ       -18.1880  112.5580 -131.0450 C.cat  58  ARG58       0.5346
     49  NH1      -19.0450  113.5460 -130.8170 N.pl3  58  ARG58       0.1354
     50  NH2      -18.3350  111.7840 -132.1170 N.pl3  58  ARG58       0.1354
     51  N        -11.8680  110.1580 -130.6000 N.3    74  ASP74      -0.1239
     52  CA       -12.6650  108.9720 -130.9100 C.3    74  ASP74       0.1674
     53  C        -11.8160  107.7440 -131.2230 C.2    74  ASP74       0.2266
     54  O        -12.3290  106.6210 -131.2300 O.2    74  ASP74      -0.2867
     55  CB       -13.6520  109.2480 -132.0560 C.3    74  ASP74       0.1410
     56  CG       -14.8180  110.1320 -131.6400 C.2    74  ASP74       0.3668
     57  OD1      -14.8440  110.6010 -130.4800 O.co2  74  ASP74      -0.2456
     58  OD2      -15.7160  110.3740 -132.4850 O.co2  74  ASP74      -0.2456
     59  N        -13.4630  103.0380 -126.0920 N.3    97  ASP97      -0.1225
     60  CA       -14.5530  103.7020 -126.8060 C.3    97  ASP97       0.1805
     61  C        -14.3260  105.2130 -126.7740 C.2    97  ASP97       0.2597
     62  O        -13.3160  105.6660 -126.2250 O.2    97  ASP97      -0.2718
     63  CB       -15.9030  103.3350 -126.1800 C.3    97  ASP97       0.1424
     64  CG       -17.0430  103.3570 -127.1840 C.2    97  ASP97       0.3668
     65  OD1      -16.9600  104.1150 -128.1800 O.co2  97  ASP97      -0.2456
     66  OD2      -18.0270  102.6130 -126.9750 O.co2  97  ASP97      -0.2456
     67  N        -15.2520  105.9890 -127.3450 N.am   98  TYR98      -0.1976
     68  CA       -15.0840  107.4460 -127.4640 C.3    98  TYR98       0.1639
     69  C        -14.8090  108.1370 -126.1310 C.2    98  TYR98       0.2290
     70  O        -15.3830  107.7740 -125.0970 O.2    98  TYR98      -0.2864
     71  CB       -16.3200  108.1190 -128.0820 C.3    98  TYR98       0.0560
     72  CG       -16.6720  107.7790 -129.5210 C.ar   98  TYR98      -0.0198
     73  CD1      -15.9810  106.8090 -130.2380 C.ar   98  TYR98      -0.0009
     74  CD2      -17.7090  108.4530 -130.1630 C.ar   98  TYR98      -0.0009
     75  CE1      -16.3280  106.5130 -131.5590 C.ar   98  TYR98       0.0417
     76  CE2      -18.0580  108.1680 -131.4650 C.ar   98  TYR98       0.0417
     77  CZ       -17.3690  107.2010 -132.1590 C.ar   98  TYR98       0.1957
     78  OH       -17.7300  106.9290 -133.4600 O.3    98  TYR98      -0.2866
     79  N        -15.4810  111.5770 -124.2620 N.3   100  ARG100     -0.1245
     80  CA       -16.4320  112.6750 -124.4110 C.3   100  ARG100      0.1563
     81  C        -16.0070  113.9390 -123.6820 C.2   100  ARG100      0.2260
     82  O        -16.3970  115.0450 -124.0630 O.2   100  ARG100     -0.2867
     83  CB       -17.8220  112.2570 -123.8960 C.3   100  ARG100      0.0307
     84  CG       -18.5070  111.1390 -124.6740 C.3   100  ARG100      0.0489
     85  CD       -19.0620  111.6250 -126.0080 C.3   100  ARG100      0.2205
     86  NE       -19.7380  110.5490 -126.7270 N.pl3 100  ARG100     -0.0865
     87  CZ       -20.4840  110.7210 -127.8120 C.cat 100  ARG100      0.5346
     88  NH1      -20.6640  111.9400 -128.3140 N.pl3 100  ARG100      0.1354
     89  NH2      -21.0570  109.6700 -128.3930 N.pl3 100  ARG100      0.1354
     90  N        -17.7500  106.7910 -123.5560 N.3   116  ASP116     -0.1239
     91  CA       -18.8180  105.9120 -124.0160 C.3   116  ASP116      0.1674
     92  C        -18.7050  104.4820 -123.4710 C.2   116  ASP116      0.2266
     93  O        -19.6360  103.6830 -123.6190 O.2   116  ASP116     -0.2867
     94  CB       -18.8330  105.8730 -125.5450 C.3   116  ASP116      0.1410
     95  CG       -19.3870  107.1350 -126.1560 C.2   116  ASP116      0.3668
     96  OD1      -19.5150  108.1470 -125.4340 O.co2 116  ASP116     -0.2456
     97  OD2      -19.6760  107.1260 -127.3760 O.co2 116  ASP116     -0.2456
     98  N        -24.9520  104.4280 -119.5490 N.3   140  HIS140     -0.1226
     99  CA       -24.8940  104.9170 -120.9190 C.3   140  HIS140      0.1752
    100  C        -23.6640  105.7980 -121.0090 C.2   140  HIS140      0.2596
    101  O        -22.8790  105.8580 -120.0600 O.2   140  HIS140     -0.2718
    102  CB       -26.1700  105.6830 -121.2760 C.3   140  HIS140      0.0759
    103  CG       -26.5590  105.5870 -122.7190 C.ar  140  HIS140      0.0818
    104  ND1      -25.6550  105.7130 -123.7540 N.ar  140  HIS140     -0.2268
    105  CD2      -27.7660  105.3850 -123.3010 C.ar  140  HIS140      0.1154
    106  CE1      -26.2870  105.5880 -124.9070 C.ar  140  HIS140      0.1986
    107  NE2      -27.5680  105.3920 -124.6610 N.ar  140  HIS140     -0.2212
    108  N        -23.4830  106.4590 -122.1500 N.am  141  PHE141     -0.1976
    109  CA       -22.2860  107.2510 -122.4150 C.3   141  PHE141      0.1639
    110  C        -22.1730  108.3380 -121.3610 C.2   141  PHE141      0.2290
    111  O        -23.1390  109.0770 -121.1410 O.2   141  PHE141     -0.2864
    112  CB       -22.3890  107.9580 -123.7740 C.3   141  PHE141      0.0560
    113  CG       -22.5940  107.0390 -124.9510 C.ar  141  PHE141     -0.0200
    114  CD1      -22.3790  105.6720 -124.8510 C.ar  141  PHE141     -0.0042
    115  CD2      -22.9760  107.5640 -126.1840 C.ar  141  PHE141     -0.0042
    116  CE1      -22.5640  104.8420 -125.9480 C.ar  141  PHE141     -0.0003
    117  CE2      -23.1670  106.7400 -127.2760 C.ar  141  PHE141     -0.0003
    118  CZ       -22.9560  105.3820 -127.1640 C.ar  141  PHE141     -0.0000
    119  N        -21.1540  111.8730 -120.6160 N.3   143  MET143     -0.1245
    120  CA       -20.9790  112.9500 -121.5870 C.3   143  MET143      0.1570
    121  C        -20.1540  114.1150 -121.0500 C.2   143  MET143      0.2261
    122  O        -19.6080  114.9060 -121.8210 O.2   143  MET143     -0.2867
    123  CB       -22.3570  113.4520 -122.0350 C.3   143  MET143      0.0387
    124  CG       -23.2110  112.4020 -122.7230 C.3   143  MET143      0.0595
    125  SD       -22.6140  111.9960 -124.3730 S.3   143  MET143     -0.1393
    126  CE       -23.0220  113.5020 -125.2680 C.3   143  MET143      0.0692
    127  N        -25.9580  109.9040 -120.4130 N.3   160  LEU160     -0.1245
    128  CA       -27.1610  109.6830 -121.2170 C.3   160  LEU160      0.1561
    129  C        -28.1630  108.7400 -120.5520 C.2   160  LEU160      0.2260
    130  O        -29.2850  108.5880 -121.0420 O.2   160  LEU160     -0.2867
    131  CB       -26.8090  109.2040 -122.6390 C.3   160  LEU160      0.0270
    132  CG       -26.0360  110.1980 -123.5150 C.3   160  LEU160      0.0019
    133  CD1      -25.8030  109.6360 -124.9270 C.3   160  LEU160      0.0001
    134  CD2      -26.7490  111.5430 -123.5750 C.3   160  LEU160      0.0001
    135  N        -34.2570  112.2090 -122.1230 N.3   184  ARG184     -0.1245
    136  CA       -33.3800  111.9660 -123.2640 C.3   184  ARG184      0.1563
    137  C        -31.9110  112.0640 -122.8650 C.2   184  ARG184      0.2260
    138  O        -31.0220  112.0800 -123.7230 O.2   184  ARG184     -0.2867
    139  CB       -33.7070  112.9090 -124.4210 C.3   184  ARG184      0.0307
    140  CG       -35.1020  112.7010 -124.9980 C.3   184  ARG184      0.0489
    141  CD       -35.2330  113.3450 -126.3690 C.3   184  ARG184      0.2205
    142  NE       -36.5880  113.2400 -126.9060 N.pl3 184  ARG184     -0.0865
    143  CZ       -36.9640  112.3450 -127.8130 C.cat 184  ARG184      0.5346
    144  NH1      -36.0840  111.4740 -128.2880 N.pl3 184  ARG184      0.1354
    145  NH2      -38.2180  112.3220 -128.2500 N.pl3 184  ARG184      0.1354
    146  N        -26.4160  115.7860 -121.1710 N.3   187  ASN187     -0.1240
    147  CA       -25.2650  116.0840 -122.0340 C.3   187  ASN187      0.1653
    148  C        -24.1630  116.8370 -121.2970 C.2   187  ASN187      0.2266
    149  O        -23.0080  116.8380 -121.7200 O.2   187  ASN187     -0.2867
    150  CB       -25.6990  116.9560 -123.2180 C.3   187  ASN187      0.1155
    151  CG       -26.7060  116.2780 -124.1150 C.2   187  ASN187      0.2627
    152  OD1      -26.6960  115.0550 -124.2760 O.2   187  ASN187     -0.2716
    153  ND2      -27.5730  117.0810 -124.7330 N.am  187  ASN187     -0.0877
    154  N        -31.0050  116.7110 -124.2240 N.3   205  ASP205     -0.1239
    155  CA       -31.6840  116.6100 -125.5210 C.3   205  ASP205      0.1674
    156  C        -33.1960  116.8330 -125.4230 C.2   205  ASP205      0.2266
    157  O        -33.8680  117.0190 -126.4420 O.2   205  ASP205     -0.2867
    158  CB       -31.4660  115.2300 -126.1490 C.3   205  ASP205      0.1410
    159  CG       -30.0780  115.0420 -126.7210 C.2   205  ASP205      0.3668
    160  OD1      -29.2930  116.0120 -126.7560 O.co2 205  ASP205     -0.2456
    161  OD2      -29.7900  113.9070 -127.1560 O.co2 205  ASP205     -0.2456
    162  N        -31.7450  120.2240 -129.1770 N.3   229  ASN229     -0.1240
    163  CA       -30.8620  119.6900 -128.1280 C.3   229  ASN229      0.1653
    164  C        -29.9940  120.7520 -127.4530 C.2   229  ASN229      0.2266
    165  O        -29.3240  121.5320 -128.1250 O.2   229  ASN229     -0.2867
    166  CB       -29.9370  118.6010 -128.6830 C.3   229  ASN229      0.1155
    167  CG       -30.6920  117.4330 -129.2930 C.2   229  ASN229      0.2627
    168  OD1      -31.8800  117.2390 -129.0390 O.2   229  ASN229     -0.2716
    169  ND2      -29.9950  116.6370 -130.0950 N.am  229  ASN229     -0.0877
    170  N        -28.3300  123.0220 -130.3190 N.3   247  GLU247     -0.1245
    171  CA       -28.3320  122.6700 -131.7340 C.3   247  GLU247      0.1567
    172  C        -29.3490  123.5130 -132.5090 C.2   247  GLU247      0.2260
    173  O        -29.4140  123.4400 -133.7460 O.2   247  GLU247     -0.2867
    174  CB       -28.5990  121.1740 -131.9250 C.3   247  GLU247      0.0388
    175  CG       -27.4710  120.2850 -131.4170 C.3   247  GLU247      0.1160
    176  CD       -27.7220  118.8140 -131.6810 C.2   247  GLU247      0.3649
    177  OE1      -27.3870  117.9830 -130.8110 O.co2 247  GLU247     -0.2457
    178  OE2      -28.2660  118.4890 -132.7570 O.co2 247  GLU247     -0.2457
    179  N        -25.0140  124.9170 -135.4190 N.3   271  ARG271     -0.1245
    180  CA       -25.2160  124.2810 -134.1170 C.3   271  ARG271      0.1563
    181  C        -24.0890  124.5450 -133.1240 C.2   271  ARG271      0.2260
    182  O        -22.9150  124.5040 -133.4740 O.2   271  ARG271     -0.2867
    183  CB       -25.4040  122.7730 -134.2970 C.3   271  ARG271      0.0307
    184  CG       -26.6180  122.4080 -135.1450 C.3   271  ARG271      0.0489
    185  CD       -26.6800  120.9170 -135.4300 C.3   271  ARG271      0.2205
    186  NE       -25.5530  120.4640 -136.2420 N.pl3 271  ARG271     -0.0865
    187  CZ       -25.4050  119.2200 -136.6840 C.cat 271  ARG271      0.5346
    188  NH1      -26.3170  118.3020 -136.4030 N.pl3 271  ARG271      0.1354
    189  NH2      -24.3480  118.8960 -137.4150 N.pl3 271  ARG271      0.1354
    190  N        -21.9330  123.5140 -129.7770 N.3   273  TRP273     -0.1241
    191  CA       -21.5190  122.2490 -129.1610 C.3   273  TRP273      0.1605
    192  C        -20.8050  122.3750 -127.8200 C.2   273  TRP273      0.2264
    193  O        -20.8780  121.4720 -126.9920 O.2   273  TRP273     -0.2867
    194  CB       -20.5970  121.4730 -130.1090 C.3   273  TRP273      0.0550
    195  CG       -21.2430  121.0780 -131.3760 C.ar  273  TRP273      0.0003
    196  CD1      -20.9730  121.5700 -132.6180 C.ar  273  TRP273      0.0946
    197  CD2      -22.2940  120.1220 -131.5390 C.ar  273  TRP273      0.0152
    198  NE1      -21.7880  120.9710 -133.5450 N.ar  273  TRP273     -0.2442
    199  CE2      -22.6120  120.0790 -132.9090 C.ar  273  TRP273      0.0810
    200  CE3      -23.0040  119.3020 -130.6560 C.ar  273  TRP273      0.0012
    201  CZ2      -23.6000  119.2330 -133.4240 C.ar  273  TRP273      0.0191
    202  CZ3      -23.9860  118.4640 -131.1670 C.ar  273  TRP273      0.0001
    203  CH2      -24.2730  118.4370 -132.5370 C.ar  273  TRP273      0.0015
@<TRIPOS>BOND
     1    11     9    1
     2    30    28   ar
     3    30    31   ar
     4     1     2    1
     5    28    26   ar
     6   189   187    1
     7     9    10    1
     8     9     8    2
     9    32    31    1
    10    31    29   ar
    11    24    23    2
    12   187   188    1
    13   187   186    2
    14    23    22    1
    15     8     7    1
    16     5     2    1
    17     5     6    1
    18     2     3    1
    19    26    25    1
    20    26    27   ar
    21   186   185    1
    22    25    22    1
    23    29    27   ar
    24    22    21    1
    25   185   184    1
    26   179   180    1
    27     7     6    1
    28    39    38    1
    29    39    33    1
    30   184   183    1
    31     3     4    2
    32    38    37    1
    33    33    34    1
    34   183   180    1
    35   180   181    1
    36    34    37    1
    37    34    35    1
    38   173   172    2
    39   198   199   ar
    40   198   196   ar
    41   182   181    2
    42    78    77    1
    43   201   199   ar
    44   201   203   ar
    45   199   197   ar
    46   178   176   ar
    47   196   195   ar
    48    35    36    2
    49   203   202   ar
    50   172   171    1
    51    58    56   ar
    52    77    75   ar
    53    77    76   ar
    54    50    48    1
    55    55    56    1
    56    55    52    1
    57    18    17    1
    58    18    19    1
    59   174   171    1
    60   174   175    1
    61    17    16    1
    62   171   170    1
    63   176   175    1
    64   176   177   ar
    65    56    57   ar
    66    75    73   ar
    67   197   195   ar
    68   197   200   ar
    69    76    74   ar
    70   195   194    1
    71    54    53    2
    72    53    52    1
    73    12    13    1
    74   202   200   ar
    75    20    19    1
    76    48    49    1
    77    48    47    2
    78    52    51    1
    79    16    13    1
    80    73    72   ar
    81    13    14    1
    82    47    46    1
    83    74    72   ar
    84   194   191    1
    85   169   167   am
    86   190   191    1
    87    72    71    1
    88    45    46    1
    89    45    44    1
    90   167   168    2
    91   167   166    1
    92    40    41    1
    93   162   163    1
    94   191   192    1
    95    14    15    2
    96   166   163    1
    97    41    44    1
    98    41    42    1
    99    89    87    1
   100    88    87    1
   101   144   143    1
   102   145   143    1
   103    65    64   ar
   104   163   164    1
   105   165   164    2
   106    71    68    1
   107   192   193    2
   108   143   142    2
   109    87    86    2
   110    68    67    1
   111    68    69    1
   112    97    95   ar
   113    67    61   am
   114   117   118   ar
   115   117   115   ar
   116    42    43    2
   117    64    66   ar
   118    64    63    1
   119   118   116   ar
   120   161   159   ar
   121   142   141    1
   122    60    61    1
   123    60    63    1
   124    60    59    1
   125    61    62    2
   126   160   159   ar
   127    86    85    1
   128   159   158    1
   129   157   156    2
   130   141   140    1
   131   115   113   ar
   132    95    94    1
   133    95    96   ar
   134   158   155    1
   135    69    70    2
   136    85    84    1
   137   116   114   ar
   138    94    91    1
   139   155   156    1
   140   155   154    1
   141   126   125    1
   142   140   139    1
   143   113   114   ar
   144   113   112    1
   145   133   132    1
   146   106   107   ar
   147   106   104   ar
   148   153   151   am
   149    84    83    1
   150   107   105   ar
   151   139   136    1
   152    80    79    1
   153    80    83    1
   154    80    81    1
   155   125   124    1
   156   152   151    2
   157   151   150    1
   158    82    81    2
   159    91    90    1
   160    91    92    1
   161   112   109    1
   162   104   103   ar
   163   138   137    2
   164    93    92    2
   165   134   132    1
   166   132   131    1
   167   105   103   ar
   168   136   137    1
   169   136   135    1
   170   150   147    1
   171   124   123    1
   172   103   102    1
   173   131   128    1
   174   109   108    1
   175   109   110    1
   176   108   100   am
   177   123   120    1
   178   147   148    1
   179   147   146    1
   180   122   121    2
   181   149   148    2
   182   120   121    1
   183   120   119    1
   184   110   111    2
   185   102    99    1
   186   128   129    1
   187   128   127    1
   188   130   129    2
   189   100    99    1
   190   100   101    2
   191    99    98    1
