@<TRIPOS>MOLECULE
tmp/4j84A00.pdb
 172 162 0 0 0
SMALL
GASTEIGER

@<TRIPOS>ATOM
      1  N          6.8100 -129.1980  131.7290 N.3    15  ARG15      -0.1245
      2  CA         7.2370 -129.3350  130.3380 C.3    15  ARG15       0.1563
      3  C          8.2190 -128.2400  129.9080 C.2    15  ARG15       0.2260
      4  O          7.9280 -127.0450  130.0220 O.2    15  ARG15      -0.2867
      5  CB         6.0070 -129.3760  129.4220 C.3    15  ARG15       0.0307
      6  CG         6.2970 -129.4810  127.9330 C.3    15  ARG15       0.0489
      7  CD         5.0020 -129.3830  127.1200 C.3    15  ARG15       0.2205
      8  NE         4.0330 -130.3890  127.5560 N.pl3  15  ARG15      -0.0865
      9  CZ         2.7150 -130.2070  127.6260 C.cat  15  ARG15       0.5346
     10  NH1        2.1660 -129.0620  127.2360 N.pl3  15  ARG15       0.1354
     11  NH2        1.9390 -131.1870  128.0780 N.pl3  15  ARG15       0.1354
     12  N          9.9620 -126.2820  127.0720 N.3    17  LYS17      -0.1245
     13  CA         9.6970 -125.9110  125.6770 C.3    17  LYS17       0.1561
     14  C         10.8990 -125.2440  124.9980 C.2    17  LYS17       0.2260
     15  O         11.0310 -125.2750  123.7670 O.2    17  LYS17      -0.2867
     16  CB         8.5070 -124.9490  125.6000 C.3    17  LYS17       0.0271
     17  CG         7.1760 -125.4980  126.0980 C.3    17  LYS17       0.0035
     18  CD         6.7510 -126.7480  125.3510 C.3    17  LYS17       0.0206
     19  CE         6.5190 -126.4880  123.8760 C.3    17  LYS17       0.1093
     20  NZ         5.8600 -127.6700  123.2440 N.3    17  LYS17      -0.1314
     21  N          6.4190 -124.6550  130.2190 N.3    33  TYR33      -0.1241
     22  CA         5.0310 -124.4670  129.8340 C.3    33  TYR33       0.1605
     23  C          4.2420 -123.7540  130.9410 C.2    33  TYR33       0.2264
     24  O          3.2260 -123.1260  130.6810 O.2    33  TYR33      -0.2867
     25  CB         4.4050 -125.8330  129.4860 C.3    33  TYR33       0.0534
     26  CG         3.1280 -125.7440  128.6840 C.ar   33  TYR33      -0.0201
     27  CD1        3.1660 -125.6070  127.3110 C.ar   33  TYR33      -0.0009
     28  CD2        1.8880 -125.8240  129.2970 C.ar   33  TYR33      -0.0009
     29  CE1        2.0100 -125.5230  126.5660 C.ar   33  TYR33       0.0417
     30  CE2        0.7200 -125.7390  128.5610 C.ar   33  TYR33       0.0417
     31  CZ         0.7870 -125.5920  127.1940 C.ar   33  TYR33       0.1957
     32  OH        -0.3600 -125.5110  126.4320 O.3    33  TYR33      -0.2866
     33  N          7.7100 -120.4010  125.4790 N.3    59  ARG59      -0.1245
     34  CA         8.1830 -121.3430  124.4670 C.3    59  ARG59       0.1563
     35  C          9.6050 -121.1140  123.9720 C.2    59  ARG59       0.2260
     36  O         10.2140 -122.0110  123.3760 O.2    59  ARG59      -0.2867
     37  CB         7.2410 -121.3600  123.2600 C.3    59  ARG59       0.0307
     38  CG         5.8300 -121.8190  123.5920 C.3    59  ARG59       0.0489
     39  CD         4.8930 -121.7160  122.3880 C.3    59  ARG59       0.2205
     40  NE         3.5230 -121.9340  122.8330 N.pl3  59  ARG59      -0.0865
     41  CZ         2.9350 -123.1230  122.8990 C.cat  59  ARG59       0.5346
     42  NH1        3.5770 -124.2130  122.5010 N.pl3  59  ARG59       0.1354
     43  NH2        1.6940 -123.2150  123.3510 N.pl3  59  ARG59       0.1354
     44  N          1.0340 -115.8630  119.7100 N.3    99  TYR99      -0.1241
     45  CA         2.0780 -116.6000  120.4260 C.3    99  TYR99       0.1605
     46  C          3.4600 -116.4120  119.8030 C.2    99  TYR99       0.2264
     47  O          3.5960 -116.3710  118.5850 O.2    99  TYR99      -0.2867
     48  CB         1.7670 -118.1010  120.4430 C.3    99  TYR99       0.0534
     49  CG         0.5130 -118.5210  121.1840 C.ar   99  TYR99      -0.0201
     50  CD1       -0.1870 -117.6340  121.9970 C.ar   99  TYR99      -0.0009
     51  CD2        0.0460 -119.8310  121.0830 C.ar   99  TYR99      -0.0009
     52  CE1       -1.3340 -118.0410  122.6750 C.ar   99  TYR99       0.0417
     53  CE2       -1.0870 -120.2370  121.7540 C.ar   99  TYR99       0.0417
     54  CZ        -1.7690 -119.3380  122.5470 C.ar   99  TYR99       0.1957
     55  OH        -2.9050 -119.7570  123.2100 O.3    99  TYR99      -0.2866
     56  N          6.8920 -118.2700  119.0920 N.3   101  ARG101     -0.1245
     57  CA         7.3490 -119.6610  119.0020 C.3   101  ARG101      0.1563
     58  C          8.8610 -119.8340  119.1120 C.2   101  ARG101      0.2260
     59  O          9.3420 -120.8770  119.5120 O.2   101  ARG101     -0.2867
     60  CB         6.9090 -120.2600  117.6720 C.3   101  ARG101      0.0307
     61  CG         5.4160 -120.3840  117.4950 C.3   101  ARG101      0.0489
     62  CD         4.8570 -121.5430  118.3000 C.3   101  ARG101      0.2205
     63  NE         3.4150 -121.6140  118.1420 N.pl3 101  ARG101     -0.0865
     64  CZ         2.6530 -122.5890  118.6140 C.cat 101  ARG101      0.5346
     65  NH1        3.1920 -123.5980  119.2890 N.pl3 101  ARG101      0.1354
     66  NH2        1.3460 -122.5340  118.4110 N.pl3 101  ARG101      0.1354
     67  N          1.3180 -119.5620  107.5890 N.3   141  HIS141     -0.1226
     68  CA         0.9040 -120.2770  108.7980 C.3   141  HIS141      0.1752
     69  C          1.8920 -119.9340  109.9110 C.2   141  HIS141      0.2596
     70  O          2.7860 -119.1160  109.7000 O.2   141  HIS141     -0.2718
     71  CB         0.8560 -121.7890  108.5340 C.3   141  HIS141      0.0759
     72  CG        -0.1220 -122.5330  109.3900 C.ar  141  HIS141      0.0818
     73  ND1       -0.2640 -122.3060  110.7410 N.ar  141  HIS141     -0.2268
     74  CD2       -1.0000 -123.5190  109.0820 C.ar  141  HIS141      0.1154
     75  CE1       -1.1910 -123.1110  111.2280 C.ar  141  HIS141      0.1986
     76  NE2       -1.6480 -123.8640  110.2420 N.ar  141  HIS141     -0.2212
     77  N          1.7440 -120.5390  111.0910 N.am  142  PHE142     -0.1976
     78  CA         2.6340 -120.2200  112.2150 C.3   142  PHE142      0.1639
     79  C          4.1200 -120.3660  111.8700 C.2   142  PHE142      0.2290
     80  O          4.5580 -121.3810  111.3020 O.2   142  PHE142     -0.2864
     81  CB         2.3940 -121.1360  113.4190 C.3   142  PHE142      0.0560
     82  CG         0.9660 -121.2050  113.9040 C.ar  142  PHE142     -0.0200
     83  CD1        0.5810 -122.2500  114.7330 C.ar  142  PHE142     -0.0042
     84  CD2        0.0360 -120.2330  113.5860 C.ar  142  PHE142     -0.0042
     85  CE1       -0.7150 -122.3420  115.2120 C.ar  142  PHE142     -0.0003
     86  CE2       -1.2720 -120.3170  114.0650 C.ar  142  PHE142     -0.0003
     87  CZ        -1.6410 -121.3820  114.8800 C.ar  142  PHE142     -0.0000
     88  N          7.3750 -121.3950  113.1490 N.3   144  MET144     -0.1245
     89  CA         7.7810 -122.2600  114.2560 C.3   144  MET144      0.1570
     90  C          9.2100 -122.1020  114.7340 C.2   144  MET144      0.2261
     91  O          9.5230 -122.4380  115.8730 O.2   144  MET144     -0.2867
     92  CB         7.5510 -123.7250  113.8740 C.3   144  MET144      0.0387
     93  CG         6.0860 -124.1170  113.6580 C.3   144  MET144      0.0595
     94  SD         5.0680 -123.9490  115.1310 S.3   144  MET144     -0.1393
     95  CE         5.6940 -125.3060  116.0970 C.3   144  MET144      0.0692
     96  N          4.6850 -123.7620  109.5000 N.3   161  LEU161     -0.1245
     97  CA         3.6770 -124.7930  109.2730 C.3   161  LEU161      0.1561
     98  C          3.0860 -124.7820  107.8590 C.2   161  LEU161      0.2260
     99  O          2.3820 -125.7250  107.4950 O.2   161  LEU161     -0.2867
    100  CB         2.5780 -124.7570  110.3350 C.3   161  LEU161      0.0270
    101  CG         3.0630 -125.0970  111.7470 C.3   161  LEU161      0.0019
    102  CD1        1.8680 -125.1530  112.7080 C.3   161  LEU161      0.0001
    103  CD2        3.8800 -126.3940  111.7900 C.3   161  LEU161      0.0001
    104  N          2.9660 -131.8140  106.6610 N.3   185  ARG185     -0.1245
    105  CA         2.3370 -131.3900  107.9070 C.3   185  ARG185      0.1563
    106  C          3.0510 -130.1840  108.5140 C.2   185  ARG185      0.2260
    107  O          2.8090 -129.8250  109.6700 O.2   185  ARG185     -0.2867
    108  CB         2.2950 -132.5410  108.9100 C.3   185  ARG185      0.0307
    109  CG         1.3910 -133.6850  108.4910 C.3   185  ARG185      0.0489
    110  CD         1.2590 -134.6940  109.6160 C.3   185  ARG185      0.2205
    111  NE         0.3970 -135.8260  109.2790 N.pl3 185  ARG185     -0.0865
    112  CZ        -0.9150 -135.8530  109.4920 C.cat 185  ARG185      0.5346
    113  NH1       -1.5220 -134.7990  110.0210 N.pl3 185  ARG185      0.1354
    114  NH2       -1.6230 -136.9270  109.1640 N.pl3 185  ARG185      0.1354
    115  N          8.5850 -127.7950  111.7160 N.3   188  ASN188     -0.1240
    116  CA         8.6500 -127.4390  113.1310 C.3   188  ASN188      0.1653
    117  C          9.9530 -126.7780  113.5350 C.2   188  ASN188      0.2266
    118  O         10.0100 -126.0860  114.5460 O.2   188  ASN188     -0.2867
    119  CB         8.4800 -128.6850  114.0090 C.3   188  ASN188      0.1155
    120  CG         7.1380 -129.3250  113.8510 C.2   188  ASN188      0.2627
    121  OD1        6.1410 -128.6470  113.5950 O.2   188  ASN188     -0.2716
    122  ND2        7.0990 -130.6530  113.9810 N.am  188  ASN188     -0.0877
    123  N          6.1330 -132.6980  111.5340 N.3   206  ASP206     -0.1239
    124  CA         5.0940 -133.5800  112.0610 C.3   206  ASP206      0.1674
    125  C          4.9010 -134.7840  111.1470 C.2   206  ASP206      0.2266
    126  O          4.3130 -135.7890  111.5610 O.2   206  ASP206     -0.2867
    127  CB         3.7450 -132.8570  112.1680 C.3   206  ASP206      0.1410
    128  CG         3.6310 -131.9570  113.3920 C.2   206  ASP206      0.3668
    129  OD1        4.5550 -131.9140  114.2370 O.co2 206  ASP206     -0.2456
    130  OD2        2.5790 -131.2910  113.5100 O.co2 206  ASP206     -0.2456
    131  N          5.5890 -136.9820  115.8220 N.3   230  ASN230     -0.1240
    132  CA         6.0740 -135.6650  115.3930 C.3   230  ASN230      0.1653
    133  C          7.5250 -135.4270  115.7630 C.2   230  ASN230      0.2266
    134  O          7.9160 -135.6300  116.9240 O.2   230  ASN230     -0.2867
    135  CB         5.2420 -134.5610  116.0350 C.3   230  ASN230      0.1155
    136  CG         3.7700 -134.6590  115.7020 C.2   230  ASN230      0.2627
    137  OD1        3.3770 -135.2630  114.7010 O.2   230  ASN230     -0.2716
    138  ND2        2.9400 -134.0390  116.5390 N.am  230  ASN230     -0.0877
    139  N          8.0700 -136.3970  119.6990 N.3   248  GLU248     -0.1245
    140  CA         6.9910 -136.7160  120.6150 C.3   248  GLU248      0.1567
    141  C          6.8740 -138.2220  120.8380 C.2   248  GLU248      0.2260
    142  O          6.0730 -138.6590  121.6570 O.2   248  GLU248     -0.2867
    143  CB         5.6710 -136.1070  120.1370 C.3   248  GLU248      0.0388
    144  CG         5.7460 -134.5920  120.0130 C.3   248  GLU248      0.1160
    145  CD         4.4160 -133.9570  119.7050 C.2   248  GLU248      0.3649
    146  OE1        4.4110 -132.9640  118.9560 O.co2 248  GLU248     -0.2457
    147  OE2        3.3760 -134.4290  120.2120 O.co2 248  GLU248     -0.2457
    148  N          7.4440 -136.7870  126.0280 N.3   272  ARG272     -0.1245
    149  CA         7.7050 -136.1540  124.7260 C.3   272  ARG272      0.1563
    150  C          8.8840 -135.1970  124.7650 C.2   272  ARG272      0.2260
    151  O          9.0280 -134.4300  125.7080 O.2   272  ARG272     -0.2867
    152  CB         6.4630 -135.4250  124.2200 C.3   272  ARG272      0.0307
    153  CG         5.2900 -136.3700  123.9510 C.3   272  ARG272      0.0489
    154  CD         4.0160 -135.5980  123.6140 C.3   272  ARG272      0.2205
    155  NE         3.5230 -134.8140  124.7490 N.pl3 272  ARG272     -0.0865
    156  CZ         2.5050 -133.9570  124.6800 C.cat 272  ARG272      0.5346
    157  NH1        1.8690 -133.7710  123.5270 N.pl3 272  ARG272      0.1354
    158  NH2        2.1270 -133.2800  125.7600 N.pl3 272  ARG272      0.1354
    159  N         10.7890 -131.8910  123.2290 N.3   274  TRP274     -0.1241
    160  CA        10.3620 -130.6300  122.6100 C.3   274  TRP274      0.1605
    161  C         11.4750 -129.7350  122.0810 C.2   274  TRP274      0.2264
    162  O         11.2830 -129.0240  121.0910 O.2   274  TRP274     -0.2867
    163  CB         9.5390 -129.8210  123.6050 C.3   274  TRP274      0.0550
    164  CG         8.2970 -130.5040  124.0010 C.ar  274  TRP274      0.0003
    165  CD1        8.0210 -131.0720  125.2190 C.ar  274  TRP274      0.0946
    166  CD2        7.1500 -130.7280  123.1820 C.ar  274  TRP274      0.0152
    167  NE1        6.7640 -131.6240  125.2010 N.ar  274  TRP274     -0.2442
    168  CE2        6.2080 -131.4270  123.9620 C.ar  274  TRP274      0.0810
    169  CE3        6.8260 -130.4080  121.8610 C.ar  274  TRP274      0.0012
    170  CZ2        4.9580 -131.8030  123.4660 C.ar  274  TRP274      0.0191
    171  CZ3        5.5890 -130.7700  121.3780 C.ar  274  TRP274      0.0001
    172  CH2        4.6680 -131.4610  122.1740 C.ar  274  TRP274      0.0015
@<TRIPOS>BOND
     1   104   105    1
     2    99    98    2
     3    67    68    1
     4    98    97    1
     5   105   106    1
     6   105   108    1
     7   109   108    1
     8   109   110    1
     9   106   107    2
    10    71    68    1
    11    71    72    1
    12    68    69    1
    13    74    72   ar
    14    74    76   ar
    15   114   112    1
    16    97    96    1
    17    97   100    1
    18   111   112    2
    19   111   110    1
    20    72    73   ar
    21   112   113    1
    22    70    69    2
    23    69    77   am
    24    76    75   ar
    25   100   101    1
    26    73    75   ar
    27    77    78    1
    28   125   126    2
    29   125   124    1
    30    80    79    2
    31   123   124    1
    32   115   116    1
    33   101   103    1
    34   101   102    1
    35    79    78    1
    36   124   127    1
    37   127   128    1
    38    78    81    1
    39   116   117    1
    40   116   119    1
    41    88    89    1
    42   128   130   ar
    43   128   129   ar
    44    81    82    1
    45   117   118    2
    46    84    82   ar
    47    84    86   ar
    48   121   120    2
    49    93    92    1
    50    93    94    1
    51   120   122   am
    52   120   119    1
    53    92    89    1
    54    82    83   ar
    55    86    87   ar
    56    89    90    1
    57   137   136    2
    58    83    85   ar
    59    90    91    2
    60    87    85   ar
    61    94    95    1
    62   132   133    1
    63   132   131    1
    64   132   135    1
    65   136   135    1
    66   136   138   am
    67   133   134    2
    68    61    60    1
    69    61    62    1
    70    60    57    1
    71    63    62    1
    72    63    64    2
    73    66    64    1
    74    47    46    2
    75    64    65    1
    76   146   145   ar
    77    57    56    1
    78    57    58    1
    79    58    59    2
    80   139   140    1
    81   145   144    1
    82   145   147   ar
    83    44    45    1
    84    46    45    1
    85   144   143    1
    86   143   140    1
    87    45    48    1
    88    48    49    1
    89   140   141    1
    90   141   142    2
    91    51    49   ar
    92    51    53   ar
    93   162   161    2
    94    49    50   ar
    95   171   169   ar
    96   171   172   ar
    97    53    54   ar
    98   169   166   ar
    99    50    52   ar
   100   161   160    1
   101   172   170   ar
   102    39    40    1
   103    39    38    1
   104    42    41    1
   105    54    52   ar
   106    54    55    1
   107   160   159    1
   108   160   163    1
   109    40    41    2
   110    41    43    1
   111   166   168   ar
   112   166   164   ar
   113    20    19    1
   114    37    38    1
   115    37    34    1
   116    36    35    2
   117   170   168   ar
   118   157   156    1
   119   163   164    1
   120   154   153    1
   121   154   155    1
   122    15    14    2
   123    19    18    1
   124   153   152    1
   125   168   167   ar
   126    35    34    1
   127   164   165   ar
   128   152   149    1
   129    34    33    1
   130   156   155    2
   131   156   158    1
   132   149   150    1
   133   149   148    1
   134   150   151    2
   135    14    13    1
   136   167   165   ar
   137    18    17    1
   138    16    13    1
   139    16    17    1
   140    13    12    1
   141    32    31    1
   142    29    31   ar
   143    29    27   ar
   144     7     8    1
   145     7     6    1
   146    31    30   ar
   147    10     9    1
   148    27    26   ar
   149     8     9    2
   150     9    11    1
   151     6     5    1
   152    30    28   ar
   153    26    28   ar
   154    26    25    1
   155     5     2    1
   156    25    22    1
   157    22    21    1
   158    22    23    1
   159     3     4    2
   160     3     2    1
   161     2     1    1
   162    24    23    2
