@<TRIPOS>MOLECULE
tmp/4j84B00.pdb
 187 176 0 0 0
SMALL
GASTEIGER

@<TRIPOS>ATOM
      1  N         16.4870 -124.4340  148.1590 N.3    14  ARG14      -0.1245
      2  CA        16.4580 -124.9150  149.5390 C.3    14  ARG14       0.1563
      3  C         15.0410 -125.2070  150.0260 C.2    14  ARG14       0.2260
      4  O         14.1850 -124.3300  150.0260 O.2    14  ARG14      -0.2867
      5  CB        17.1230 -123.8830  150.4560 C.3    14  ARG14       0.0307
      6  CG        17.1050 -124.2800  151.9390 C.3    14  ARG14       0.0489
      7  CD        17.8000 -123.2200  152.8090 C.3    14  ARG14       0.2205
      8  NE        19.1270 -122.9240  152.2730 N.pl3  14  ARG14      -0.0865
      9  CZ        19.6640 -121.7120  152.1940 C.cat  14  ARG14       0.5346
     10  NH1       19.0130 -120.6500  152.6580 N.pl3  14  ARG14       0.1354
     11  NH2       20.8740 -121.5700  151.6590 N.pl3  14  ARG14       0.1354
     12  N         12.5850 -125.8040  152.9390 N.3    16  LYS16      -0.1245
     13  CA        12.4780 -125.4820  154.3720 C.3    16  LYS16       0.1561
     14  C         11.3350 -126.2130  155.0740 C.2    16  LYS16       0.2260
     15  O         11.3680 -126.4140  156.2910 O.2    16  LYS16      -0.2867
     16  CB        12.3100 -123.9730  154.5660 C.3    16  LYS16       0.0271
     17  CG        13.4560 -123.1450  153.9980 C.3    16  LYS16       0.0035
     18  CD        14.7660 -123.4100  154.7350 C.3    16  LYS16       0.0206
     19  CE        14.6800 -123.0450  156.2050 C.3    16  LYS16       0.1093
     20  NZ        16.0300 -123.0640  156.8370 N.3    16  LYS16      -0.1314
     21  N         12.8800 -121.8270  149.9620 N.3    32  TYR32      -0.1241
     22  CA        13.4540 -120.5600  150.3940 C.3    32  TYR32       0.1605
     23  C         13.2210 -119.4630  149.3430 C.2    32  TYR32       0.2264
     24  O         13.2620 -118.2690  149.6580 O.2    32  TYR32      -0.2867
     25  CB        14.9480 -120.7470  150.6790 C.3    32  TYR32       0.0534
     26  CG        15.5670 -119.6620  151.5200 C.ar   32  TYR32      -0.0201
     27  CD1       15.4980 -119.7050  152.9060 C.ar   32  TYR32      -0.0009
     28  CD2       16.2410 -118.6030  150.9290 C.ar   32  TYR32      -0.0009
     29  CE1       16.0760 -118.7250  153.6850 C.ar   32  TYR32       0.0417
     30  CE2       16.8170 -117.6180  151.7010 C.ar   32  TYR32       0.0417
     31  CZ        16.7320 -117.6870  153.0770 C.ar   32  TYR32       0.1957
     32  OH        17.3080 -116.6940  153.8360 O.3    32  TYR32      -0.2866
     33  N         11.2150 -116.3130  151.6670 N.3    56  PRO56      -0.2116
     34  CA        11.2060 -117.7350  152.0280 C.3    56  PRO56       0.1372
     35  C          9.8600 -118.1950  152.5660 C.2    56  PRO56       0.2244
     36  O          9.2330 -117.4820  153.3530 O.2    56  PRO56      -0.2868
     37  CB        12.2460 -117.8040  153.1520 C.3    56  PRO56       0.0268
     38  CG        13.2210 -116.7100  152.7830 C.3    56  PRO56       0.0207
     39  CD        12.3310 -115.5960  152.3080 C.3    56  PRO56       0.0892
     40  N          8.8110 -120.9060  154.9600 N.3    58  ARG58      -0.1245
     41  CA         9.4600 -121.8170  155.9050 C.3    58  ARG58       0.1563
     42  C          8.5570 -122.9110  156.4290 C.2    58  ARG58       0.2260
     43  O          9.0390 -123.9390  156.9120 O.2    58  ARG58      -0.2867
     44  CB        10.0030 -121.0490  157.1080 C.3    58  ARG58       0.0307
     45  CG        11.0810 -120.0590  156.7560 C.3    58  ARG58       0.0489
     46  CD        11.6070 -119.3160  157.9760 C.3    58  ARG58       0.2205
     47  NE        12.4740 -118.2410  157.5230 N.pl3  58  ARG58      -0.0865
     48  CZ        13.7930 -118.3320  157.3960 C.cat  58  ARG58       0.5346
     49  NH1       14.4390 -119.4450  157.7340 N.pl3  58  ARG58       0.1354
     50  NH2       14.4680 -117.2910  156.9360 N.pl3  58  ARG58       0.1354
     51  N          8.2140 -115.4920  155.1450 N.3    74  ASP74      -0.1239
     52  CA         8.9360 -114.4170  155.8250 C.3    74  ASP74       0.1674
     53  C          8.3240 -113.0480  155.5860 C.2    74  ASP74       0.2266
     54  O          8.7550 -112.0590  156.1850 O.2    74  ASP74      -0.2867
     55  CB        10.4080 -114.3960  155.4120 C.3    74  ASP74       0.1410
     56  CG        11.2370 -115.4550  156.1090 C.2    74  ASP74       0.3668
     57  OD1       10.6850 -116.2850  156.8630 O.co2  74  ASP74      -0.2456
     58  OD2       12.4690 -115.4540  155.8920 O.co2  74  ASP74      -0.2456
     59  N          8.7850 -113.1520  161.0030 N.3    98  TYR98      -0.1241
     60  CA         8.8480 -114.4280  160.2860 C.3    98  TYR98       0.1605
     61  C          8.0040 -115.5150  160.9490 C.2    98  TYR98       0.2264
     62  O          7.9420 -115.6180  162.1800 O.2    98  TYR98      -0.2867
     63  CB        10.2840 -114.9480  160.2040 C.3    98  TYR98       0.0534
     64  CG        11.2880 -114.0970  159.4520 C.ar   98  TYR98      -0.0201
     65  CD1       12.6500 -114.3700  159.5490 C.ar   98  TYR98      -0.0009
     66  CD2       10.8880 -113.0540  158.6370 C.ar   98  TYR98      -0.0009
     67  CE1       13.5860 -113.6130  158.8690 C.ar   98  TYR98       0.0417
     68  CE2       11.8280 -112.2870  157.9510 C.ar   98  TYR98       0.0417
     69  CZ        13.1640 -112.5750  158.0760 C.ar   98  TYR98       0.1957
     70  OH        14.0920 -111.8200  157.3880 O.3    98  TYR98      -0.2866
     71  N          7.8570 -119.4380  161.5220 N.3   100  ARG100     -0.1245
     72  CA         8.8240 -120.5310  161.5250 C.3   100  ARG100      0.1563
     73  C          8.1800 -121.8990  161.3850 C.2   100  ARG100      0.2260
     74  O          8.8100 -122.8370  160.9040 O.2   100  ARG100     -0.2867
     75  CB         9.6220 -120.5200  162.8330 C.3   100  ARG100      0.0307
     76  CG        10.5070 -119.3010  163.0170 C.3   100  ARG100      0.0489
     77  CD        11.7580 -119.4220  162.1760 C.3   100  ARG100      0.2205
     78  NE        12.5590 -118.2140  162.2730 N.pl3 100  ARG100     -0.0865
     79  CZ        13.7410 -118.0380  161.6910 C.cat 100  ARG100      0.5346
     80  NH1       14.2930 -119.0070  160.9770 N.pl3 100  ARG100      0.1354
     81  NH2       14.3800 -116.8910  161.8460 N.pl3 100  ARG100      0.1354
     82  N         12.4270 -115.7750  172.8790 N.3   140  HIS140     -0.1226
     83  CA        13.1780 -115.7390  171.6230 C.3   140  HIS140      0.1752
     84  C         12.3230 -116.4120  170.5470 C.2   140  HIS140      0.2596
     85  O         11.1700 -116.7770  170.8110 O.2   140  HIS140     -0.2718
     86  CB        14.5430 -116.4340  171.7910 C.3   140  HIS140      0.0759
     87  CG        15.6250 -115.8950  170.9060 C.ar  140  HIS140      0.0818
     88  ND1       15.4460 -115.6570  169.5610 N.ar  140  HIS140     -0.2268
     89  CD2       16.9130 -115.5650  171.1750 C.ar  140  HIS140      0.1154
     90  CE1       16.5680 -115.1910  169.0420 C.ar  140  HIS140      0.1986
     91  NE2       17.4740 -115.1270  170.0000 N.ar  140  HIS140     -0.2212
     92  N         12.8680 -116.5680  169.3430 N.am  141  PHE141     -0.1976
     93  CA        12.0800 -117.0680  168.2110 C.3   141  PHE141      0.1639
     94  C         11.4420 -118.4170  168.5580 C.2   141  PHE141      0.2290
     95  O         12.1170 -119.3280  169.0260 O.2   141  PHE141     -0.2864
     96  CB        12.9340 -117.2950  166.9500 C.3   141  PHE141      0.0560
     97  CG        13.7010 -116.0910  166.4580 C.ar  141  PHE141     -0.0200
     98  CD1       14.7280 -116.2760  165.5480 C.ar  141  PHE141     -0.0042
     99  CD2       13.4060 -114.8100  166.8840 C.ar  141  PHE141     -0.0042
    100  CE1       15.4600 -115.1960  165.0690 C.ar  141  PHE141     -0.0003
    101  CE2       14.1330 -113.7200  166.4150 C.ar  141  PHE141     -0.0003
    102  CZ        15.1610 -113.9220  165.4970 C.ar  141  PHE141     -0.0000
    103  N         10.5140 -121.7260  167.2180 N.3   143  MET143     -0.1245
    104  CA        11.0160 -122.4480  166.0530 C.3   143  MET143      0.1570
    105  C         10.1210 -123.5930  165.5840 C.2   143  MET143      0.2261
    106  O         10.1620 -123.9930  164.4210 O.2   143  MET143     -0.2867
    107  CB        12.4220 -122.9890  166.3500 C.3   143  MET143      0.0387
    108  CG        13.4830 -121.9190  166.6100 C.3   143  MET143      0.0595
    109  SD        13.8190 -120.9560  165.1170 S.3   143  MET143     -0.1393
    110  CE        14.4660 -122.2260  164.0440 C.3   143  MET143      0.0692
    111  N         14.1900 -120.7220  170.7730 N.3   160  LEU160     -0.1245
    112  CA        15.6050 -120.4100  170.8710 C.3   160  LEU160      0.1561
    113  C         15.9760 -119.9360  172.2800 C.2   160  LEU160      0.2260
    114  O         17.1610 -119.8190  172.6160 O.2   160  LEU160     -0.2867
    115  CB        16.0170 -119.3860  169.8060 C.3   160  LEU160      0.0270
    116  CG        15.9940 -119.9050  168.3660 C.3   160  LEU160      0.0019
    117  CD1       16.6300 -118.8710  167.4370 C.3   160  LEU160      0.0001
    118  CD2       16.7000 -121.2700  168.2470 C.3   160  LEU160      0.0001
    119  N         22.2210 -123.5090  172.9250 N.3   184  ARG184     -0.1245
    120  CA        22.0790 -122.7660  171.6800 C.3   184  ARG184      0.1563
    121  C         20.6340 -122.7920  171.1900 C.2   184  ARG184      0.2260
    122  O         20.3570 -122.3930  170.0610 O.2   184  ARG184     -0.2867
    123  CB        23.0300 -123.2970  170.6060 C.3   184  ARG184      0.0307
    124  CG        24.4880 -123.2340  170.9740 C.3   184  ARG184      0.0489
    125  CD        25.3270 -123.6910  169.8100 C.3   184  ARG184      0.2205
    126  NE        24.9500 -122.9860  168.5950 N.pl3 184  ARG184     -0.0865
    127  CZ        25.7830 -122.8150  167.5790 C.cat 184  ARG184      0.5346
    128  NH1       27.0250 -123.3080  167.6320 N.pl3 184  ARG184      0.1354
    129  NH2       25.3820 -122.1520  166.5000 N.pl3 184  ARG184      0.1354
    130  N         15.3880 -126.1430  168.2270 N.3   187  ASN187     -0.1240
    131  CA        14.9670 -125.9690  166.8340 C.3   187  ASN187      0.1653
    132  C         13.6990 -126.7210  166.4980 C.2   187  ASN187      0.2266
    133  O         12.9770 -126.3690  165.5530 O.2   187  ASN187     -0.2867
    134  CB        16.0430 -126.4740  165.8650 C.3   187  ASN187      0.1155
    135  CG        17.3110 -125.6700  165.9250 C.2   187  ASN187      0.2627
    136  OD1       17.2830 -124.4540  166.1740 O.2   187  ASN187     -0.2716
    137  ND2       18.4400 -126.3370  165.7050 N.am  187  ASN187     -0.0877
    138  N         20.8420 -126.4970  168.0340 N.3   205  ASP205     -0.1239
    139  CA        22.0800 -126.0160  167.4360 C.3   205  ASP205      0.1674
    140  C         23.3130 -126.4570  168.2310 C.2   205  ASP205      0.2266
    141  O         24.4370 -126.3380  167.7510 O.2   205  ASP205     -0.2867
    142  CB        22.0560 -124.4810  167.3460 C.3   205  ASP205      0.1410
    143  CG        21.3030 -123.9580  166.1330 C.2   205  ASP205      0.3668
    144  OD1       20.7410 -124.7560  165.3640 O.co2 205  ASP205     -0.2456
    145  OD2       21.2890 -122.7180  165.9460 O.co2 205  ASP205     -0.2456
    146  N         24.4460 -128.2390  163.4480 N.3   229  ASN229     -0.1240
    147  CA        23.1050 -127.9940  163.9690 C.3   229  ASN229      0.1653
    148  C         22.1310 -129.1030  163.6140 C.2   229  ASN229      0.2266
    149  O         22.0460 -129.5030  162.4560 O.2   229  ASN229     -0.2867
    150  CB        22.5350 -126.6970  163.4050 C.3   229  ASN229      0.1155
    151  CG        23.3660 -125.4860  163.7410 C.2   229  ASN229      0.2627
    152  OD1       24.1360 -125.4830  164.6970 O.2   229  ASN229     -0.2716
    153  ND2       23.1920 -124.4300  162.9600 N.am  229  ASN229     -0.0877
    154  N         22.5530 -129.9010  159.6580 N.3   247  GLU247     -0.1245
    155  CA        23.3100 -129.0880  158.7210 C.3   247  GLU247      0.1567
    156  C         24.6370 -129.7540  158.3450 C.2   247  GLU247      0.2260
    157  O         25.3580 -129.2630  157.4620 O.2   247  GLU247     -0.2867
    158  CB        23.5030 -127.6760  159.2740 C.3   247  GLU247      0.0388
    159  CG        22.1760 -126.9340  159.4330 C.3   247  GLU247      0.1160
    160  CD        22.3350 -125.4760  159.8080 C.2   247  GLU247      0.3649
    161  OE1       21.5400 -124.9950  160.6430 O.co2 247  GLU247     -0.2457
    162  OE2       23.2370 -124.7980  159.2580 O.co2 247  GLU247     -0.2457
    163  N         22.8560 -129.1600  153.3450 N.3   271  ARG271     -0.1245
    164  CA        22.2200 -129.1180  154.6720 C.3   271  ARG271      0.1563
    165  C         20.7860 -129.6440  154.6780 C.2   271  ARG271      0.2260
    166  O         20.0100 -129.3470  153.7750 O.2   271  ARG271     -0.2867
    167  CB        22.2650 -127.7100  155.2510 C.3   271  ARG271      0.0307
    168  CG        23.6800 -127.1730  155.3760 C.3   271  ARG271      0.0489
    169  CD        23.6900 -125.7420  155.8380 C.3   271  ARG271      0.2205
    170  NE        23.2590 -124.8350  154.7820 N.pl3 271  ARG271     -0.0865
    171  CZ        23.0760 -123.5340  154.9620 C.cat 271  ARG271      0.5346
    172  NH1       23.2680 -122.9960  156.1610 N.pl3 271  ARG271      0.1354
    173  NH2       22.6830 -122.7810  153.9480 N.pl3 271  ARG271      0.1354
    174  N         17.0310 -129.7060  156.4290 N.3   273  TRP273     -0.1241
    175  CA        16.2070 -128.7230  157.1450 C.3   273  TRP273      0.1605
    176  C         14.8950 -129.2340  157.7170 C.2   273  TRP273      0.2264
    177  O         14.3930 -128.7010  158.6970 O.2   273  TRP273     -0.2867
    178  CB        15.8870 -127.5290  156.2340 C.3   273  TRP273      0.0550
    179  CG        17.0890 -126.8050  155.7800 C.ar  273  TRP273      0.0003
    180  CD1       17.6300 -126.8250  154.5250 C.ar  273  TRP273      0.0946
    181  CD2       17.9210 -125.9530  156.5690 C.ar  273  TRP273      0.0152
    182  NE1       18.7440 -126.0260  154.4840 N.ar  273  TRP273     -0.2442
    183  CE2       18.9610 -125.4970  155.7320 C.ar  273  TRP273      0.0810
    184  CE3       17.9080 -125.5560  157.9110 C.ar  273  TRP273      0.0012
    185  CZ2       19.9570 -124.6210  156.1810 C.ar  273  TRP273      0.0191
    186  CZ3       18.9040 -124.7010  158.3590 C.ar  273  TRP273      0.0001
    187  CH2       19.9130 -124.2370  157.4910 C.ar  273  TRP273      0.0015
@<TRIPOS>BOND
     1     1     2    1
     2    23    24    2
     3    23    22    1
     4     2     3    1
     5     2     5    1
     6    21    22    1
     7     3     4    2
     8    22    25    1
     9     5     6    1
    10    25    26    1
    11    28    26   ar
    12    28    30   ar
    13    26    27   ar
    14    11     9    1
    15    33    34    1
    16    33    39    1
    17    30    31   ar
    18     6     7    1
    19    34    35    1
    20    34    37    1
    21     9     8    2
    22     9    10    1
    23     8     7    1
    24    39    38    1
    25    35    36    2
    26    38    37    1
    27    27    29   ar
    28    12    13    1
    29    31    29   ar
    30    31    32    1
    31   163   164    1
    32   166   165    2
    33   173   171    1
    34    17    16    1
    35    17    18    1
    36    13    16    1
    37    13    14    1
    38   182   180   ar
    39   182   183   ar
    40   180   179   ar
    41   164   165    1
    42   164   167    1
    43    18    19    1
    44   170   171    2
    45   170   169    1
    46    40    41    1
    47   171   172    1
    48    14    15    2
    49    51    52    1
    50   167   168    1
    51   168   169    1
    52    55    52    1
    53    55    56    1
    54    53    52    1
    55    53    54    2
    56   183   185   ar
    57   183   181   ar
    58   179   178    1
    59   179   181   ar
    60    58    56   ar
    61    41    42    1
    62    41    44    1
    63    56    57   ar
    64   185   187   ar
    65    19    20    1
    66   178   175    1
    67    42    43    2
    68   174   175    1
    69   181   184   ar
    70    45    44    1
    71    45    46    1
    72    50    48    1
    73   175   176    1
    74    70    69    1
    75    48    47    2
    76    48    49    1
    77   157   156    2
    78   187   186   ar
    79    47    46    1
    80   176   177    2
    81   184   186   ar
    82    68    69   ar
    83    68    66   ar
    84    69    67   ar
    85   156   155    1
    86    66    64   ar
    87   155   158    1
    88   155   154    1
    89    67    65   ar
    90   162   160   ar
    91   158   159    1
    92   159   160    1
    93    64    65   ar
    94    64    63    1
    95   160   161   ar
    96    63    60    1
    97    60    61    1
    98    60    59    1
    99    74    73    2
   100    61    62    2
   101    80    79    1
   102    73    72    1
   103    71    72    1
   104    72    75    1
   105    79    81    1
   106    79    78    2
   107    77    78    1
   108    77    76    1
   109   149   148    2
   110    75    76    1
   111   153   151   am
   112   150   151    1
   113   150   147    1
   114   146   147    1
   115   148   147    1
   116   151   152    2
   117   110   109    1
   118   106   105    2
   119   100   102   ar
   120   100    98   ar
   121   109   108    1
   122   144   143   ar
   123   102   101   ar
   124    98    97   ar
   125   133   132    2
   126   105   104    1
   127   137   135   am
   128   134   135    1
   129   134   131    1
   130   135   136    2
   131   145   143   ar
   132   104   107    1
   133   104   103    1
   134   143   142    1
   135   107   108    1
   136   101    99   ar
   137    97    99   ar
   138    97    96    1
   139   132   131    1
   140   129   127    1
   141   131   130    1
   142    96    93    1
   143   142   139    1
   144   139   138    1
   145   139   140    1
   146   117   116    1
   147   127   128    1
   148   127   126    2
   149   141   140    2
   150    93    94    1
   151    93    92    1
   152   118   116    1
   153   116   115    1
   154    94    95    2
   155   126   125    1
   156    90    88   ar
   157    90    91   ar
   158    92    84   am
   159    88    87   ar
   160   115   112    1
   161   125   124    1
   162    91    89   ar
   163   122   121    2
   164    84    85    2
   165    84    83    1
   166   123   124    1
   167   123   120    1
   168   111   112    1
   169   112   113    1
   170    87    89   ar
   171    87    86    1
   172   121   120    1
   173    83    86    1
   174    83    82    1
   175   120   119    1
   176   113   114    2
