@<TRIPOS>MOLECULE
tmp/4j8fA00.pdb
 161 150 0 0 0
SMALL
GASTEIGER

@<TRIPOS>ATOM
      1  N         10.0190    0.6600    1.9820 N.3    11  ASP11      -0.1239
      2  CA        11.3970    0.4020    2.3730 C.3    11  ASP11       0.1674
      3  C         12.1670    1.7280    2.3130 C.2    11  ASP11       0.2266
      4  O         12.4640    2.2440    1.2300 O.2    11  ASP11      -0.2867
      5  CB        11.9980   -0.6710    1.4660 C.3    11  ASP11       0.1410
      6  CG        13.5040   -0.7040    1.5010 C.2    11  ASP11       0.3668
      7  OD1       14.1460   -0.0290    2.3570 O.co2  11  ASP11      -0.2456
      8  OD2       14.0470   -1.4200    0.6390 O.co2  11  ASP11      -0.2456
      9  N         15.3540    3.2350    2.5310 N.3    13  GLY13      -0.1210
     10  CA        16.7480    2.8280    2.4130 C.3    13  GLY13       0.1956
     11  C         17.7600    3.9410    2.5570 C.2    13  GLY13       0.2613
     12  O         17.4490    5.1250    2.3760 O.2    13  GLY13      -0.2717
     13  N         18.9870    3.5370    2.8950 N.am   14  THR14      -0.1938
     14  CA        20.1360    4.4220    3.0060 C.3    14  THR14       0.2028
     15  C         20.4460    5.0720    1.6620 C.2    14  THR14       0.2643
     16  O         20.7680    6.2700    1.5950 O.2    14  THR14      -0.2714
     17  CB        21.3590    3.6380    3.4760 C.3    14  THR14       0.1808
     18  OG1       20.9860    2.8290    4.5940 O.3    14  THR14      -0.2208
     19  CG2       22.4940    4.5770    3.8810 C.3    14  THR14       0.0379
     20  N         20.3390    4.2920    0.5900 N.am   15  THR15      -0.1936
     21  CA        20.7050    4.8000   -0.7200 C.3    15  THR15       0.2028
     22  C         19.5070    4.9270   -1.6670 C.2    15  THR15       0.2642
     23  O         19.4160    5.8880   -2.4340 O.2    15  THR15      -0.2714
     24  CB        21.8660    3.9830   -1.3510 C.3    15  THR15       0.1808
     25  OG1       21.4470    2.6250   -1.5590 O.3    15  THR15      -0.2208
     26  CG2       23.1050    4.0100   -0.4290 C.3    15  THR15       0.0379
     27  N         18.6050    3.9500   -1.6140 N.am   16  TYR16      -0.1973
     28  CA        17.3630    3.9730   -2.3760 C.3    16  TYR16       0.1639
     29  C         16.1900    3.6620   -1.4680 C.2    16  TYR16       0.2290
     30  O         16.3540    3.0380   -0.4190 O.2    16  TYR16      -0.2864
     31  CB        17.3830    2.9330   -3.4780 C.3    16  TYR16       0.0560
     32  CG        18.2240    3.2930   -4.6750 C.ar   16  TYR16      -0.0198
     33  CD1       17.6330    3.7860   -5.8590 C.ar   16  TYR16      -0.0009
     34  CD2       19.6060    3.1150   -4.6500 C.ar   16  TYR16      -0.0009
     35  CE1       18.4140    4.0910   -6.9750 C.ar   16  TYR16       0.0417
     36  CE2       20.3900    3.4170   -5.7510 C.ar   16  TYR16       0.0417
     37  CZ        19.8020    3.9010   -6.9060 C.ar   16  TYR16       0.1957
     38  OH        20.6240    4.1920   -7.9810 O.3    16  TYR16      -0.2866
     39  N         12.5590    1.8960   -7.8640 N.3    38  THR38      -0.1218
     40  CA        13.2570    2.3180   -6.6440 C.3    38  THR38       0.1862
     41  C         13.6800    3.7810   -6.8330 C.2    38  THR38       0.2287
     42  O         13.9660    4.1960   -7.9530 O.2    38  THR38      -0.2866
     43  CB        14.5520    1.4730   -6.3450 C.3    38  THR38       0.1770
     44  OG1       15.5340    1.7350   -7.3420 O.3    38  THR38      -0.2211
     45  CG2       14.2930   -0.0260   -6.3150 C.3    38  THR38       0.0375
     46  N         22.0220   -9.3760    3.0380 N.3   200  ASP200     -0.1239
     47  CA        21.5900   -8.0870    2.5030 C.3   200  ASP200      0.1674
     48  C         22.7700   -7.1960    2.0900 C.2   200  ASP200      0.2266
     49  O         23.4090   -6.5560    2.9360 O.2   200  ASP200     -0.2867
     50  CB        20.7040   -7.3640    3.5270 C.3   200  ASP200      0.1410
     51  CG        19.9990   -6.1330    2.9450 C.2   200  ASP200      0.3668
     52  OD1       20.5070   -5.5480    1.9500 O.co2 200  ASP200     -0.2456
     53  OD2       18.9280   -5.7540    3.4890 O.co2 200  ASP200     -0.2456
     54  N         23.3970   -3.9340    0.1060 N.3   202  GLY202     -0.1210
     55  CA        22.6940   -2.7930   -0.4680 C.3   202  GLY202      0.1956
     56  C         23.5970   -1.8310   -1.2040 C.2   202  GLY202      0.2612
     57  O         24.5350   -2.2430   -1.8830 O.2   202  GLY202     -0.2717
     58  N         23.3170   -0.5400   -1.0530 N.am  203  GLY203     -0.1942
     59  CA        24.1220    0.5160   -1.6730 C.3   203  GLY203      0.2014
     60  C         25.1860    1.0650   -0.7370 C.2   203  GLY203      0.2639
     61  O         26.3070    1.3720   -1.1590 O.2   203  GLY203     -0.2714
     62  N         24.8350    1.2020    0.5380 N.am  204  GLY204     -0.1939
     63  CA        25.7850    1.6950    1.5330 C.3   204  GLY204      0.2014
     64  C         26.2360    0.6600    2.5490 C.2   204  GLY204      0.2639
     65  O         27.3150    0.7990    3.1210 O.2   204  GLY204     -0.2714
     66  N         25.4190   -0.3710    2.7710 N.am  205  THR205     -0.1950
     67  CA        25.6200   -1.2930    3.8860 C.3   205  THR205      0.1897
     68  C         25.4980   -2.7620    3.5040 C.2   205  THR205      0.2313
     69  O         24.9060   -3.1310    2.4760 O.2   205  THR205     -0.2863
     70  CB        24.6080   -1.0680    5.0270 C.3   205  THR205      0.1794
     71  OG1       23.3050   -1.4580    4.5830 O.3   205  THR205     -0.2208
     72  CG2       24.5750    0.3730    5.4900 C.3   205  THR205      0.0378
     73  N         27.4600   -1.0010   -2.5780 N.3   231  GLY231     -0.1210
     74  CA        27.6040   -0.8150   -4.0140 C.3   231  GLY231      0.1956
     75  C         28.2750    0.4870   -4.3520 C.2   231  GLY231      0.2611
     76  O         28.9480    0.5950   -5.3770 O.2   231  GLY231     -0.2717
     77  N         28.1020    1.4810   -3.4900 N.am  232  GLU232     -0.1979
     78  CA        28.7060    2.7840   -3.7290 C.3   232  GLU232      0.1602
     79  C         30.2390    2.7170   -3.6500 C.2   232  GLU232      0.2287
     80  O         30.9340    3.5410   -4.2530 O.2   232  GLU232     -0.2864
     81  CB        28.1210    3.8420   -2.7840 C.3   232  GLU232      0.0415
     82  CG        28.1700    5.2950   -3.3040 C.3   232  GLU232      0.1163
     83  CD        27.1190    5.6150   -4.3750 C.2   232  GLU232      0.3649
     84  OE1       26.1570    4.8210   -4.5570 O.co2 232  GLU232     -0.2457
     85  OE2       27.2610    6.6810   -5.0310 O.co2 232  GLU232     -0.2457
     86  N         28.1630    3.5810  -12.6900 N.3   269  GLU269     -0.1245
     87  CA        27.0090    2.9950  -12.0520 C.3   269  GLU269      0.1567
     88  C         26.2570    2.1160  -13.0450 C.2   269  GLU269      0.2260
     89  O         25.8970    0.9840  -12.7360 O.2   269  GLU269     -0.2867
     90  CB        26.1060    4.0950  -11.5380 C.3   269  GLU269      0.0388
     91  CG        25.7250    3.9510  -10.0660 C.3   269  GLU269      0.1160
     92  CD        24.8800    2.7390   -9.7740 C.2   269  GLU269      0.3649
     93  OE1       23.9200    2.4790  -10.5260 O.co2 269  GLU269     -0.2457
     94  OE2       25.1790    2.0500   -8.7830 O.co2 269  GLU269     -0.2457
     95  N         28.3640   -1.0400  -14.1470 N.3   272  LYS272     -0.1231
     96  CA        28.3090   -2.0880  -13.1280 C.3   272  LYS272      0.1693
     97  C         26.9950   -2.8670  -13.2230 C.2   272  LYS272      0.2591
     98  O         26.9730   -4.0840  -13.0540 O.2   272  LYS272     -0.2718
     99  CB        28.5050   -1.5080  -11.7170 C.3   272  LYS272      0.0285
    100  CG        28.0860   -2.4500  -10.5780 C.3   272  LYS272      0.0035
    101  CD        28.1180   -1.7760   -9.2130 C.3   272  LYS272      0.0206
    102  CE        27.0430   -0.6980   -9.0810 C.3   272  LYS272      0.1093
    103  NZ        27.0180   -0.0430   -7.7300 N.3   272  LYS272     -0.1314
    104  N         25.9020   -2.1820  -13.5080 N.am  273  ARG273     -0.1980
    105  CA        24.6470   -2.8980  -13.6390 C.3   273  ARG273      0.1597
    106  C         24.6440   -3.8360  -14.8480 C.2   273  ARG273      0.2287
    107  O         24.2480   -4.9960  -14.7360 O.2   273  ARG273     -0.2864
    108  CB        23.4660   -1.9320  -13.6530 C.3   273  ARG273      0.0334
    109  CG        23.1430   -1.4180  -12.2650 C.3   273  ARG273      0.0492
    110  CD        22.5150   -0.0740  -12.3420 C.3   273  ARG273      0.2205
    111  NE        22.1100    0.4720  -11.0430 N.pl3 273  ARG273     -0.0865
    112  CZ        20.8680    0.4220  -10.5730 C.cat 273  ARG273      0.5346
    113  NH1       19.9210   -0.1880  -11.2700 N.pl3 273  ARG273      0.1354
    114  NH2       20.5780    0.9730   -9.4030 N.pl3 273  ARG273      0.1354
    115  N         26.2650   -7.2260  -14.4730 N.3   276  SER276     -0.1217
    116  CA        25.4690   -8.2950  -13.8750 C.3   276  SER276      0.1889
    117  C         24.8190   -9.2390  -14.8930 C.2   276  SER276      0.2288
    118  O         24.7790  -10.4480  -14.6820 O.2   276  SER276     -0.2866
    119  CB        24.4390   -7.7120  -12.9420 C.3   276  SER276      0.2089
    120  OG        25.1180   -7.1210  -11.8550 O.3   276  SER276     -0.2183
    121  N         18.8900   -6.9500   -1.2980 N.3   339  GLY339     -0.1210
    122  CA        19.8150   -5.8570   -1.5940 C.3   339  GLY339      0.1956
    123  C         20.1880   -5.8940   -3.0590 C.2   339  GLY339      0.2612
    124  O         20.3350   -6.9750   -3.6290 O.2   339  GLY339     -0.2717
    125  N         20.3460   -4.7230   -3.6690 N.am  340  GLY340     -0.1942
    126  CA        20.5730   -4.6270   -5.1140 C.3   340  GLY340      0.2014
    127  C         21.9210   -5.1230   -5.5920 C.2   340  GLY340      0.2639
    128  O         22.0760   -5.5120   -6.7510 O.2   340  GLY340     -0.2714
    129  N         22.9020   -5.1200   -4.6990 N.am  341  SER341     -0.1949
    130  CA        24.2270   -5.5520   -5.0710 C.3   341  SER341      0.1924
    131  C         24.3180   -7.0650   -5.1340 C.2   341  SER341      0.2314
    132  O         25.3100   -7.5880   -5.6320 O.2   341  SER341     -0.2863
    133  CB        25.2850   -4.9940   -4.1130 C.3   341  SER341      0.2116
    134  OG        25.3280   -3.5770   -4.1470 O.3   341  SER341     -0.2180
    135  N         22.8250   -8.7800   -6.9620 N.3   343  ARG343     -0.1231
    136  CA        22.6170   -9.0530   -8.3750 C.3   343  ARG343      0.1694
    137  C         23.9430   -9.4160   -9.0450 C.2   343  ARG343      0.2591
    138  O         23.9690   -9.8350  -10.1960 O.2   343  ARG343     -0.2718
    139  CB        21.9920   -7.8290   -9.0480 C.3   343  ARG343      0.0321
    140  CG        20.4920   -7.6840   -8.8300 C.3   343  ARG343      0.0489
    141  CD        19.7330   -8.2980  -10.0080 C.3   343  ARG343      0.2205
    142  NE        18.2860   -8.0580   -9.9800 N.pl3 343  ARG343     -0.0865
    143  CZ        17.7050   -6.9010  -10.2860 C.cat 343  ARG343      0.5346
    144  NH1       18.4400   -5.8480  -10.6260 N.pl3 343  ARG343      0.1354
    145  NH2       16.3860   -6.7870  -10.2360 N.pl3 343  ARG343      0.1354
    146  N         25.0420   -9.2680   -8.3110 N.am  344  ILE344     -0.1980
    147  CA        26.3660   -9.4480   -8.8760 C.3   344  ILE344      0.1595
    148  C         26.7390  -10.9160   -8.8070 C.2   344  ILE344      0.2287
    149  O         26.9010  -11.4580   -7.7190 O.2   344  ILE344     -0.2864
    150  CB        27.4160   -8.5940   -8.1480 C.3   344  ILE344      0.0276
    151  CG1       27.0510   -7.1120   -8.2540 C.3   344  ILE344      0.0022
    152  CG2       28.8070   -8.8480   -8.7290 C.3   344  ILE344      0.0022
    153  CD1       27.8130   -6.2160   -7.2970 C.3   344  ILE344      0.0001
    154  N         16.1730   -6.1420   -4.7680 N.3   367  ASP367     -0.1239
    155  CA        16.0050   -4.7630   -4.2940 C.3   367  ASP367      0.1674
    156  C         14.5490   -4.3880   -4.0000 C.2   367  ASP367      0.2266
    157  O         14.2410   -3.2570   -3.5970 O.2   367  ASP367     -0.2867
    158  CB        16.6380   -3.7550   -5.2590 C.3   367  ASP367      0.1410
    159  CG        16.2420   -3.9770   -6.7050 C.2   367  ASP367      0.3668
    160  OD1       15.3380   -4.7910   -6.9940 O.co2 367  ASP367     -0.2456
    161  OD2       16.8700   -3.3290   -7.5720 O.co2 367  ASP367     -0.2456
@<TRIPOS>BOND
     1   117   118    2
     2   117   116    1
     3   106   107    2
     4   106   105    1
     5   115   116    1
     6    95    96    1
     7   116   119    1
     8   108   105    1
     9   108   109    1
    10   105   104    1
    11   104    97   am
    12    97    96    1
    13    97    98    2
    14    96    99    1
    15    88    89    2
    16    88    87    1
    17   119   120    1
    18    86    87    1
    19   110   109    1
    20   110   111    1
    21    87    90    1
    22    99   100    1
    23    90    91    1
    24   113   112    1
    25   111   112    2
    26   144   143    1
    27   100   101    1
    28   112   114    1
    29    93    92   ar
    30   143   145    1
    31   143   142    2
    32   138   137    2
    33    91    92    1
    34   141   142    1
    35   141   140    1
    36    92    94   ar
    37   101   102    1
    38   102   103    1
    39   139   140    1
    40   139   136    1
    41   137   136    1
    42   137   146   am
    43   147   148    1
    44   147   146    1
    45   147   150    1
    46   148   149    2
    47   152   150    1
    48   136   135    1
    49   151   150    1
    50   151   153    1
    51    38    37    1
    52    42    41    2
    53    39    40    1
    54   161   159   ar
    55    44    43    1
    56   160   159   ar
    57    35    37   ar
    58    35    33   ar
    59    37    36   ar
    60    41    40    1
    61   128   127    2
    62   159   158    1
    63    40    43    1
    64    43    45    1
    65    33    32   ar
    66    36    34   ar
    67   132   131    2
    68   127   126    1
    69   127   129   am
    70    76    75    2
    71   158   155    1
    72   131   130    1
    73   126   125    1
    74   130   129    1
    75   130   133    1
    76    85    83   ar
    77   154   155    1
    78    32    34   ar
    79    32    31    1
    80    84    83   ar
    81    83    82    1
    82    75    74    1
    83    75    77   am
    84   155   156    1
    85    80    79    2
    86   134   133    1
    87    74    73    1
    88   156   157    2
    89    78    79    1
    90    78    77    1
    91    78    81    1
    92   125   123   am
    93   124   123    2
    94    31    28    1
    95    82    81    1
    96   123   122    1
    97    23    22    2
    98    28    27    1
    99    28    29    1
   100    57    56    2
   101    59    58    1
   102    59    60    1
   103    22    27   am
   104    22    21    1
   105   122   121    1
   106    25    24    1
   107    29    30    2
   108    24    21    1
   109    24    26    1
   110    56    58   am
   111    56    55    1
   112    61    60    2
   113    60    62   am
   114    21    20    1
   115    55    54    1
   116    62    63    1
   117    20    15   am
   118     8     6   ar
   119     4     3    2
   120     5     6    1
   121     5     2    1
   122     6     7   ar
   123    63    64    1
   124    16    15    2
   125    15    14    1
   126    52    51   ar
   127     1     2    1
   128    48    47    1
   129    48    49    2
   130     3     2    1
   131    12    11    2
   132    10     9    1
   133    10    11    1
   134    69    68    2
   135    47    46    1
   136    47    50    1
   137    64    66   am
   138    64    65    2
   139    11    13   am
   140    66    67    1
   141    13    14    1
   142    51    53   ar
   143    51    50    1
   144    14    17    1
   145    17    19    1
   146    17    18    1
   147    68    67    1
   148    67    70    1
   149    71    70    1
   150    70    72    1
