@<TRIPOS>MOLECULE
tmp/4j8gA00.pdb
 183 173 0 0 0
SMALL
GASTEIGER

@<TRIPOS>ATOM
      1  N         -1.6650    3.0550  -35.0470 N.3    13  ARG13      -0.1245
      2  CA        -2.3510    4.3200  -34.8060 C.3    13  ARG13       0.1563
      3  C         -3.6990    4.1300  -34.1100 C.2    13  ARG13       0.2260
      4  O         -4.5070    3.2960  -34.5220 O.2    13  ARG13      -0.2867
      5  CB        -2.5400    5.0550  -36.1390 C.3    13  ARG13       0.0307
      6  CG        -3.3670    6.3120  -36.0340 C.3    13  ARG13       0.0489
      7  CD        -3.5100    6.9640  -37.3800 C.3    13  ARG13       0.2205
      8  NE        -2.2100    7.0440  -38.0430 N.pl3  13  ARG13      -0.0865
      9  CZ        -2.0350    6.9600  -39.3600 C.cat  13  ARG13       0.5346
     10  NH1       -3.0770    6.8090  -40.1760 N.pl3  13  ARG13       0.1354
     11  NH2       -0.8120    7.0350  -39.8590 N.pl3  13  ARG13       0.1354
     12  N         -7.3060    6.0560  -32.9830 N.3    15  LYS15      -0.1245
     13  CA        -8.0980    7.2140  -33.4240 C.3    15  LYS15       0.1561
     14  C         -9.0910    7.7120  -32.3790 C.2    15  LYS15       0.2260
     15  O         -9.4040    8.8960  -32.3440 O.2    15  LYS15      -0.2867
     16  CB        -8.8690    6.8670  -34.7060 C.3    15  LYS15       0.0271
     17  CG        -8.0240    6.2530  -35.8210 C.3    15  LYS15       0.0035
     18  CD        -7.0410    7.2520  -36.4000 C.3    15  LYS15       0.0206
     19  CE        -7.6850    8.6100  -36.7130 C.3    15  LYS15       0.1093
     20  NZ        -6.6660    9.4420  -37.4480 N.3    15  LYS15      -0.1314
     21  N         -6.9510    2.4240  -36.0650 N.3    31  HIS31      -0.1241
     22  CA        -6.9910    2.6540  -37.5040 C.3    31  HIS31       0.1621
     23  C         -7.0680    1.3200  -38.2480 C.2    31  HIS31       0.2264
     24  O         -7.5650    1.2650  -39.3830 O.2    31  HIS31      -0.2867
     25  CB        -5.7440    3.4660  -37.9330 C.3    31  HIS31       0.0745
     26  CG        -5.8410    4.0440  -39.3130 C.ar   31  HIS31       0.0817
     27  ND1       -5.2910    3.4320  -40.4210 N.ar   31  HIS31      -0.2268
     28  CD2       -6.4190    5.1860  -39.7640 C.ar   31  HIS31       0.1154
     29  CE1       -5.5340    4.1660  -41.4960 C.ar   31  HIS31       0.1986
     30  NE2       -6.2180    5.2390  -41.1240 N.ar   31  HIS31      -0.2212
     31  N        -10.6300    1.5710  -40.5100 N.3    55  PRO55      -0.2116
     32  CA       -10.5480    2.3660  -39.2860 C.3    55  PRO55       0.1372
     33  C        -11.8700    2.5140  -38.5150 C.2    55  PRO55       0.2244
     34  O        -12.9830    2.5240  -39.0860 O.2    55  PRO55      -0.2868
     35  CB       -10.0370    3.7230  -39.7890 C.3    55  PRO55       0.0268
     36  CG        -9.2520    3.3860  -41.0170 C.3    55  PRO55       0.0207
     37  CD        -9.9790    2.2270  -41.6590 C.3    55  PRO55       0.0892
     38  N        -13.2260    5.2320  -35.9440 N.3    57  ARG57      -0.1245
     39  CA       -12.8780    6.5770  -35.4780 C.3    57  ARG57       0.1563
     40  C        -13.7240    7.0170  -34.3050 C.2    57  ARG57       0.2260
     41  O        -13.2850    7.8290  -33.4850 O.2    57  ARG57      -0.2867
     42  CB       -13.0610    7.5840  -36.6260 C.3    57  ARG57       0.0307
     43  CG       -12.0650    7.3560  -37.7820 C.3    57  ARG57       0.0489
     44  CD       -12.4030    8.1980  -39.0370 C.3    57  ARG57       0.2205
     45  NE       -11.6950    7.6590  -40.2020 N.pl3  57  ARG57      -0.0865
     46  CZ       -10.4260    7.9320  -40.4990 C.cat  57  ARG57       0.5346
     47  NH1       -9.7250    8.7690  -39.7480 N.pl3  57  ARG57       0.1354
     48  NH2       -9.8570    7.3850  -41.5660 N.pl3  57  ARG57       0.1354
     49  N        -20.8910    7.1130  -45.9290 N.3    96  ASP96      -0.1225
     50  CA       -19.4510    7.3510  -46.0190 C.3    96  ASP96       0.1805
     51  C        -18.9020    7.2270  -44.5810 C.2    96  ASP96       0.2597
     52  O        -19.6880    6.9080  -43.6450 O.2    96  ASP96      -0.2718
     53  CB       -19.1800    8.7280  -46.6560 C.3    96  ASP96       0.1424
     54  CG       -17.8040    8.8280  -47.2870 C.2    96  ASP96       0.3668
     55  OD1      -16.9070    8.0260  -46.9450 O.co2  96  ASP96      -0.2456
     56  OD2      -17.5910    9.7320  -48.1200 O.co2  96  ASP96      -0.2456
     57  N        -17.6010    7.4580  -44.3940 N.am   97  TYR97      -0.1976
     58  CA       -16.9540    7.2240  -43.0910 C.3    97  TYR97       0.1639
     59  C        -17.6750    7.8790  -41.9200 C.2    97  TYR97       0.2290
     60  O        -18.0190    9.0500  -41.9820 O.2    97  TYR97      -0.2864
     61  CB       -15.5360    7.8080  -43.0510 C.3    97  TYR97       0.0560
     62  CG       -14.4960    7.1910  -43.9670 C.ar   97  TYR97      -0.0198
     63  CD1      -14.8240    6.2150  -44.9020 C.ar   97  TYR97      -0.0009
     64  CD2      -13.1820    7.6180  -43.9040 C.ar   97  TYR97      -0.0009
     65  CE1      -13.8560    5.6670  -45.7500 C.ar   97  TYR97       0.0417
     66  CE2      -12.2070    7.0690  -44.7340 C.ar   97  TYR97       0.0417
     67  CZ       -12.5520    6.1080  -45.6500 C.ar   97  TYR97       0.1957
     68  OH       -11.5800    5.5890  -46.4810 O.3    97  TYR97      -0.2866
     69  N        -17.3380    9.6370  -38.4040 N.3    99  ARG99      -0.1245
     70  CA       -16.2140   10.3340  -37.7700 C.3    99  ARG99       0.1563
     71  C        -16.3180   10.3070  -36.2580 C.2    99  ARG99       0.2260
     72  O        -15.3000   10.1570  -35.5930 O.2    99  ARG99      -0.2867
     73  CB       -16.1290   11.7820  -38.2550 C.3    99  ARG99       0.0307
     74  CG       -15.6540   11.8550  -39.7310 C.3    99  ARG99       0.0489
     75  CD       -14.1260   11.7190  -39.8500 C.3    99  ARG99       0.2205
     76  NE       -13.7330   11.6100  -41.2570 N.pl3  99  ARG99      -0.0865
     77  CZ       -12.4820   11.4610  -41.6800 C.cat  99  ARG99       0.5346
     78  NH1      -11.4820   11.4210  -40.8040 N.pl3  99  ARG99       0.1354
     79  NH2      -12.2380   11.3480  -42.9820 N.pl3  99  ARG99       0.1354
     80  N        -18.5610   11.6760  -43.1730 N.3   115  ASP115     -0.1239
     81  CA       -18.1050   12.2090  -44.4480 C.3   115  ASP115      0.1674
     82  C        -19.2490   12.3410  -45.4700 C.2   115  ASP115      0.2266
     83  O        -19.0870   13.0170  -46.4820 O.2   115  ASP115     -0.2867
     84  CB       -17.0110   11.2910  -45.0140 C.3   115  ASP115      0.1410
     85  CG       -15.7040   11.4270  -44.2550 C.2   115  ASP115      0.3668
     86  OD1      -15.7230   12.1340  -43.2180 O.co2 115  ASP115     -0.2456
     87  OD2      -14.6640   10.8460  -44.6710 O.co2 115  ASP115     -0.2456
     88  N        -19.5470   19.6050  -46.7650 N.3   138  HIS138     -0.1226
     89  CA       -18.3400   18.7910  -46.8330 C.3   138  HIS138      0.1752
     90  C        -18.4540   17.8860  -45.6330 C.2   138  HIS138      0.2596
     91  O        -19.4750   17.9450  -44.9420 O.2   138  HIS138     -0.2718
     92  CB       -17.0920   19.7030  -46.7640 C.3   138  HIS138      0.0759
     93  CG       -15.8560   19.1030  -47.3740 C.ar  138  HIS138      0.0818
     94  ND1      -15.3200   17.9070  -46.9490 N.ar  138  HIS138     -0.2268
     95  CD2      -15.0470   19.5410  -48.3690 C.ar  138  HIS138      0.1154
     96  CE1      -14.2230   17.6410  -47.6420 C.ar  138  HIS138      0.1986
     97  NE2      -14.0470   18.6070  -48.5300 N.ar  138  HIS138     -0.2212
     98  N        -17.4380   17.0680  -45.3610 N.am  139  TYR139     -0.1976
     99  CA       -17.4920   16.0720  -44.2950 C.3   139  TYR139      0.1639
    100  C        -17.8010   16.7360  -42.9920 C.2   139  TYR139      0.2290
    101  O        -17.2870   17.8260  -42.7020 O.2   139  TYR139     -0.2864
    102  CB       -16.1200   15.4530  -44.0210 C.3   139  TYR139      0.0560
    103  CG       -15.4100   14.8060  -45.1760 C.ar  139  TYR139     -0.0198
    104  CD1      -14.0580   14.5160  -45.0720 C.ar  139  TYR139     -0.0009
    105  CD2      -16.0730   14.4760  -46.3680 C.ar  139  TYR139     -0.0009
    106  CE1      -13.3750   13.9170  -46.1080 C.ar  139  TYR139      0.0417
    107  CE2      -15.3910   13.8700  -47.4140 C.ar  139  TYR139      0.0417
    108  CZ       -14.0390   13.6050  -47.2710 C.ar  139  TYR139      0.1957
    109  OH       -13.3270   13.0080  -48.2810 O.3   139  TYR139     -0.2866
    110  N        -16.8320   16.4940  -39.4020 N.3   141  MET141     -0.1245
    111  CA       -15.7350   15.8370  -38.7030 C.3   141  MET141      0.1570
    112  C        -16.0220   15.6060  -37.2210 C.2   141  MET141      0.2261
    113  O        -15.3000   14.8450  -36.5510 O.2   141  MET141     -0.2867
    114  CB       -14.4620   16.6850  -38.8440 C.3   141  MET141      0.0387
    115  CG       -14.0690   16.9180  -40.3030 C.3   141  MET141      0.0595
    116  SD       -13.3300   15.4190  -40.9340 S.3   141  MET141     -0.1393
    117  CE       -11.7940   15.3370  -40.0070 C.3   141  MET141      0.0692
    118  N        -15.3360   20.2920  -42.6550 N.3   157  LEU157     -0.1245
    119  CA       -14.3220   20.7660  -43.5680 C.3   157  LEU157      0.1561
    120  C        -14.8750   21.8420  -44.5080 C.2   157  LEU157      0.2260
    121  O        -14.1210   22.4200  -45.2820 O.2   157  LEU157     -0.2867
    122  CB       -13.6850   19.6010  -44.3460 C.3   157  LEU157      0.0270
    123  CG       -12.9870   18.5450  -43.4670 C.3   157  LEU157      0.0019
    124  CD1      -12.3060   17.4450  -44.3010 C.3   157  LEU157      0.0001
    125  CD2      -12.0140   19.1990  -42.4840 C.3   157  LEU157      0.0001
    126  N        -12.0190   20.5460  -37.5890 N.3   187  ASN187     -0.1240
    127  CA       -11.8640   19.1360  -37.2910 C.3   187  ASN187      0.1653
    128  C        -12.6050   18.7270  -36.0570 C.2   187  ASN187      0.2266
    129  O        -12.9020   17.5480  -35.9020 O.2   187  ASN187     -0.2867
    130  CB       -10.3900   18.8000  -37.0870 C.3   187  ASN187      0.1155
    131  CG        -9.5990   18.9550  -38.3470 C.2   187  ASN187      0.2627
    132  OD1      -10.0560   18.5350  -39.4330 O.2   187  ASN187     -0.2716
    133  ND2       -8.4080   19.5850  -38.2400 N.am  187  ASN187     -0.0877
    134  N         -7.8650   22.9370  -39.4750 N.3   203  ASP203     -0.1239
    135  CA        -6.6690   22.8010  -40.3000 C.3   203  ASP203      0.1674
    136  C         -6.0050   24.1490  -40.5120 C.2   203  ASP203      0.2266
    137  O         -5.0130   24.2350  -41.2410 O.2   203  ASP203     -0.2867
    138  CB        -7.0010   22.2270  -41.6870 C.3   203  ASP203      0.1410
    139  CG        -7.3650   20.7640  -41.6580 C.2   203  ASP203      0.3668
    140  OD1       -7.0660   20.0670  -40.6650 O.co2 203  ASP203     -0.2456
    141  OD2       -7.9540   20.3050  -42.6560 O.co2 203  ASP203     -0.2456
    142  N         -2.2320   20.8410  -38.3950 N.3   229  ASN229     -0.1240
    143  CA        -3.6580   20.6920  -38.1750 C.3   229  ASN229      0.1653
    144  C         -3.9690   20.3730  -36.7240 C.2   229  ASN229      0.2266
    145  O         -3.3550   19.4770  -36.1430 O.2   229  ASN229     -0.2867
    146  CB        -4.2160   19.5590  -39.0320 C.3   229  ASN229      0.1155
    147  CG        -4.0510   19.8120  -40.5140 C.2   229  ASN229      0.2627
    148  OD1       -4.0090   20.9630  -40.9660 O.2   229  ASN229     -0.2716
    149  ND2       -3.9460   18.7410  -41.2780 N.am  229  ASN229     -0.0877
    150  N         -1.6650   17.3540  -35.0670 N.3   247  GLU247     -0.1245
    151  CA        -0.7060   16.6180  -35.8790 C.3   247  GLU247      0.1567
    152  C          0.7070   17.1940  -35.7760 C.2   247  GLU247      0.2260
    153  O          1.6370   16.6030  -36.3270 O.2   247  GLU247     -0.2867
    154  CB        -1.1320   16.6340  -37.3480 C.3   247  GLU247      0.0388
    155  CG        -2.4060   15.8620  -37.5960 C.3   247  GLU247      0.1160
    156  CD        -2.8270   15.8680  -39.0620 C.2   247  GLU247      0.3649
    157  OE1       -2.0220   15.4170  -39.9070 O.co2 247  GLU247     -0.2457
    158  OE2       -3.9730   16.3050  -39.3560 O.co2 247  GLU247     -0.2457
    159  N          1.8990   11.8090  -34.2620 N.3   271  ARG271     -0.1245
    160  CA         0.8550   12.8220  -34.4160 C.3   271  ARG271      0.1563
    161  C         -0.2340   12.5100  -33.4050 C.2   271  ARG271      0.2260
    162  O         -0.4660   11.3400  -33.1120 O.2   271  ARG271     -0.2867
    163  CB         0.2590   12.7930  -35.8330 C.3   271  ARG271      0.0307
    164  CG         1.2040   13.4130  -36.9100 C.3   271  ARG271      0.0489
    165  CD         0.8230   12.9760  -38.3100 C.3   271  ARG271      0.2205
    166  NE         0.9940   11.5340  -38.4280 N.pl3 271  ARG271     -0.0865
    167  CZ         0.6470   10.8090  -39.4910 C.cat 271  ARG271      0.5346
    168  NH1        0.1100   11.3910  -40.5650 N.pl3 271  ARG271      0.1354
    169  NH2        0.8380    9.4890  -39.4730 N.pl3 271  ARG271      0.1354
    170  N         -4.3180   12.5220  -32.4860 N.3   273  TRP273     -0.1241
    171  CA        -5.5740   12.4890  -33.2020 C.3   273  TRP273      0.1605
    172  C         -6.7640   12.8440  -32.3380 C.2   273  TRP273      0.2264
    173  O         -7.8220   13.2570  -32.8620 O.2   273  TRP273     -0.2867
    174  CB        -5.7770   11.0940  -33.8190 C.3   273  TRP273      0.0550
    175  CG        -4.6900   10.7530  -34.7830 C.ar  273  TRP273      0.0003
    176  CD1       -3.6890    9.8130  -34.6250 C.ar  273  TRP273      0.0946
    177  CD2       -4.4600   11.3800  -36.0510 C.ar  273  TRP273      0.0152
    178  NE1       -2.8470    9.8400  -35.7330 N.ar  273  TRP273     -0.2442
    179  CE2       -3.3140   10.7810  -36.6200 C.ar  273  TRP273      0.0810
    180  CE3       -5.1210   12.3920  -36.7610 C.ar  273  TRP273      0.0012
    181  CZ2       -2.8090   11.1670  -37.8700 C.ar  273  TRP273      0.0191
    182  CZ3       -4.6190   12.7740  -38.0050 C.ar  273  TRP273      0.0001
    183  CH2       -3.4740   12.1640  -38.5410 C.ar  273  TRP273      0.0015
@<TRIPOS>BOND
     1    97    95   ar
     2    97    96   ar
     3    95    93   ar
     4   109   108    1
     5    56    54   ar
     6    96    94   ar
     7   107   108   ar
     8   107   105   ar
     9    93    94   ar
    10    93    92    1
    11    54    55   ar
    12    54    53    1
    13   108   106   ar
    14    89    88    1
    15    89    92    1
    16    89    90    1
    17    53    50    1
    18    83    82    2
    19    68    67    1
    20   105   103   ar
    21   106   104   ar
    22    50    49    1
    23    50    51    1
    24    65    67   ar
    25    65    63   ar
    26    67    66   ar
    27    90    98   am
    28    90    91    2
    29    82    81    1
    30    98    99    1
    31   121   120    2
    32   103   104   ar
    33   103   102    1
    34    84    81    1
    35    84    85    1
    36    63    62   ar
    37    66    64   ar
    38    87    85   ar
    39    51    57   am
    40    51    52    2
    41   120   119    1
    42    81    80    1
    43    57    58    1
    44   122   119    1
    45   122   123    1
    46   124   123    1
    47    99   102    1
    48    99   100    1
    49    85    86   ar
    50    62    64   ar
    51    62    61    1
    52   119   118    1
    53   123   125    1
    54    58    61    1
    55    58    59    1
    56   100   101    2
    57    79    77    1
    58   141   139   ar
    59    60    59    2
    60   138   139    1
    61   138   135    1
    62    77    76    2
    63    77    78    1
    64    37    36    1
    65    37    31    1
    66   139   140   ar
    67    48    46    1
    68    29    30   ar
    69    29    27   ar
    70   149   147   am
    71    76    75    1
    72   137   136    2
    73    30    28   ar
    74    36    35    1
    75   148   147    2
    76   116   115    1
    77   116   117    1
    78   168   167    1
    79   147   146    1
    80   136   135    1
    81    31    32    1
    82    46    45    2
    83    46    47    1
    84    27    26   ar
    85   115   114    1
    86   135   134    1
    87    45    44    1
    88    10     9    1
    89   157   156   ar
    90    11     9    1
    91    75    74    1
    92    35    32    1
    93    28    26   ar
    94    74    73    1
    95   167   169    1
    96   167   166    2
    97   132   131    2
    98   110   111    1
    99    24    23    2
   100     9     8    2
   101   158   156   ar
   102    26    25    1
   103    32    33    1
   104    34    33    2
   105   156   155    1
   106    44    43    1
   107   146   143    1
   108   114   111    1
   109   111   112    1
   110   183   182   ar
   111   183   181   ar
   112   166   165    1
   113    69    70    1
   114   142   143    1
   115   131   133   am
   116   131   130    1
   117   165   164    1
   118    73    70    1
   119    23    22    1
   120   143   144    1
   121     8     7    1
   122   182   180   ar
   123    25    22    1
   124   181   179   ar
   125    43    42    1
   126    70    71    1
   127   155   154    1
   128   126   127    1
   129    22    21    1
   130    20    19    1
   131     7     6    1
   132   154   151    1
   133   127   130    1
   134   127   128    1
   135   112   113    2
   136   164   163    1
   137   180   177   ar
   138   144   145    2
   139    19    18    1
   140    42    39    1
   141   179   177   ar
   142   179   178   ar
   143    18    17    1
   144   153   152    2
   145    71    72    2
   146     5     6    1
   147     5     2    1
   148   128   129    2
   149   177   175   ar
   150    38    39    1
   151   151   152    1
   152   151   150    1
   153   163   160    1
   154    17    16    1
   155   178   176   ar
   156    39    40    1
   157     1     2    1
   158     2     3    1
   159   175   176   ar
   160   175   174    1
   161    16    13    1
   162     4     3    2
   163   160   159    1
   164   160   161    1
   165    40    41    2
   166   174   171    1
   167    13    12    1
   168    13    14    1
   169   161   162    2
   170   171   170    1
   171   171   172    1
   172   173   172    2
   173    14    15    2
