@<TRIPOS>MOLECULE
tmp/4j8lA00.pdb
 102 96 0 0 0
SMALL
GASTEIGER

@<TRIPOS>ATOM
      1  N         26.8590   30.0320   49.2580 N.3   100  TYR100     -0.1241
      2  CA        27.7300   30.9940   49.9360 C.3   100  TYR100      0.1605
      3  C         27.8590   30.5850   51.4040 C.2   100  TYR100      0.2264
      4  O         26.8680   30.2250   52.0250 O.2   100  TYR100     -0.2867
      5  CB        27.1880   32.4280   49.8190 C.3   100  TYR100      0.0534
      6  CG        28.2060   33.3920   50.3670 C.ar  100  TYR100     -0.0201
      7  CD1       29.2620   33.8240   49.5830 C.ar  100  TYR100     -0.0009
      8  CD2       28.1460   33.8140   51.6920 C.ar  100  TYR100     -0.0009
      9  CE1       30.2290   34.6830   50.0940 C.ar  100  TYR100      0.0417
     10  CE2       29.1100   34.6590   52.2160 C.ar  100  TYR100      0.0417
     11  CZ        30.1460   35.0900   51.4080 C.ar  100  TYR100      0.1957
     12  OH        31.1070   35.9270   51.9200 O.3   100  TYR100     -0.2866
     13  N         28.1700   42.2840   45.2970 N.3   171  TYR171     -0.1241
     14  CA        29.1920   42.5070   44.2640 C.3   171  TYR171      0.1605
     15  C         28.5890   42.7570   42.8780 C.2   171  TYR171      0.2264
     16  O         29.3110   42.9050   41.8970 O.2   171  TYR171     -0.2867
     17  CB        30.1850   41.3480   44.1860 C.3   171  TYR171      0.0534
     18  CG        31.1450   41.1920   45.3410 C.ar  171  TYR171     -0.0201
     19  CD1       31.7780   42.2870   45.9230 C.ar  171  TYR171     -0.0009
     20  CD2       31.4680   39.9260   45.8180 C.ar  171  TYR171     -0.0009
     21  CE1       32.6870   42.1160   46.9610 C.ar  171  TYR171      0.0417
     22  CE2       32.3580   39.7500   46.8460 C.ar  171  TYR171      0.0417
     23  CZ        32.9760   40.8450   47.4180 C.ar  171  TYR171      0.1957
     24  OH        33.8800   40.6460   48.4450 O.3   171  TYR171     -0.2866
     25  N         34.4080   35.8930   40.2420 N.3   271  ALA271     -0.1231
     26  CA        34.9770   34.9370   41.1840 C.3   271  ALA271      0.1694
     27  C         35.1940   35.5260   42.5830 C.2   271  ALA271      0.2592
     28  O         36.3280   35.6450   43.0270 O.2   271  ALA271     -0.2718
     29  CB        36.3000   34.4020   40.6270 C.3   271  ALA271      0.0304
     30  N         34.1270   35.9110   43.2810 N.am  272  GLN272     -0.1966
     31  CA        32.7630   35.8890   42.7640 C.3   272  GLN272      0.1733
     32  C         32.4280   37.2680   42.2020 C.2   272  GLN272      0.2617
     33  O         31.5620   37.3980   41.3420 O.2   272  GLN272     -0.2715
     34  CB        31.7800   35.4610   43.8530 C.3   272  GLN272      0.0408
     35  CG        32.0860   34.0600   44.3860 C.3   272  GLN272      0.0908
     36  CD        30.9650   33.4840   45.2260 C.2   272  GLN272      0.2608
     37  OE1       30.2990   34.1990   45.9690 O.2   272  GLN272     -0.2717
     38  NE2       30.7530   32.1730   45.1130 N.am  272  GLN272     -0.0878
     39  N         33.1270   38.2940   42.6820 N.am  273  SER273     -0.1950
     40  CA        33.0400   39.6050   42.0550 C.3   273  SER273      0.1924
     41  C         33.8330   39.5430   40.7590 C.2   273  SER273      0.2314
     42  O         34.6790   38.6700   40.5910 O.2   273  SER273     -0.2863
     43  CB        33.6010   40.7010   42.9700 C.3   273  SER273      0.2116
     44  OG        33.3000   41.9950   42.4540 O.3   273  SER273     -0.2180
     45  N         36.6140   40.0330   38.4360 N.3   275  VAL275     -0.1245
     46  CA        38.0390   40.2460   38.6660 C.3   275  VAL275      0.1561
     47  C         38.8390   39.5460   37.5700 C.2   275  VAL275      0.2260
     48  O         38.2730   38.8550   36.7160 O.2   275  VAL275     -0.2867
     49  CB        38.4930   39.6350   40.0180 C.3   275  VAL275      0.0252
     50  CG1       37.8070   40.3350   41.1830 C.3   275  VAL275      0.0019
     51  CG2       38.2160   38.1360   40.0470 C.3   275  VAL275      0.0019
     52  N         41.3810   40.7020   51.5660 N.3   301  PRO301     -0.2116
     53  CA        40.2880   41.6690   51.4500 C.3   301  PRO301      0.1372
     54  C         39.7490   42.1380   52.7920 C.2   301  PRO301      0.2244
     55  O         40.0630   41.5730   53.8500 O.2   301  PRO301     -0.2868
     56  CB        39.2080   40.8660   50.7200 C.3   301  PRO301      0.0268
     57  CG        39.4290   39.4520   51.2060 C.3   301  PRO301      0.0207
     58  CD        40.9370   39.3240   51.2900 C.3   301  PRO301      0.0892
     59  N         34.8450   42.5690   50.4580 N.3   304  ALA304     -0.1245
     60  CA        35.7950   43.4040   49.7270 C.3   304  ALA304      0.1562
     61  C         35.1110   44.6010   49.0760 C.2   304  ALA304      0.2260
     62  O         33.9330   44.8430   49.3100 O.2   304  ALA304     -0.2867
     63  CB        36.5000   42.5690   48.6700 C.3   304  ALA304      0.0290
     64  N         43.9540   44.5120   44.8240 N.3   313  LEU313     -0.1245
     65  CA        44.0890   43.2920   45.6100 C.3   313  LEU313      0.1561
     66  C         44.7030   42.2050   44.7280 C.2   313  LEU313      0.2260
     67  O         44.1710   41.9200   43.6600 O.2   313  LEU313     -0.2867
     68  CB        42.7170   42.8340   46.0960 C.3   313  LEU313      0.0270
     69  CG        42.5620   41.4560   46.7510 C.3   313  LEU313      0.0019
     70  CD1       43.1880   41.4270   48.1380 C.3   313  LEU313      0.0001
     71  CD2       41.0760   41.1190   46.8190 C.3   313  LEU313      0.0001
     72  N         45.4690   38.3020   45.2740 N.3   315  TYR315     -0.1241
     73  CA        44.9580   37.3790   46.2820 C.3   315  TYR315      0.1605
     74  C         44.9780   35.9440   45.7700 C.2   315  TYR315      0.2264
     75  O         45.0170   35.7060   44.5650 O.2   315  TYR315     -0.2867
     76  CB        43.5100   37.7620   46.6390 C.3   315  TYR315      0.0534
     77  CG        42.9900   37.2380   47.9630 C.ar  315  TYR315     -0.0201
     78  CD1       43.8000   37.2250   49.0980 C.ar  315  TYR315     -0.0009
     79  CD2       41.6840   36.7820   48.0860 C.ar  315  TYR315     -0.0009
     80  CE1       43.3240   36.7520   50.3170 C.ar  315  TYR315      0.0417
     81  CE2       41.1980   36.3050   49.2960 C.ar  315  TYR315      0.0417
     82  CZ        42.0230   36.2950   50.4100 C.ar  315  TYR315      0.1957
     83  OH        41.5480   35.8360   51.6220 O.3   315  TYR315     -0.2866
     84  N         44.0860   35.7500   41.8420 N.3   334  ARG334     -0.1245
     85  CA        43.0300   36.7100   41.5220 C.3   334  ARG334      0.1563
     86  C         43.5510   38.1320   41.6830 C.2   334  ARG334      0.2260
     87  O         44.2900   38.4220   42.6200 O.2   334  ARG334     -0.2867
     88  CB        41.8180   36.5320   42.4410 C.3   334  ARG334      0.0307
     89  CG        40.9160   35.3590   42.0700 C.3   334  ARG334      0.0489
     90  CD        39.7080   35.2700   43.0040 C.3   334  ARG334      0.2205
     91  NE        40.0900   34.8740   44.3600 N.pl3 334  ARG334     -0.0865
     92  CZ        39.2360   34.6920   45.3620 C.cat 334  ARG334      0.5346
     93  NH1       37.9290   34.8680   45.1740 N.pl3 334  ARG334      0.1354
     94  NH2       39.6840   34.3350   46.5580 N.pl3 334  ARG334      0.1354
     95  N         41.9130   42.0490   41.8320 N.3   336  ASN336     -0.1240
     96  CA        40.8300   43.0310   41.7850 C.3   336  ASN336      0.1653
     97  C         41.4990   44.3960   41.7870 C.2   336  ASN336      0.2266
     98  O         42.0600   44.8140   42.8040 O.2   336  ASN336     -0.2867
     99  CB        39.9180   42.8710   42.9960 C.3   336  ASN336      0.1155
    100  CG        38.6690   43.7450   42.9140 C.2   336  ASN336      0.2627
    101  OD1       38.6890   44.8220   42.3220 O.2   336  ASN336     -0.2716
    102  ND2       37.5790   43.2770   43.5170 N.am  336  ASN336     -0.0877
@<TRIPOS>BOND
     1    48    47    2
     2    47    46    1
     3    45    46    1
     4    46    49    1
     5    49    51    1
     6    49    50    1
     7    25    26    1
     8    42    41    2
     9    29    26    1
    10    41    40    1
    11    26    27    1
    12    33    32    2
    13    85    86    1
    14    85    84    1
    15    85    88    1
    16    86    87    2
    17    96    97    1
    18    96    95    1
    19    96    99    1
    20    97    98    2
    21    16    15    2
    22    40    39    1
    23    40    43    1
    24    89    88    1
    25    89    90    1
    26    32    39   am
    27    32    31    1
    28   101   100    2
    29    44    43    1
    30    27    28    2
    31    27    30   am
    32    31    30    1
    33    31    34    1
    34    15    14    1
    35   100    99    1
    36   100   102   am
    37    90    91    1
    38    67    66    2
    39    34    35    1
    40    17    14    1
    41    17    18    1
    42    14    13    1
    43    91    92    2
    44    35    36    1
    45    75    74    2
    46    66    65    1
    47    64    65    1
    48    38    36   am
    49    93    92    1
    50    36    37    2
    51    72    73    1
    52    18    20   ar
    53    18    19   ar
    54    92    94    1
    55    65    68    1
    56    74    73    1
    57    20    22   ar
    58    19    21   ar
    59    68    69    1
    60    73    76    1
    61    76    77    1
    62    69    71    1
    63    69    70    1
    64    22    23   ar
    65    21    23   ar
    66    23    24    1
    67    77    79   ar
    68    77    78   ar
    69    79    81   ar
    70    63    60    1
    71    61    62    2
    72    61    60    1
    73    78    80   ar
    74     1     2    1
    75    81    82   ar
    76     7     9   ar
    77     7     6   ar
    78    60    59    1
    79     5     2    1
    80     5     6    1
    81     2     3    1
    82     9    11   ar
    83    80    82   ar
    84     6     8   ar
    85    82    83    1
    86    56    57    1
    87    56    53    1
    88    57    58    1
    89    58    52    1
    90     3     4    2
    91    11    12    1
    92    11    10   ar
    93    53    52    1
    94    53    54    1
    95     8    10   ar
    96    54    55    2
