@<TRIPOS>MOLECULE
tmp/4j8mA00.pdb
 213 205 0 0 0
SMALL
GASTEIGER

@<TRIPOS>ATOM
      1  N        124.7550  105.0910  156.3670 N.3    15  LEU15      -0.1231
      2  CA       123.7130  104.4490  157.1560 C.3    15  LEU15       0.1693
      3  C        122.8490  103.5770  156.2650 C.2    15  LEU15       0.2593
      4  O        122.2260  102.6230  156.7280 O.2    15  LEU15      -0.2718
      5  CB       122.8290  105.5170  157.7930 C.3    15  LEU15       0.0284
      6  CG       123.4690  106.2880  158.9290 C.3    15  LEU15       0.0019
      7  CD1      122.5930  107.4760  159.3210 C.3    15  LEU15       0.0001
      8  CD2      123.7220  105.3720  160.1210 C.3    15  LEU15       0.0001
      9  N        122.8040  103.9190  154.9810 N.am   16  GLY16      -0.1942
     10  CA       122.0460  103.1500  154.0100 C.3    16  GLY16       0.2014
     11  C        122.3970  103.5240  152.5810 C.2    16  GLY16       0.2639
     12  O        122.8380  104.6330  152.3190 O.2    16  GLY16      -0.2714
     13  N        122.1610  102.5980  151.6580 N.am   17  LYS17      -0.1963
     14  CA       122.3830  102.8280  150.2380 C.3    17  LYS17       0.1728
     15  C        121.2510  102.1480  149.4750 C.2    17  LYS17       0.2616
     16  O        120.7770  101.0900  149.8810 O.2    17  LYS17      -0.2715
     17  CB       123.7100  102.2140  149.7880 C.3    17  LYS17       0.0311
     18  CG       124.9350  102.7220  150.5250 C.3    17  LYS17       0.0038
     19  CD       126.2120  102.1170  149.9460 C.3    17  LYS17       0.0206
     20  CE       127.4560  102.6570  150.6280 C.3    17  LYS17       0.1093
     21  NZ       127.6150  104.1340  150.4640 N.3    17  LYS17      -0.1314
     22  N        120.8230  102.7520  148.3720 N.am   18  GLY18      -0.1955
     23  CA       119.8510  102.1240  147.4900 C.3    18  GLY18       0.1869
     24  C        119.9520  102.6660  146.0790 C.2    18  GLY18       0.2309
     25  O        120.8410  103.4460  145.7800 O.2    18  GLY18      -0.2863
     26  N        118.2340  104.8560  144.7150 N.3    20  PHE20      -0.1227
     27  CA       117.9230  106.2770  144.6440 C.3    20  PHE20       0.1736
     28  C        118.9040  107.1960  145.3290 C.2    20  PHE20       0.2596
     29  O        118.7900  108.4200  145.1990 O.2    20  PHE20      -0.2718
     30  CB       116.5390  106.5300  145.2280 C.3    20  PHE20       0.0547
     31  CG       115.4340  106.2310  144.2690 C.ar   20  PHE20      -0.0202
     32  CD1      115.1470  104.9290  143.9090 C.ar   20  PHE20      -0.0042
     33  CD2      114.6920  107.2550  143.7100 C.ar   20  PHE20      -0.0042
     34  CE1      114.1360  104.6480  143.0160 C.ar   20  PHE20      -0.0003
     35  CE2      113.6780  106.9790  142.8130 C.ar   20  PHE20      -0.0003
     36  CZ       113.4000  105.6740  142.4670 C.ar   20  PHE20      -0.0000
     37  N        119.8510  106.6260  146.0660 N.am   21  GLY21      -0.1942
     38  CA       120.8460  107.4300  146.7370 C.3    21  GLY21       0.2014
     39  C        121.5170  106.7720  147.9200 C.2    21  GLY21       0.2639
     40  O        121.5230  105.5610  148.0690 O.2    21  GLY21      -0.2714
     41  N        122.0890  107.5990  148.7760 N.am   22  ASN22      -0.1958
     42  CA       122.8380  107.1170  149.9300 C.3    22  ASN22       0.1819
     43  C        122.5080  108.0100  151.1150 C.2    22  ASN22       0.2621
     44  O        122.2590  109.1970  150.9370 O.2    22  ASN22      -0.2715
     45  CB       124.3390  107.1870  149.6570 C.3    22  ASN22       0.1195
     46  CG       124.7450  106.4230  148.4200 C.2    22  ASN22       0.2630
     47  OD1      124.7300  105.2000  148.4030 O.2    22  ASN22      -0.2716
     48  ND2      125.1040  107.1460  147.3750 N.am   22  ASN22      -0.0877
     49  N        122.5260  107.4390  152.3180 N.am   23  VAL23      -0.1977
     50  CA       122.3910  108.2080  153.5530 C.3    23  VAL23       0.1596
     51  C        123.6690  108.0410  154.3630 C.2    23  VAL23       0.2287
     52  O        124.1970  106.9400  154.5010 O.2    23  VAL23      -0.2864
     53  CB       121.2330  107.6780  154.4360 C.3    23  VAL23       0.0276
     54  CG1      120.9850  108.6230  155.5900 C.3    23  VAL23       0.0022
     55  CG2      119.9900  107.5090  153.6310 C.3    23  VAL23       0.0022
     56  N        122.1560  113.3900  160.1030 N.3    36  ALA36      -0.1245
     57  CA       122.1770  112.4140  159.0290 C.3    36  ALA36       0.1562
     58  C        121.9240  113.1380  157.7390 C.2    36  ALA36       0.2260
     59  O        121.1410  114.0940  157.6820 O.2    36  ALA36      -0.2867
     60  CB       121.1450  111.3170  159.2560 C.3    36  ALA36       0.0290
     61  N        120.7960  112.6490  153.8690 N.3    38  LYS38      -0.1245
     62  CA       120.2240  111.8040  152.8230 C.3    38  LYS38       0.1561
     63  C        120.4580  112.4120  151.4710 C.2    38  LYS38       0.2260
     64  O        120.0480  113.5350  151.2100 O.2    38  LYS38      -0.2867
     65  CB       118.7260  111.6130  153.0170 C.3    38  LYS38       0.0271
     66  CG       118.1460  110.6210  152.0360 C.3    38  LYS38       0.0035
     67  CD       116.6390  110.7270  151.8910 C.3    38  LYS38       0.0206
     68  CE       115.8700  110.1600  153.0530 C.3    38  LYS38       0.1093
     69  NZ       114.4070  110.1320  152.6940 N.3    38  LYS38      -0.1314
     70  N        119.9810  112.0710  147.4500 N.3    40  LEU40      -0.1245
     71  CA       119.2010  111.4400  146.4000 C.3    40  LEU40       0.1561
     72  C        119.6670  111.8710  145.0300 C.2    40  LEU40       0.2260
     73  O        120.0260  113.0350  144.8210 O.2    40  LEU40      -0.2867
     74  CB       117.7350  111.8190  146.5700 C.3    40  LEU40       0.0270
     75  CG       117.2120  111.4960  147.9670 C.3    40  LEU40       0.0019
     76  CD1      115.7750  111.9920  148.1500 C.3    40  LEU40       0.0001
     77  CD2      117.3180  110.0240  148.2130 C.3    40  LEU40       0.0001
     78  N        110.7580  112.4810  163.1620 N.3    70  LEU70      -0.1245
     79  CA       112.1410  112.8160  162.8590 C.3    70  LEU70       0.1561
     80  C        112.1680  114.1830  162.1810 C.2    70  LEU70       0.2260
     81  O        111.4650  114.3950  161.1990 O.2    70  LEU70      -0.2867
     82  CB       112.7490  111.7590  161.9500 C.3    70  LEU70       0.0270
     83  CG       114.2720  111.7530  161.9480 C.3    70  LEU70       0.0019
     84  CD1      114.7730  111.1670  163.2280 C.3    70  LEU70       0.0001
     85  CD2      114.8650  111.0200  160.7600 C.3    70  LEU70       0.0001
     86  N        118.9060  115.6590  158.0940 N.3    86  LEU86      -0.1231
     87  CA       117.9460  115.0230  158.9890 C.3    86  LEU86       0.1693
     88  C        118.5080  114.8070  160.3830 C.2    86  LEU86       0.2592
     89  O        119.7200  114.6520  160.5920 O.2    86  LEU86      -0.2718
     90  CB       117.5330  113.6740  158.4050 C.3    86  LEU86       0.0284
     91  CG       116.6860  113.7310  157.1430 C.3    86  LEU86       0.0019
     92  CD1      116.7450  112.3960  156.4420 C.3    86  LEU86       0.0001
     93  CD2      115.2570  114.0710  157.4770 C.3    86  LEU86       0.0001
     94  N        117.6020  114.7880  161.3470 N.am   87  GLU87      -0.1966
     95  CA       117.9170  114.4000  162.7080 C.3    87  GLU87       0.1733
     96  C        118.5290  113.0010  162.7560 C.2    87  GLU87       0.2616
     97  O        118.0870  112.0840  162.0470 O.2    87  GLU87      -0.2715
     98  CB       116.6450  114.4260  163.5500 C.3    87  GLU87       0.0429
     99  CG       116.8380  114.1470  165.0070 C.3    87  GLU87       0.1163
    100  CD       115.5310  114.1600  165.8010 C.2    87  GLU87       0.3649
    101  OE1      114.4560  114.3690  165.1850 O.co2  87  GLU87      -0.2457
    102  OE2      115.5740  113.9630  167.0430 O.co2  87  GLU87      -0.2457
    103  N        119.5800  112.8760  163.5580 N.am   88  TYR88      -0.1960
    104  CA       120.1680  111.5820  163.8740 C.3    88  TYR88       0.1771
    105  C        119.5880  111.0150  165.1560 C.2    88  TYR88       0.2619
    106  O        119.6560  111.6460  166.2240 O.2    88  TYR88      -0.2715
    107  CB       121.6860  111.6800  163.9980 C.3    88  TYR88       0.0574
    108  CG       122.3400  110.3430  164.2880 C.ar   88  TYR88      -0.0198
    109  CD1      122.2080  109.2790  163.3970 C.ar   88  TYR88      -0.0009
    110  CD2      123.0910  110.1410  165.4390 C.ar   88  TYR88      -0.0009
    111  CE1      122.8020  108.0450  163.6540 C.ar   88  TYR88       0.0417
    112  CE2      123.6770  108.9020  165.7100 C.ar   88  TYR88       0.0417
    113  CZ       123.5170  107.8620  164.8160 C.ar   88  TYR88       0.1957
    114  OH       124.1090  106.6420  165.0470 O.3    88  TYR88      -0.2866
    115  N        119.0640  109.7980  165.0260 N.am   89  ALA89      -0.1964
    116  CA       118.5380  108.9900  166.1200 C.3    89  ALA89       0.1713
    117  C        119.5830  107.9330  166.4640 C.2    89  ALA89       0.2458
    118  O        119.7820  106.9690  165.7050 O.2    89  ALA89      -0.2730
    119  CB       117.2560  108.3310  165.7130 C.3    89  ALA89       0.0333
    120  N        120.2810  108.1200  167.5940 N.am   90  PRO90      -0.2727
    121  CA       121.4570  107.2910  167.8780 C.3    90  PRO90       0.1402
    122  C        121.1820  105.8460  168.2650 C.2    90  PRO90       0.2269
    123  O        122.0960  105.0370  168.1840 O.2    90  PRO90      -0.2865
    124  CB       122.1550  108.0390  169.0240 C.3    90  PRO90       0.0296
    125  CG       121.0810  108.8420  169.6620 C.3    90  PRO90       0.0237
    126  CD       120.0670  109.1650  168.6120 C.3    90  PRO90       0.0939
    127  N        119.0170  103.5810  166.9080 N.3    92  GLY92      -0.1210
    128  CA       118.5870  102.6750  165.8590 C.3    92  GLY92       0.1956
    129  C        117.0850  102.4680  165.7810 C.2    92  GLY92       0.2612
    130  O        116.3000  103.2080  166.3530 O.2    92  GLY92      -0.2717
    131  N        116.6730  101.4220  165.0740 N.am   93  THR93      -0.1952
    132  CA       115.2620  101.1960  164.8470 C.3    93  THR93       0.1897
    133  C        114.6440  100.2670  165.8740 C.2    93  THR93       0.2313
    134  O        115.2920   99.3770  166.4420 O.2    93  THR93      -0.2863
    135  CB       115.0080  100.5570  163.4590 C.3    93  THR93       0.1794
    136  OG1      115.6750   99.2960  163.3960 O.3    93  THR93      -0.2208
    137  CG2      115.5300  101.4510  162.3540 C.3    93  THR93       0.0378
    138  N        115.1380   96.6480  164.8810 N.3    96  ARG96      -0.1245
    139  CA       116.3250   95.9750  165.4090 C.3    96  ARG96       0.1563
    140  C        116.2000   95.6360  166.8990 C.2    96  ARG96       0.2260
    141  O        116.6800   94.6010  167.3610 O.2    96  ARG96      -0.2867
    142  CB       117.5510   96.8470  165.1800 C.3    96  ARG96       0.0307
    143  CG       117.8920   97.0050  163.7260 C.3    96  ARG96       0.0489
    144  CD       118.3440   95.6770  163.1350 C.3    96  ARG96       0.2205
    145  NE       118.7380   95.8060  161.7360 N.pl3  96  ARG96      -0.0865
    146  CZ       119.1320   94.7900  160.9790 C.cat  96  ARG96       0.5346
    147  NH1      119.1850   93.5670  161.4960 N.pl3  96  ARG96       0.1354
    148  NH2      119.4720   95.0050  159.7140 N.pl3  96  ARG96       0.1354
    149  N        110.3730   99.2730  161.2160 N.3   135  GLU135     -0.1245
    150  CA       111.5600   99.8350  160.5700 C.3   135  GLU135      0.1567
    151  C        111.4240  101.3320  160.2900 C.2   135  GLU135      0.2260
    152  O        112.4060  101.9840  159.9700 O.2   135  GLU135     -0.2867
    153  CB       111.8610   99.1050  159.2690 C.3   135  GLU135      0.0388
    154  CG       110.6650   98.9260  158.3690 C.3   135  GLU135      0.1160
    155  CD       110.0100   97.5730  158.5640 C.2   135  GLU135      0.3649
    156  OE1      109.7070   97.1890  159.7260 O.co2 135  GLU135     -0.2457
    157  OE2      109.8200   96.8790  157.5410 O.co2 135  GLU135     -0.2457
    158  N        112.4890  105.0420  164.6490 N.3   138  LEU138     -0.1245
    159  CA       113.8370  105.2110  165.1680 C.3   138  LEU138      0.1561
    160  C        113.7770  105.5760  166.6460 C.2   138  LEU138      0.2260
    161  O        112.7360  105.9660  167.1530 O.2   138  LEU138     -0.2867
    162  CB       114.5730  106.2870  164.3820 C.3   138  LEU138      0.0270
    163  CG       115.0580  105.8730  162.9960 C.3   138  LEU138      0.0019
    164  CD1      115.3680  107.1170  162.1770 C.3   138  LEU138      0.0001
    165  CD2      116.2940  105.0020  163.0910 C.3   138  LEU138      0.0001
    166  N        109.9910  107.9640  160.9390 N.3   148  ALA148     -0.1231
    167  CA       110.8380  108.3360  159.8050 C.3   148  ALA148      0.1694
    168  C        110.4950  107.5100  158.5660 C.2   148  ALA148      0.2592
    169  O        109.7410  106.5210  158.6420 O.2   148  ALA148     -0.2718
    170  CB       112.3070  108.1320  160.1620 C.3   148  ALA148      0.0304
    171  N        111.0680  107.9110  157.4370 N.am  149  ASP149     -0.1974
    172  CA       110.8750  107.2090  156.1690 C.3   149  ASP149      0.1709
    173  C        109.4030  106.9900  155.8560 C.2   149  ASP149      0.2293
    174  O        109.0300  105.9210  155.3800 O.2   149  ASP149     -0.2864
    175  CB       111.5910  105.8550  156.1840 C.3   149  ASP149      0.1436
    176  CG       113.0850  105.9810  156.0090 C.2   149  ASP149      0.3671
    177  OD1      113.5520  106.7980  155.1760 O.co2 149  ASP149     -0.2456
    178  OD2      113.8080  105.2270  156.6910 O.co2 149  ASP149     -0.2456
    179  N        109.8300  107.8910  147.7720 N.3   154  VAL154     -0.1231
    180  CA       110.9340  106.9680  147.5830 C.3   154  VAL154      0.1692
    181  C        110.9410  105.9620  148.7300 C.2   154  VAL154      0.2592
    182  O        110.8010  106.3490  149.8900 O.2   154  VAL154     -0.2718
    183  CB       112.2790  107.7220  147.5850 C.3   154  VAL154      0.0266
    184  CG1      113.4200  106.7660  147.3160 C.3   154  VAL154      0.0020
    185  CG2      112.2670  108.8420  146.5530 C.3   154  VAL154      0.0020
    186  N        111.1140  104.6830  148.4030 N.am  155  HIS155     -0.1962
    187  CA       111.1760  103.6330  149.4170 C.3   155  HIS155      0.1787
    188  C        112.5740  103.5090  150.0250 C.2   155  HIS155      0.2620
    189  O        113.5810  103.4460  149.3140 O.2   155  HIS155     -0.2715
    190  CB       110.7740  102.2750  148.8320 C.3   155  HIS155      0.0785
    191  CG       110.4190  101.2570  149.8750 C.ar  155  HIS155      0.0821
    192  ND1      111.3090  100.8350  150.8410 N.ar  155  HIS155     -0.2267
    193  CD2      109.2650  100.5870  150.1110 C.ar  155  HIS155      0.1154
    194  CE1      110.7210   99.9490  151.6240 C.ar  155  HIS155      0.1986
    195  NE2      109.4800   99.7810  151.2040 N.ar  155  HIS155     -0.2212
    196  N        112.6330  103.4450  151.3500 N.am  156  ALA156     -0.1964
    197  CA       113.9080  103.2590  152.0270 C.3   156  ALA156      0.1713
    198  C        114.5760  101.9900  151.5190 C.2   156  ALA156      0.2458
    199  O        113.9960  100.9140  151.5750 O.2   156  ALA156     -0.2730
    200  CB       113.7020  103.1780  153.5150 C.3   156  ALA156      0.0333
    201  N        115.8080  102.1040  151.0180 N.am  157  PRO157     -0.2716
    202  CA       116.5210  100.8740  150.6790 C.3   157  PRO157      0.1536
    203  C        117.0520  100.2430  151.9520 C.2   157  PRO157      0.2599
    204  O        118.1830  100.5280  152.3580 O.2   157  PRO157     -0.2715
    205  CB       117.6660  101.3730  149.8120 C.3   157  PRO157      0.0310
    206  CG       117.9650  102.7300  150.3600 C.3   157  PRO157      0.0237
    207  CD       116.6520  103.2970  150.8400 C.3   157  PRO157      0.0939
    208  N        116.2290   99.4210  152.5910 N.am  158  SER158     -0.1950
    209  CA       116.5870   98.8540  153.8790 C.3   158  SER158      0.1924
    210  C        116.4730   97.3420  153.8470 C.2   158  SER158      0.2314
    211  O        115.4140   96.7940  153.5560 O.2   158  SER158     -0.2863
    212  CB       115.6940   99.4290  154.9830 C.3   158  SER158      0.2116
    213  OG       114.3270   99.1770  154.7160 O.3   158  SER158     -0.2180
@<TRIPOS>BOND
     1    36    35   ar
     2    36    34   ar
     3    35    33   ar
     4    34    32   ar
     5    33    31   ar
     6    32    31   ar
     7    31    30    1
     8    27    26    1
     9    27    30    1
    10    27    28    1
    11    73    72    2
    12    72    71    1
    13    29    28    2
    14    28    37   am
    15    25    24    2
    16    37    38    1
    17    24    23    1
    18    71    74    1
    19    71    70    1
    20   185   183    1
    21    74    75    1
    22    38    39    1
    23   184   183    1
    24    48    46   am
    25    23    22    1
    26   180   183    1
    27   180   179    1
    28   180   181    1
    29    39    40    2
    30    39    41   am
    31    75    76    1
    32    75    77    1
    33    22    15   am
    34    47    46    2
    35   186   181   am
    36   186   187    1
    37    46    45    1
    38   181   182    2
    39    41    42    1
    40   190   187    1
    41   190   191    1
    42   189   188    2
    43   187   188    1
    44    15    16    2
    45    15    14    1
    46    45    42    1
    47    17    14    1
    48    17    18    1
    49   205   206    1
    50   205   202    1
    51   191   193   ar
    52   191   192   ar
    53    42    43    1
    54    19    18    1
    55    19    20    1
    56   188   196   am
    57   193   195   ar
    58    14    13    1
    59   206   207    1
    60    21    20    1
    61   202   201    1
    62   202   203    1
    63   207   201    1
    64   192   194   ar
    65    44    43    2
    66   201   198   am
    67    43    49   am
    68   195   194   ar
    69    64    63    2
    70   196   197    1
    71    63    62    1
    72   198   199    2
    73   198   197    1
    74    13    11   am
    75    67    66    1
    76    67    68    1
    77   203   204    2
    78   203   208   am
    79   197   200    1
    80    66    65    1
    81    49    50    1
    82    12    11    2
    83    11    10    1
    84   208   209    1
    85    69    68    1
    86    62    65    1
    87    62    61    1
    88    50    51    1
    89    50    53    1
    90   211   210    2
    91    55    53    1
    92   210   209    1
    93   209   212    1
    94    10     9    1
    95    51    52    2
    96    53    54    1
    97   213   212    1
    98     9     3   am
    99   177   176   ar
   100   174   173    2
   101   173   172    1
   102   176   175    1
   103   176   178   ar
   104   172   175    1
   105   172   171    1
   106     3     4    2
   107     3     2    1
   108     1     2    1
   109    92    91    1
   110    91    93    1
   111    91    90    1
   112     2     5    1
   113   171   168   am
   114   157   155   ar
   115    59    58    2
   116    58    57    1
   117     5     6    1
   118    86    87    1
   119   154   155    1
   120   154   153    1
   121    90    87    1
   122   155   156   ar
   123   168   169    2
   124   168   167    1
   125     6     7    1
   126     6     8    1
   127    87    88    1
   128    57    60    1
   129    57    56    1
   130   153   150    1
   131   148   146    1
   132   167   170    1
   133   167   166    1
   134   152   151    2
   135   151   150    1
   136    88    89    2
   137    88    94   am
   138   150   149    1
   139    85    83    1
   140   146   147    1
   141   146   145    2
   142    81    80    2
   143    94    95    1
   144   145   144    1
   145    83    82    1
   146    83    84    1
   147    82    79    1
   148    97    96    2
   149   164   163    1
   150    80    79    1
   151   137   135    1
   152    95    96    1
   153    95    98    1
   154    96   103   am
   155    79    78    1
   156   163   165    1
   157   163   162    1
   158   144   143    1
   159   136   135    1
   160   109   111   ar
   161   109   108   ar
   162   135   132    1
   163    98    99    1
   164   103   104    1
   165   111   113   ar
   166   143   142    1
   167   104   107    1
   168   104   105    1
   169   107   108    1
   170   108   110   ar
   171   162   159    1
   172   158   159    1
   173   113   114    1
   174   113   112   ar
   175   132   131    1
   176   132   133    1
   177   138   139    1
   178    99   100    1
   179   115   105   am
   180   115   116    1
   181   131   129   am
   182   105   106    2
   183   159   160    1
   184   142   139    1
   185   101   100   ar
   186   139   140    1
   187   110   112   ar
   188   118   117    2
   189   119   116    1
   190   129   128    1
   191   129   130    2
   192   100   102   ar
   193   128   127    1
   194   133   134    2
   195   116   117    1
   196   117   120   am
   197   160   161    2
   198   140   141    2
   199   120   121    1
   200   120   126    1
   201   121   122    1
   202   121   124    1
   203   123   122    2
   204   126   125    1
   205   124   125    1
