@<TRIPOS>MOLECULE
tmp/4j8pA00.pdb
 140 140 0 0 0
SMALL
GASTEIGER

@<TRIPOS>ATOM
      1  N         31.9840    0.2500    6.1430 N.3    11  SER11      -0.1202
      2  CA        30.5450    0.4520    6.2000 C.3    11  SER11       0.2020
      3  C         29.8790   -0.9050    6.2760 C.2    11  SER11       0.2619
      4  O         30.1700   -1.7620    5.4350 O.2    11  SER11      -0.2717
      5  CB        30.0820    1.2230    4.9600 C.3    11  SER11       0.2103
      6  OG        28.6840    1.4830    4.9590 O.3    11  SER11      -0.2182
      7  N         29.0330   -1.1080    7.2700 N.am   12  ALA12      -0.1965
      8  CA        28.3510   -2.4090    7.4030 C.3    12  ALA12       0.1728
      9  C         27.0110   -2.4490    6.6660 C.2    12  ALA12       0.2616
     10  O         26.6050   -3.5300    6.2120 O.2    12  ALA12      -0.2715
     11  CB        28.1340   -2.7500    8.8810 C.3    12  ALA12       0.0334
     12  N         26.2840   -1.3160    6.6380 N.am   13  THR13      -0.1951
     13  CA        24.9570   -1.2560    6.0160 C.3    13  THR13       0.1897
     14  C         24.8580   -0.1200    4.9790 C.2    13  THR13       0.2313
     15  O         23.7550    0.2990    4.6380 O.2    13  THR13      -0.2863
     16  CB        23.8320   -1.1870    7.0880 C.3    13  THR13       0.1794
     17  OG1       24.0720   -0.1590    8.0740 O.3    13  THR13      -0.2208
     18  CG2       23.6940   -2.5110    7.8440 C.3    13  THR13       0.0378
     19  N         25.5780    3.1770    4.7800 N.3    15  THR15      -0.1203
     20  CA        25.4120    4.6110    5.0350 C.3    15  THR15       0.1994
     21  C         26.7380    5.3640    4.8890 C.2    15  THR15       0.2618
     22  O         26.8330    6.3440    4.1300 O.2    15  THR15      -0.2717
     23  CB        24.8410    4.8490    6.4400 C.3    15  THR15       0.1784
     24  OG1       23.7030    4.0090    6.6100 O.3    15  THR15      -0.2211
     25  CG2       24.4660    6.3090    6.6530 C.3    15  THR15       0.0376
     26  N         27.7940    4.8590    5.5690 N.am   16  THR16      -0.1952
     27  CA        29.1270    5.4790    5.5070 C.3    16  THR16       0.1897
     28  C         29.7100    5.3110    4.0920 C.2    16  THR16       0.2313
     29  O         30.4160    6.1990    3.6240 O.2    16  THR16      -0.2863
     30  CB        30.0300    4.8610    6.5720 C.3    16  THR16       0.1794
     31  OG1       29.3580    4.9130    7.8440 O.3    16  THR16      -0.2208
     32  CG2       31.3400    5.6040    6.7010 C.3    16  THR16       0.0378
     33  N         25.5790   -7.3850   14.0870 N.3    45  LEU45      -0.1245
     34  CA        25.2560   -5.9730   14.2710 C.3    45  LEU45       0.1561
     35  C         24.1500   -5.7410   15.2960 C.2    45  LEU45       0.2260
     36  O         23.7620   -4.5960   15.4770 O.2    45  LEU45      -0.2867
     37  CB        24.8550   -5.3680   12.9200 C.3    45  LEU45       0.0270
     38  CG        25.9380   -5.3890   11.8640 C.3    45  LEU45       0.0019
     39  CD1       25.3710   -4.9690   10.5140 C.3    45  LEU45       0.0001
     40  CD2       27.0830   -4.4090   12.2550 C.3    45  LEU45       0.0001
     41  N         23.0410   -4.6980   18.3450 N.3    47  TRP47      -0.1241
     42  CA        23.5740   -3.9020   19.4580 C.3    47  TRP47       0.1605
     43  C         22.9190   -4.3050   20.7950 C.2    47  TRP47       0.2264
     44  O         23.5050   -4.0940   21.8610 O.2    47  TRP47      -0.2867
     45  CB        23.3640   -2.3830   19.1750 C.3    47  TRP47       0.0550
     46  CG        21.9100   -2.0810   19.0220 C.ar   47  TRP47       0.0003
     47  CD1       21.1590   -2.2440   17.8880 C.ar   47  TRP47       0.0946
     48  CD2       20.9830   -1.8180   20.0840 C.ar   47  TRP47       0.0152
     49  NE1       19.8210   -2.1270   18.1860 N.ar   47  TRP47      -0.2442
     50  CE2       19.6820   -1.8810   19.5310 C.ar   47  TRP47       0.0810
     51  CE3       21.1200   -1.5960   21.4720 C.ar   47  TRP47       0.0012
     52  CZ2       18.5330   -1.6700   20.2990 C.ar   47  TRP47       0.0191
     53  CZ3       19.9820   -1.4040   22.2320 C.ar   47  TRP47       0.0001
     54  CH2       18.7050   -1.4460   21.6520 C.ar   47  TRP47       0.0015
     55  N         29.5940   -7.5240   17.3910 N.3    54  SER54      -0.1217
     56  CA        29.8880   -6.0960   17.6000 C.3    54  SER54       0.1889
     57  C         29.9070   -5.7590   19.0840 C.2    54  SER54       0.2288
     58  O         30.7160   -4.9240   19.4990 O.2    54  SER54      -0.2866
     59  CB        28.8950   -5.2070   16.8600 C.3    54  SER54       0.2089
     60  OG        27.5520   -5.3420   17.3000 O.3    54  SER54      -0.2183
     61  N         31.0890    4.0890   10.5680 N.3    84  PRO84      -0.2102
     62  CA        29.9320    4.3430   11.4400 C.3    84  PRO84       0.1504
     63  C         30.3670    4.4780   12.8950 C.2    84  PRO84       0.2576
     64  O         31.3580    3.8630   13.2690 O.2    84  PRO84      -0.2718
     65  CB        29.0970    3.0790   11.3030 C.3    84  PRO84       0.0282
     66  CG        30.1240    1.9670   11.0040 C.3    84  PRO84       0.0208
     67  CD        31.2280    2.6530   10.1910 C.3    84  PRO84       0.0893
     68  N         29.6350    5.2380   13.7090 N.am   85  ILE85      -0.1966
     69  CA        29.9570    5.2670   15.1290 C.3    85  ILE85       0.1727
     70  C         29.3320    4.0280   15.7670 C.2    85  ILE85       0.2616
     71  O         28.1210    3.8270   15.6250 O.2    85  ILE85      -0.2715
     72  CB        29.3830    6.5430   15.7730 C.3    85  ILE85       0.0290
     73  CG1       30.0400    7.8120   15.2130 C.3    85  ILE85       0.0022
     74  CG2       29.4840    6.4850   17.3190 C.3    85  ILE85       0.0023
     75  CD1       31.4920    7.9490   15.4370 C.3    85  ILE85       0.0001
     76  N         30.1410    3.2280   16.4840 N.am   86  TRP86      -0.1960
     77  CA        29.6430    2.0820   17.2350 C.3    86  TRP86       0.1771
     78  C         29.9410    2.3410   18.7000 C.2    86  TRP86       0.2620
     79  O         31.1170    2.4230   19.1030 O.2    86  TRP86      -0.2715
     80  CB        30.2980    0.7900   16.7590 C.3    86  TRP86       0.0590
     81  CG        29.8020    0.2600   15.4390 C.ar   86  TRP86       0.0006
     82  CD1       28.9080    0.8390   14.5730 C.ar   86  TRP86       0.0946
     83  CD2       30.1980   -0.9800   14.8430 C.ar   86  TRP86       0.0152
     84  NE1       28.7130    0.0130   13.4710 N.ar   86  TRP86      -0.2442
     85  CE2       29.4910   -1.1120   13.6240 C.ar   86  TRP86       0.0810
     86  CE3       31.0920   -1.9960   15.2310 C.ar   86  TRP86       0.0012
     87  CZ2       29.7080   -2.1900   12.7600 C.ar   86  TRP86       0.0191
     88  CZ3       31.2680   -3.0870   14.3970 C.ar   86  TRP86       0.0001
     89  CH2       30.5660   -3.1860   13.1890 C.ar   86  TRP86       0.0015
     90  N         28.8810    2.4570   19.5040 N.am   87  TRP87      -0.1960
     91  CA        29.0720    2.7130   20.9290 C.3    87  TRP87       0.1771
     92  C         30.0760    3.8680   21.1860 C.2    87  TRP87       0.2619
     93  O         31.0020    3.7500   22.0150 O.2    87  TRP87      -0.2715
     94  CB        29.4570    1.4390   21.7130 C.3    87  TRP87       0.0590
     95  CG        28.3980    0.3740   21.6330 C.ar   87  TRP87       0.0006
     96  CD1       28.4500   -0.7790   20.8980 C.ar   87  TRP87       0.0946
     97  CD2       27.0730    0.4370   22.1920 C.ar   87  TRP87       0.0152
     98  NE1       27.2790   -1.4980   21.0580 N.ar   87  TRP87      -0.2442
     99  CE2       26.4070   -0.7620   21.8230 C.ar   87  TRP87       0.0810
    100  CE3       26.3960    1.3790   22.9970 C.ar   87  TRP87       0.0012
    101  CZ2       25.1030   -1.0460   22.2430 C.ar   87  TRP87       0.0191
    102  CZ3       25.1020    1.0850   23.4140 C.ar   87  TRP87       0.0001
    103  CH2       24.4660   -0.0970   23.0070 C.ar   87  TRP87       0.0015
    104  N         29.8610    5.0010   20.4600 N.am   88  ASN88      -0.1972
    105  CA        30.6430    6.2260   20.6740 C.3    88  ASN88       0.1688
    106  C         32.1170    6.0610   20.2760 C.2    88  ASN88       0.2292
    107  O         32.9600    6.8970   20.6640 O.2    88  ASN88      -0.2864
    108  CB        30.5450    6.6600   22.1490 C.3    88  ASN88       0.1181
    109  CG        30.8190    8.1180   22.3780 C.2    88  ASN88       0.2629
    110  OD1       30.7170    8.9570   21.4810 O.2    88  ASN88      -0.2716
    111  ND2       31.1950    8.4610   23.5940 N.am   88  ASN88      -0.0877
    112  N         29.3850    8.4640   10.2720 N.3   113  THR113     -0.1203
    113  CA        27.9290    8.5910   10.2670 C.3   113  THR113      0.1994
    114  C         27.4340    7.9380   11.5490 C.2   113  THR113      0.2619
    115  O         28.1280    7.0840   12.1140 O.2   113  THR113     -0.2717
    116  CB        27.2770    7.9800    9.0120 C.3   113  THR113      0.1784
    117  OG1       27.4050    6.5610    9.0510 O.3   113  THR113     -0.2211
    118  CG2       27.8940    8.5460    7.7100 C.3   113  THR113      0.0376
    119  N         26.2800    8.3760   12.0390 N.am  114  SER114     -0.1937
    120  CA        25.7560    7.8360   13.3000 C.3   114  SER114      0.2055
    121  C         24.2560    7.9630   13.3740 C.2   114  SER114      0.2644
    122  O         23.6640    8.7080   12.5980 O.2   114  SER114     -0.2714
    123  CB        26.3590    8.6100   14.4740 C.3   114  SER114      0.2130
    124  OG        25.8680    9.9460   14.4820 O.3   114  SER114     -0.2179
    125  N         23.6510    7.2850   14.3520 N.am  115  GLY115     -0.1939
    126  CA        22.2300    7.4570   14.6250 C.3   115  GLY115      0.2014
    127  C         21.9690    8.8630   15.1450 C.2   115  GLY115      0.2640
    128  O         21.0060    9.5170   14.7290 O.2   115  GLY115     -0.2714
    129  N         22.8580    9.3590   16.0440 N.am  116  SER116     -0.1935
    130  CA        22.7880   10.7050   16.6000 C.3   116  SER116      0.2055
    131  C         24.0720   11.1670   17.2840 C.2   116  SER116      0.2643
    132  O         24.2930   12.3820   17.4140 O.2   116  SER116     -0.2714
    133  CB        21.6490   10.8000   17.6090 C.3   116  SER116      0.2130
    134  OG        21.8570    9.9580   18.7390 O.3   116  SER116     -0.2179
    135  N         24.9160   10.2280   17.7440 N.am  117  SER117     -0.1949
    136  CA        26.1110   10.6300   18.4860 C.3   117  SER117      0.1924
    137  C         27.0720   11.4650   17.6590 C.2   117  SER117      0.2314
    138  O         27.1690   11.3150   16.4250 O.2   117  SER117     -0.2863
    139  CB        26.8710    9.4010   18.9750 C.3   117  SER117      0.2116
    140  OG        26.0690    8.6100   19.8550 O.3   117  SER117     -0.2180
@<TRIPOS>BOND
     1    29    28    2
     2    28    27    1
     3    22    21    2
     4    15    14    2
     5    19    20    1
     6    21    20    1
     7    21    26   am
     8     6     5    1
     9     5     2    1
    10    14    13    1
    11    20    23    1
    12     4     3    2
    13    27    26    1
    14    27    30    1
    15    13    12    1
    16    13    16    1
    17     1     2    1
    18     2     3    1
    19    10     9    2
    20     3     7   am
    21    23    24    1
    22    23    25    1
    23    30    32    1
    24    30    31    1
    25    12     9   am
    26     9     8    1
    27    16    18    1
    28    16    17    1
    29     7     8    1
    30     8    11    1
    31   118   116    1
    32   116   117    1
    33   116   113    1
    34    67    61    1
    35    67    66    1
    36   113   112    1
    37   113   114    1
    38    39    38    1
    39    61    62    1
    40    66    65    1
    41    65    62    1
    42    62    63    1
    43   114   119   am
    44   114   115    2
    45    38    40    1
    46    38    37    1
    47   119   120    1
    48   122   121    2
    49    87    89   ar
    50    87    85   ar
    51    63    64    2
    52    63    68   am
    53    37    34    1
    54    89    88   ar
    55   120   121    1
    56   120   123    1
    57   121   125   am
    58    84    85   ar
    59    84    82   ar
    60    85    83   ar
    61    68    69    1
    62    33    34    1
    63    34    35    1
    64   125   126    1
    65    88    86   ar
    66   123   124    1
    67    82    81   ar
    68   126   127    1
    69   128   127    2
    70    83    86   ar
    71    83    81   ar
    72    69    70    1
    73    69    72    1
    74   127   129   am
    75    73    75    1
    76    73    72    1
    77    35    36    2
    78    81    80    1
    79    71    70    2
    80    70    76   am
    81    72    74    1
    82   129   130    1
    83   138   137    2
    84    76    77    1
    85   130   131    1
    86   130   133    1
    87    80    77    1
    88    59    60    1
    89    59    56    1
    90    77    78    1
    91   131   132    2
    92   131   135   am
    93    55    56    1
    94    56    57    1
    95   133   134    1
    96   137   136    1
    97   135   136    1
    98    47    49   ar
    99    47    46   ar
   100    49    50   ar
   101    41    42    1
   102   136   139    1
   103    78    79    2
   104    78    90   am
   105   139   140    1
   106    46    45    1
   107    46    48   ar
   108    57    58    2
   109    45    42    1
   110    42    43    1
   111    90    91    1
   112    50    48   ar
   113    50    52   ar
   114    48    51   ar
   115   106   107    2
   116   106   105    1
   117    52    54   ar
   118   104   105    1
   119   104    92   am
   120   105   108    1
   121    43    44    2
   122    96    98   ar
   123    96    95   ar
   124    91    92    1
   125    91    94    1
   126    98    99   ar
   127    92    93    2
   128    51    53   ar
   129   110   109    2
   130    95    94    1
   131    95    97   ar
   132    54    53   ar
   133    99    97   ar
   134    99   101   ar
   135   108   109    1
   136    97   100   ar
   137   101   103   ar
   138   109   111   am
   139   100   102   ar
   140   103   102   ar
