@<TRIPOS>MOLECULE
tmp/4j8rE00.pdb
 140 137 0 0 0
SMALL
GASTEIGER

@<TRIPOS>ATOM
      1  N         46.6260  -23.5460   38.4050 N.3    31  TYR31      -0.1227
      2  CA        45.5510  -24.4420   38.7320 C.3    31  TYR31       0.1736
      3  C         45.4070  -25.5700   37.7660 C.2    31  TYR31       0.2595
      4  O         45.7960  -25.4580   36.6550 O.2    31  TYR31      -0.2718
      5  CB        44.2400  -23.6900   38.7810 C.3    31  TYR31       0.0548
      6  CG        44.1390  -22.6350   39.8110 C.ar   31  TYR31      -0.0200
      7  CD1       43.5620  -22.8800   41.0050 C.ar   31  TYR31      -0.0009
      8  CD2       44.5860  -21.4030   39.5680 C.ar   31  TYR31      -0.0009
      9  CE1       43.4580  -21.9070   41.9430 C.ar   31  TYR31       0.0417
     10  CE2       44.5030  -20.4220   40.4920 C.ar   31  TYR31       0.0417
     11  CZ        43.9320  -20.6750   41.6750 C.ar   31  TYR31       0.1957
     12  OH        43.8560  -19.6770   42.5630 O.3    31  TYR31      -0.2866
     13  N         44.8200  -26.6510   38.2230 N.am   32  LEU32      -0.1980
     14  CA        44.4270  -27.7830   37.4070 C.3    32  LEU32       0.1596
     15  C         43.2250  -27.5880   36.5000 C.2    32  LEU32       0.2287
     16  O         42.3410  -26.8290   36.7780 O.2    32  LEU32      -0.2864
     17  CB        44.1540  -28.9840   38.2730 C.3    32  LEU32       0.0297
     18  CG        45.2400  -29.5870   39.1330 C.3    32  LEU32       0.0022
     19  CD1       44.7030  -30.7090   39.9780 C.3    32  LEU32       0.0001
     20  CD2       46.4490  -30.0050   38.3270 C.3    32  LEU32       0.0001
     21  N         42.4610  -35.0950   34.2860 N.3    49  VAL49      -0.1245
     22  CA        42.9180  -33.7990   34.7220 C.3    49  VAL49       0.1561
     23  C         44.2970  -33.4810   34.1900 C.2    49  VAL49       0.2260
     24  O         45.0700  -34.3460   33.9150 O.2    49  VAL49      -0.2867
     25  CB        42.9290  -33.6990   36.2400 C.3    49  VAL49       0.0252
     26  CG1       43.6950  -34.8370   36.8240 C.3    49  VAL49       0.0019
     27  CG2       43.5250  -32.3930   36.6920 C.3    49  VAL49       0.0019
     28  N         47.7230  -30.7300   34.7360 N.3    51  ASN51      -0.1240
     29  CA        48.4660  -29.6760   35.3760 C.3    51  ASN51       0.1653
     30  C         49.1220  -28.8340   34.2990 C.2    51  ASN51       0.2266
     31  O         50.0550  -29.2480   33.6920 O.2    51  ASN51      -0.2867
     32  CB        49.5210  -30.2780   36.2890 C.3    51  ASN51       0.1155
     33  CG        50.3290  -29.2440   37.0280 C.2    51  ASN51       0.2627
     34  OD1       50.7480  -28.2730   36.4830 O.2    51  ASN51      -0.2716
     35  ND2       50.5370  -29.4730   38.2770 N.am   51  ASN51      -0.0877
     36  N         51.6930  -32.6900   33.5880 N.3    56  ASP56      -0.1225
     37  CA        51.3560  -33.9310   34.2220 C.3    56  ASP56       0.1805
     38  C         49.8890  -34.2360   34.0270 C.2    56  ASP56       0.2598
     39  O         49.0930  -33.3460   33.9830 O.2    56  ASP56      -0.2718
     40  CB        51.6730  -33.8090   35.6850 C.3    56  ASP56       0.1424
     41  CG        51.8780  -35.1190   36.3480 C.2    56  ASP56       0.3668
     42  OD1       51.8110  -36.1400   35.6920 O.co2  56  ASP56      -0.2456
     43  OD2       52.1140  -35.1180   37.5480 O.co2  56  ASP56      -0.2456
     44  N         49.5400  -35.5000   33.8820 N.am   57  THR57      -0.1939
     45  CA        48.1520  -35.8870   33.7160 C.3    57  THR57       0.2028
     46  C         47.7140  -37.0950   34.5000 C.2    57  THR57       0.2642
     47  O         48.4570  -37.9870   34.7420 O.2    57  THR57      -0.2714
     48  CB        47.7670  -36.1510   32.2550 C.3    57  THR57       0.1808
     49  OG1       48.5630  -37.1970   31.7210 O.3    57  THR57      -0.2208
     50  CG2       47.9020  -34.9270   31.4280 C.3    57  THR57       0.0379
     51  N         46.4570  -37.0900   34.8820 N.am   58  ASN58      -0.1971
     52  CA        45.8260  -38.2260   35.5060 C.3    58  ASN58       0.1688
     53  C         44.5320  -38.5190   34.8190 C.2    58  ASN58       0.2292
     54  O         43.7220  -37.6800   34.6790 O.2    58  ASN58      -0.2864
     55  CB        45.6130  -37.9760   36.9810 C.3    58  ASN58       0.1181
     56  CG        45.3230  -39.2240   37.7500 C.2    58  ASN58       0.2629
     57  OD1       44.2540  -39.4050   38.2310 O.2    58  ASN58      -0.2716
     58  ND2       46.2870  -40.0700   37.8710 N.am   58  ASN58      -0.0877
     59  N         38.1130  -25.6470   36.0970 N.3    97  ARG97      -0.1231
     60  CA        39.2480  -25.5030   36.9860 C.3    97  ARG97       0.1694
     61  C         39.0240  -26.2850   38.2400 C.2    97  ARG97       0.2593
     62  O         37.9440  -26.4000   38.6930 O.2    97  ARG97      -0.2718
     63  CB        39.5280  -24.0390   37.2530 C.3    97  ARG97       0.0321
     64  CG        40.8150  -23.7200   37.9880 C.3    97  ARG97       0.0489
     65  CD        40.9320  -22.2510   38.3290 C.3    97  ARG97       0.2205
     66  NE        40.2650  -21.8740   39.5670 N.pl3  97  ARG97      -0.0865
     67  CZ        40.2810  -20.6590   40.0870 C.cat  97  ARG97       0.5346
     68  NH1       40.9270  -19.6960   39.4930 N.pl3  97  ARG97       0.1354
     69  NH2       39.6610  -20.4000   41.1930 N.pl3  97  ARG97       0.1354
     70  N         40.0720  -26.8200   38.8120 N.am   98  SER98      -0.1938
     71  CA        40.0150  -27.3530   40.1660 C.3    98  SER98       0.2055
     72  C         41.1610  -26.6530   40.9100 C.2    98  SER98       0.2644
     73  O         41.6520  -25.6520   40.5030 O.2    98  SER98      -0.2714
     74  CB        40.2580  -28.8420   40.2700 C.3    98  SER98       0.2130
     75  OG        41.5360  -29.1640   39.8710 O.3    98  SER98      -0.2179
     76  N         41.5400  -27.2040   42.0340 N.am   99  GLY99      -0.1939
     77  CA        42.5930  -26.6780   42.8650 C.3    99  GLY99       0.2014
     78  C         44.0010  -26.2760   42.4500 C.2    99  GLY99       0.2638
     79  O         44.3440  -26.3280   41.3010 O.2    99  GLY99      -0.2714
     80  N         44.8080  -25.8850   43.4180 N.am  100  ALA100     -0.1977
     81  CA        46.1570  -25.4320   43.1450 C.3   100  ALA100      0.1597
     82  C         46.9710  -26.5710   42.6110 C.2   100  ALA100      0.2287
     83  O         46.8950  -27.6420   43.1070 O.2   100  ALA100     -0.2864
     84  CB        46.7950  -24.8440   44.3810 C.3   100  ALA100      0.0319
     85  N         48.8380  -29.5050   41.8290 N.3   102  ALA102     -0.1231
     86  CA        49.5040  -30.4660   42.6360 C.3   102  ALA102      0.1679
     87  C         48.7900  -31.7130   42.2330 C.2   102  ALA102      0.2434
     88  O         47.7430  -31.6140   41.6970 O.2   102  ALA102     -0.2733
     89  CB        49.2430  -30.1510   44.0740 C.3   102  ALA102      0.0304
     90  N         49.3510  -32.8790   42.4700 N.am  103  PRO103     -0.2718
     91  CA        48.6800  -34.1160   42.0950 C.3   103  PRO103      0.1535
     92  C         47.7790  -34.6720   43.1660 C.2   103  PRO103      0.2599
     93  O         48.0590  -35.6720   43.7730 O.2   103  PRO103     -0.2715
     94  CB        49.8150  -35.0510   41.7810 C.3   103  PRO103      0.0310
     95  CG        50.9160  -34.5600   42.5770 C.3   103  PRO103      0.0237
     96  CD        50.7830  -33.0850   42.6250 C.3   103  PRO103      0.0939
     97  N         46.6820  -33.9760   43.3580 N.am  104  THR104     -0.1937
     98  CA        45.6140  -34.3740   44.2120 C.3   104  THR104      0.2028
     99  C         44.3470  -34.0080   43.5250 C.2   104  THR104      0.2642
    100  O         44.3220  -33.1860   42.6720 O.2   104  THR104     -0.2714
    101  CB        45.6780  -33.6960   45.5660 C.3   104  THR104      0.1808
    102  OG1       46.4350  -32.5270   45.4190 O.3   104  THR104     -0.2208
    103  CG2       46.3960  -34.5240   46.5590 C.3   104  THR104      0.0379
    104  N         43.3040  -34.7010   43.8900 N.am  105  TYR105     -0.1959
    105  CA        41.9880  -34.4220   43.4030 C.3   105  TYR105      0.1771
    106  C         41.3370  -33.3460   44.2210 C.2   105  TYR105      0.2620
    107  O         41.6640  -33.1480   45.3540 O.2   105  TYR105     -0.2715
    108  CB        41.1570  -35.6730   43.3680 C.3   105  TYR105      0.0574
    109  CG        41.7630  -36.7640   42.5640 C.ar  105  TYR105     -0.0198
    110  CD1       41.9800  -36.6170   41.2380 C.ar  105  TYR105     -0.0009
    111  CD2       42.1430  -37.9470   43.1550 C.ar  105  TYR105     -0.0009
    112  CE1       42.5220  -37.6140   40.5140 C.ar  105  TYR105      0.0417
    113  CE2       42.6920  -38.9460   42.4340 C.ar  105  TYR105      0.0417
    114  CZ        42.8850  -38.7700   41.1160 C.ar  105  TYR105      0.1957
    115  OH        43.4220  -39.7720   40.4070 O.3   105  TYR105     -0.2866
    116  N         40.4180  -32.6540   43.5850 N.am  106  TYR106     -0.1960
    117  CA        39.7900  -31.4530   44.0850 C.3   106  TYR106      0.1771
    118  C         38.3720  -31.3660   43.6640 C.2   106  TYR106      0.2619
    119  O         37.9430  -32.0630   42.8000 O.2   106  TYR106     -0.2715
    120  CB        40.4540  -30.2180   43.5130 C.3   106  TYR106      0.0574
    121  CG        41.7940  -29.9060   44.0350 C.ar  106  TYR106     -0.0198
    122  CD1       41.9590  -29.3650   45.2610 C.ar  106  TYR106     -0.0009
    123  CD2       42.8960  -30.1170   43.2810 C.ar  106  TYR106     -0.0009
    124  CE1       43.1950  -29.0660   45.7290 C.ar  106  TYR106      0.0417
    125  CE2       44.1280  -29.8250   43.7530 C.ar  106  TYR106      0.0417
    126  CZ        44.2580  -29.2960   44.9790 C.ar  106  TYR106      0.1957
    127  OH        45.4660  -29.0150   45.4390 O.3   106  TYR106     -0.2866
    128  N         37.6540  -30.4660   44.2990 N.am  107  ALA107     -0.1977
    129  CA        36.4410  -29.9020   43.7820 C.3   107  ALA107      0.1597
    130  C         36.7120  -28.9840   42.5990 C.2   107  ALA107      0.2287
    131  O         37.6970  -28.3360   42.5380 O.2   107  ALA107     -0.2864
    132  CB        35.7100  -29.1620   44.8600 C.3   107  ALA107      0.0319
    133  N         35.9030  -25.7470   41.0170 N.3   109  ASP109     -0.1239
    134  CA        35.3660  -24.4450   41.2530 C.3   109  ASP109      0.1674
    135  C         34.8270  -23.6030   40.1240 C.2   109  ASP109      0.2266
    136  O         33.9530  -22.8490   40.3580 O.2   109  ASP109     -0.2867
    137  CB        36.1150  -23.6710   42.3330 C.3   109  ASP109      0.1410
    138  CG        37.5280  -23.3340   41.9900 C.2   109  ASP109      0.3668
    139  OD1       37.9670  -23.5160   40.8810 O.co2 109  ASP109     -0.2456
    140  OD2       38.2080  -22.9050   42.8990 O.co2 109  ASP109     -0.2456
@<TRIPOS>BOND
     1    50    48    1
     2    49    48    1
     3    48    45    1
     4    36    37    1
     5    31    30    2
     6    45    44    1
     7    45    46    1
     8    44    38   am
     9    24    23    2
    10    39    38    2
    11    38    37    1
    12    23    22    1
    13    37    40    1
    14    21    22    1
    15    30    29    1
    16    46    47    2
    17    46    51   am
    18    54    53    2
    19    22    25    1
    20    28    29    1
    21    53    52    1
    22    51    52    1
    23    29    32    1
    24    52    55    1
    25    40    41    1
    26    42    41   ar
    27    59    60    1
    28    25    27    1
    29    25    26    1
    30    32    33    1
    31    41    43   ar
    32    34    33    2
    33    15    16    2
    34    15    14    1
    35     4     3    2
    36    55    56    1
    37    60    63    1
    38    60    61    1
    39    33    35   am
    40    63    64    1
    41    14    13    1
    42    14    17    1
    43    56    58   am
    44    56    57    2
    45     3    13   am
    46     3     2    1
    47    64    65    1
    48    61    62    2
    49    61    70   am
    50    17    18    1
    51    20    18    1
    52    65    66    1
    53     1     2    1
    54     2     5    1
    55     5     6    1
    56    70    71    1
    57    18    19    1
    58    68    67    1
    59    66    67    2
    60     8     6   ar
    61     8    10   ar
    62     6     7   ar
    63    75    74    1
    64    67    69    1
    65   135   136    2
    66   135   134    1
    67    71    74    1
    68    71    72    1
    69   115   114    1
    70    10    11   ar
    71    73    72    2
    72   112   114   ar
    73   112   110   ar
    74   139   138   ar
    75    72    76   am
    76     7     9   ar
    77   133   134    1
    78   114   113   ar
    79   110   109   ar
    80   134   137    1
    81    79    78    2
    82    11     9   ar
    83    11    12    1
    84    88    87    2
    85    94    91    1
    86    94    95    1
    87    85    86    1
    88   138   137    1
    89   138   140   ar
    90    76    77    1
    91    91    90    1
    92    91    92    1
    93    87    90   am
    94    87    86    1
    95   113   111   ar
    96    78    77    1
    97    78    80   am
    98    90    96    1
    99   131   130    2
   100   109   111   ar
   101   109   108    1
   102    95    96    1
   103   130   129    1
   104    82    83    2
   105    82    81    1
   106    86    89    1
   107   100    99    2
   108   119   118    2
   109    81    80    1
   110    81    84    1
   111    92    97   am
   112    92    93    2
   113   123   125   ar
   114   123   121   ar
   115    97    98    1
   116   108   105    1
   117   105   104    1
   118   105   106    1
   119   120   121    1
   120   120   117    1
   121    99   104   am
   122    99    98    1
   123   116   117    1
   124   116   106   am
   125   118   117    1
   126   118   128   am
   127   125   126   ar
   128   129   128    1
   129   129   132    1
   130   121   122   ar
   131    98   101    1
   132   106   107    2
   133   126   127    1
   134   126   124   ar
   135   122   124   ar
   136   102   101    1
   137   101   103    1
