@<TRIPOS>MOLECULE
tmp/4j8tA00.pdb
 221 214 0 0 0
SMALL
GASTEIGER

@<TRIPOS>ATOM
      1  N        -15.5600  -27.2320    5.6860 N.3    11  LEU11      -0.1245
      2  CA       -16.4290  -28.1150    6.4600 C.3    11  LEU11       0.1561
      3  C        -17.6210  -28.5430    5.6070 C.2    11  LEU11       0.2260
      4  O        -18.0250  -29.7120    5.6230 O.2    11  LEU11      -0.2867
      5  CB       -16.8860  -27.4410    7.7600 C.3    11  LEU11       0.0270
      6  CG       -15.7450  -27.0330    8.7100 C.3    11  LEU11       0.0019
      7  CD1      -16.2640  -26.5240   10.0630 C.3    11  LEU11       0.0001
      8  CD2      -14.7670  -28.1810    8.9240 C.3    11  LEU11       0.0001
      9  N        -16.6770  -31.3580    3.1520 N.3    14  LEU14      -0.1245
     10  CA       -16.5360  -32.6670    3.7980 C.3    14  LEU14       0.1561
     11  C        -17.8920  -33.2680    4.1660 C.2    14  LEU14       0.2260
     12  O        -18.0940  -34.4740    4.0340 O.2    14  LEU14      -0.2867
     13  CB       -15.6610  -32.5760    5.0550 C.3    14  LEU14       0.0270
     14  CG       -14.1440  -32.4090    4.9550 C.3    14  LEU14       0.0019
     15  CD1      -13.5370  -32.4180    6.3600 C.3    14  LEU14       0.0001
     16  CD2      -13.4870  -33.4910    4.0880 C.3    14  LEU14       0.0001
     17  N        -12.2720  -30.6740   -1.0240 N.3    22  TRP22      -0.1241
     18  CA       -11.5960  -30.2410    0.2060 C.3    22  TRP22       0.1605
     19  C        -10.0850  -30.1530   -0.0190 C.2    22  TRP22       0.2264
     20  O         -9.4620  -29.1470    0.3250 O.2    22  TRP22      -0.2867
     21  CB       -11.9270  -31.2180    1.3410 C.3    22  TRP22       0.0550
     22  CG       -11.4350  -30.8450    2.7100 C.ar   22  TRP22       0.0003
     23  CD1      -12.0530  -30.0290    3.6040 C.ar   22  TRP22       0.0946
     24  CD2      -10.2490  -31.3270    3.3570 C.ar   22  TRP22       0.0152
     25  NE1      -11.3200  -29.9540    4.7680 N.ar   22  TRP22      -0.2442
     26  CE2      -10.2070  -30.7420    4.6390 C.ar   22  TRP22       0.0810
     27  CE3       -9.2160  -32.1920    2.9720 C.ar   22  TRP22       0.0012
     28  CZ2       -9.1680  -30.9850    5.5380 C.ar   22  TRP22       0.0191
     29  CZ3       -8.1760  -32.4350    3.8690 C.ar   22  TRP22       0.0001
     30  CH2       -8.1630  -31.8320    5.1380 C.ar   22  TRP22       0.0015
     31  N         -1.3050  -30.4300    6.0020 N.3    32  LEU32      -0.1245
     32  CA        -2.3240  -30.8240    6.9590 C.3    32  LEU32       0.1561
     33  C         -1.6070  -31.3890    8.1790 C.2    32  LEU32       0.2260
     34  O         -0.6540  -32.1690    8.0480 O.2    32  LEU32      -0.2867
     35  CB        -3.2610  -31.8700    6.3640 C.3    32  LEU32       0.0270
     36  CG        -4.2020  -32.5990    7.3400 C.3    32  LEU32       0.0019
     37  CD1       -5.2710  -31.6350    7.8830 C.3    32  LEU32       0.0001
     38  CD2       -4.8750  -33.8080    6.6710 C.3    32  LEU32       0.0001
     39  N         -2.2250  -33.2280   12.1480 N.3    34  TYR34      -0.1241
     40  CA        -3.0040  -33.7170   13.2640 C.3    34  TYR34       0.1605
     41  C         -2.0850  -33.7370   14.4720 C.2    34  TYR34       0.2264
     42  O         -1.3930  -34.7300   14.6810 O.2    34  TYR34      -0.2867
     43  CB        -3.4530  -35.1590   13.0100 C.3    34  TYR34       0.0534
     44  CG        -4.3940  -35.3760   11.8400 C.ar   34  TYR34      -0.0201
     45  CD1       -5.2800  -34.3870   11.4260 C.ar   34  TYR34      -0.0009
     46  CD2       -4.4130  -36.5960   11.1690 C.ar   34  TYR34      -0.0009
     47  CE1       -6.1520  -34.6070   10.3550 C.ar   34  TYR34       0.0417
     48  CE2       -5.2730  -36.8230   10.1160 C.ar   34  TYR34       0.0417
     49  CZ        -6.1420  -35.8250    9.7180 C.ar   34  TYR34       0.1957
     50  OH        -6.9990  -36.0690    8.6670 O.3    34  TYR34      -0.2866
     51  N         -4.3660  -40.3300   16.0160 N.3    38  PRO38      -0.2116
     52  CA        -4.6050  -41.6880   16.5050 C.3    38  PRO38       0.1372
     53  C         -3.3150  -42.5020   16.3830 C.2    38  PRO38       0.2244
     54  O         -2.5200  -42.2610   15.4670 O.2    38  PRO38      -0.2868
     55  CB        -5.6820  -42.2250   15.5590 C.3    38  PRO38       0.0268
     56  CG        -5.6540  -41.3580   14.3780 C.3    38  PRO38       0.0207
     57  CD        -5.1870  -40.0080   14.8380 C.3    38  PRO38       0.0892
     58  N         -0.9370  -43.1410   13.1150 N.3    41  TYR41      -0.1241
     59  CA        -1.0720  -42.1190   12.0710 C.3    41  TYR41       0.1605
     60  C          0.0340  -41.0830   12.1090 C.2    41  TYR41       0.2264
     61  O          0.6030  -40.8130   13.1610 O.2    41  TYR41      -0.2867
     62  CB        -2.4130  -41.3970   12.1870 C.3    41  TYR41       0.0534
     63  CG        -3.5260  -42.0500   11.4130 C.ar   41  TYR41      -0.0201
     64  CD1       -4.1320  -43.2060   11.8800 C.ar   41  TYR41      -0.0009
     65  CD2       -3.9740  -41.5130   10.2100 C.ar   41  TYR41      -0.0009
     66  CE1       -5.1560  -43.8130   11.1710 C.ar   41  TYR41       0.0417
     67  CE2       -4.9890  -42.1190    9.4950 C.ar   41  TYR41       0.0417
     68  CZ        -5.5760  -43.2660    9.9840 C.ar   41  TYR41       0.1957
     69  OH        -6.5940  -43.8800    9.2860 O.3    41  TYR41      -0.2866
     70  N         -4.3340  -39.5990    1.5350 N.3    54  HIS54      -0.1226
     71  CA        -4.9430  -39.8630    2.8210 C.3    54  HIS54       0.1752
     72  C         -6.4720  -39.6460    2.7950 C.2    54  HIS54       0.2595
     73  O         -7.2500  -40.5260    3.1790 O.2    54  HIS54      -0.2718
     74  CB        -4.2610  -38.9140    3.8270 C.3    54  HIS54       0.0759
     75  CG        -4.9480  -38.8090    5.1450 C.ar   54  HIS54       0.0818
     76  ND1       -5.3700  -39.9120    5.8570 N.ar   54  HIS54      -0.2268
     77  CD2       -5.2870  -37.7280    5.8840 C.ar   54  HIS54       0.1154
     78  CE1       -5.9420  -39.5120    6.9790 C.ar   54  HIS54       0.1986
     79  NE2       -5.9020  -38.1910    7.0220 N.ar   54  HIS54      -0.2212
     80  N         -6.9080  -38.4800    2.3300 N.am   55  MET55      -0.1979
     81  CA        -8.3250  -38.0930    2.4660 C.3    55  MET55       0.1605
     82  C         -9.2820  -38.7300    1.4590 C.2    55  MET55       0.2287
     83  O        -10.4710  -38.8490    1.7300 O.2    55  MET55      -0.2864
     84  CB        -8.4720  -36.5690    2.4270 C.3    55  MET55       0.0413
     85  CG        -7.8710  -35.8620    3.6300 C.3    55  MET55       0.0598
     86  SD        -8.6890  -36.2960    5.1840 S.3    55  MET55      -0.1393
     87  CE       -10.3960  -35.9610    4.7610 C.3    55  MET55       0.0692
     88  N        -11.6960  -41.2760    2.8980 N.3    58  PHE58      -0.1241
     89  CA       -12.6370  -40.9050    3.9550 C.3    58  PHE58       0.1605
     90  C        -14.1340  -41.1080    3.6290 C.2    58  PHE58       0.2264
     91  O        -14.8540  -41.7330    4.4070 O.2    58  PHE58      -0.2867
     92  CB       -12.3720  -39.4620    4.4020 C.3    58  PHE58       0.0534
     93  CG       -13.5150  -38.8380    5.1430 C.ar   58  PHE58      -0.0203
     94  CD1      -13.6990  -39.0860    6.4860 C.ar   58  PHE58      -0.0042
     95  CD2      -14.4110  -38.0100    4.4880 C.ar   58  PHE58      -0.0042
     96  CE1      -14.7520  -38.5110    7.1710 C.ar   58  PHE58      -0.0003
     97  CE2      -15.4660  -37.4370    5.1670 C.ar   58  PHE58      -0.0003
     98  CZ       -15.6310  -37.6890    6.5120 C.ar   58  PHE58      -0.0000
     99  N        -15.4700  -44.5840    4.0500 N.3    61  TYR61      -0.1227
    100  CA       -15.4230  -45.1230    5.4130 C.3    61  TYR61       0.1736
    101  C        -16.3090  -44.3830    6.4150 C.2    61  TYR61       0.2595
    102  O        -16.6200  -44.9180    7.4780 O.2    61  TYR61      -0.2718
    103  CB       -13.9810  -45.1540    5.9410 C.3    61  TYR61       0.0548
    104  CG       -13.8620  -45.6730    7.3740 C.ar   61  TYR61      -0.0200
    105  CD1      -14.0510  -47.0270    7.6690 C.ar   61  TYR61      -0.0009
    106  CD2      -13.5580  -44.8040    8.4290 C.ar   61  TYR61      -0.0009
    107  CE1      -13.9250  -47.5150    8.9750 C.ar   61  TYR61       0.0417
    108  CE2      -13.4470  -45.2710    9.7440 C.ar   61  TYR61       0.0417
    109  CZ       -13.6290  -46.6260   10.0040 C.ar   61  TYR61       0.1957
    110  OH       -13.4770  -47.0850   11.2920 O.3    61  TYR61      -0.2866
    111  N        -16.7200  -43.1620    6.0860 N.am   62  MET62      -0.1979
    112  CA       -17.3930  -42.3290    7.0770 C.3    62  MET62       0.1605
    113  C        -18.1760  -41.1750    6.4860 C.2    62  MET62       0.2287
    114  O        -17.7730  -40.5710    5.4910 O.2    62  MET62      -0.2864
    115  CB       -16.3540  -41.7760    8.0650 C.3    62  MET62       0.0413
    116  CG       -16.8740  -40.6940    9.0050 C.3    62  MET62       0.0598
    117  SD       -15.6530  -40.2670   10.2830 S.3    62  MET62      -0.1393
    118  CE       -15.8440  -41.6920   11.3550 C.3    62  MET62       0.0692
    119  N        -19.9830  -37.4450    7.7840 N.3    64  ILE64      -0.1245
    120  CA       -19.7900  -36.5030    8.8790 C.3    64  ILE64       0.1561
    121  C        -20.6480  -35.2300    8.7420 C.2    64  ILE64       0.2260
    122  O        -21.0000  -34.8040    7.6270 O.2    64  ILE64      -0.2867
    123  CB       -18.2670  -36.1870    9.0590 C.3    64  ILE64       0.0252
    124  CG1      -17.9880  -35.5090   10.4030 C.3    64  ILE64       0.0019
    125  CG2      -17.7250  -35.3780    7.8770 C.3    64  ILE64       0.0019
    126  CD1      -16.5200  -35.6050   10.8220 C.3    64  ILE64       0.0001
    127  N        -20.9640  -31.1990   10.7930 N.3    66  PHE66      -0.1241
    128  CA       -20.3120  -30.3260   11.7650 C.3    66  PHE66       0.1605
    129  C        -21.3370  -29.3820   12.3490 C.2    66  PHE66       0.2264
    130  O        -22.3940  -29.1590   11.7490 O.2    66  PHE66      -0.2867
    131  CB       -19.1670  -29.5430   11.1040 C.3    66  PHE66       0.0534
    132  CG       -18.1010  -30.4250   10.5170 C.ar   66  PHE66      -0.0203
    133  CD1      -17.1560  -31.0420   11.3370 C.ar   66  PHE66      -0.0042
    134  CD2      -18.0530  -30.6670    9.1540 C.ar   66  PHE66      -0.0042
    135  CE1      -16.1650  -31.8710   10.7970 C.ar   66  PHE66      -0.0003
    136  CE2      -17.0670  -31.5010    8.6120 C.ar   66  PHE66      -0.0003
    137  CZ       -16.1250  -32.0960    9.4340 C.ar   66  PHE66      -0.0000
    138  N        -15.1020  -26.1560   16.6850 N.3    84  PHE84      -0.1241
    139  CA       -16.3530  -26.6970   16.1690 C.3    84  PHE84       0.1605
    140  C        -16.4800  -28.1590   16.5610 C.2    84  PHE84       0.2264
    141  O        -15.5600  -28.7380   17.1350 O.2    84  PHE84      -0.2867
    142  CB       -16.4400  -26.5340   14.6500 C.3    84  PHE84       0.0534
    143  CG       -15.2310  -27.0760   13.9010 C.ar   84  PHE84      -0.0203
    144  CD1      -14.0820  -26.2960   13.7320 C.ar   84  PHE84      -0.0042
    145  CD2      -15.2580  -28.3490   13.3480 C.ar   84  PHE84      -0.0042
    146  CE1      -12.9810  -26.7870   13.0350 C.ar   84  PHE84      -0.0003
    147  CE2      -14.1610  -28.8490   12.6490 C.ar   84  PHE84      -0.0003
    148  CZ       -13.0170  -28.0740   12.4990 C.ar   84  PHE84      -0.0000
    149  N        -19.2370  -44.2700   11.0610 N.3    90  HIS90      -0.1241
    150  CA       -18.5230  -45.2900   10.3000 C.3    90  HIS90       0.1621
    151  C        -19.5310  -46.0310    9.4370 C.2    90  HIS90       0.2264
    152  O        -20.5160  -46.5680    9.9470 O.2    90  HIS90      -0.2867
    153  CB       -17.8160  -46.2650   11.2360 C.3    90  HIS90       0.0745
    154  CG       -16.9470  -45.6690   12.3060 C.ar   90  HIS90       0.0817
    155  ND1      -16.2890  -46.4460   13.2340 N.ar   90  HIS90      -0.2268
    156  CD2      -16.6160  -44.3990   12.6370 C.ar   90  HIS90       0.1154
    157  CE1      -15.6330  -45.6970   14.0830 C.ar   90  HIS90       0.1986
    158  NE2      -15.7790  -44.4420   13.7320 N.ar   90  HIS90      -0.2212
    159  N        -18.3220  -41.2610   15.7880 N.3    97  LEU97      -0.1245
    160  CA       -17.2540  -40.4100   16.2990 C.3    97  LEU97       0.1561
    161  C        -17.8540  -39.0710   16.6840 C.2    97  LEU97       0.2260
    162  O        -18.5200  -38.4250   15.8810 O.2    97  LEU97      -0.2867
    163  CB       -16.1900  -40.2010   15.2230 C.3    97  LEU97       0.0270
    164  CG       -15.1850  -39.0580   15.4350 C.3    97  LEU97       0.0019
    165  CD1      -14.2050  -39.3850   16.5630 C.3    97  LEU97       0.0001
    166  CD2      -14.4310  -38.7510   14.1420 C.3    97  LEU97       0.0001
    167  N        -16.5770  -35.5170   18.0570 N.3    99  ALA99      -0.1245
    168  CA       -15.3100  -34.8390   18.2900 C.3    99  ALA99       0.1562
    169  C        -15.4480  -33.3250   18.4200 C.2    99  ALA99       0.2260
    170  O        -16.1700  -32.6860   17.6410 O.2    99  ALA99      -0.2867
    171  CB       -14.3270  -35.1970   17.1880 C.3    99  ALA99       0.0290
    172  N        -13.2640  -30.0830   17.9780 N.3   101  TYR101     -0.1241
    173  CA       -12.0400  -29.6630   17.3280 C.3   101  TYR101      0.1605
    174  C        -11.6240  -28.2650   17.7300 C.2   101  TYR101      0.2264
    175  O        -12.4690  -27.4250   18.0440 O.2   101  TYR101     -0.2867
    176  CB       -12.2420  -29.6370   15.8060 C.3   101  TYR101      0.0534
    177  CG       -12.6230  -30.9540   15.2110 C.ar  101  TYR101     -0.0201
    178  CD1      -11.6540  -31.8960   14.8790 C.ar  101  TYR101     -0.0009
    179  CD2      -13.9490  -31.2540   14.9540 C.ar  101  TYR101     -0.0009
    180  CE1      -12.0060  -33.1020   14.3230 C.ar  101  TYR101      0.0417
    181  CE2      -14.3060  -32.4440   14.3980 C.ar  101  TYR101      0.0417
    182  CZ       -13.3410  -33.3660   14.0820 C.ar  101  TYR101      0.1957
    183  OH       -13.7260  -34.5550   13.5150 O.3   101  TYR101     -0.2866
    184  N         -3.3430  -26.2860    7.8060 N.3   115  TYR115     -0.1241
    185  CA        -4.6160  -26.6800    8.3860 C.3   115  TYR115      0.1605
    186  C         -4.2490  -27.5500    9.5770 C.2   115  TYR115      0.2264
    187  O         -4.0530  -28.7590    9.4260 O.2   115  TYR115     -0.2867
    188  CB        -5.3510  -27.5130    7.3640 C.3   115  TYR115      0.0534
    189  CG        -6.8350  -27.7530    7.5700 C.ar  115  TYR115     -0.0201
    190  CD1       -7.7550  -27.2880    6.6350 C.ar  115  TYR115     -0.0009
    191  CD2       -7.3110  -28.5190    8.6280 C.ar  115  TYR115     -0.0009
    192  CE1       -9.1110  -27.5310    6.7670 C.ar  115  TYR115      0.0417
    193  CE2       -8.6840  -28.7710    8.7750 C.ar  115  TYR115      0.0417
    194  CZ        -9.5740  -28.2670    7.8360 C.ar  115  TYR115      0.1957
    195  OH       -10.9370  -28.5010    7.9380 O.3   115  TYR115     -0.2866
    196  N         -5.1780  -29.3050   12.8540 N.3   117  LEU117     -0.1245
    197  CA        -6.4470  -29.7450   13.4030 C.3   117  LEU117      0.1561
    198  C         -6.2730  -30.6260   14.6410 C.2   117  LEU117      0.2260
    199  O         -5.9190  -31.8160   14.5350 O.2   117  LEU117     -0.2867
    200  CB        -7.2470  -30.4750   12.3280 C.3   117  LEU117      0.0270
    201  CG        -8.6560  -30.9280   12.7050 C.3   117  LEU117      0.0019
    202  CD1       -9.5650  -29.7230   12.9650 C.3   117  LEU117      0.0001
    203  CD2       -9.2230  -31.8020   11.5800 C.3   117  LEU117      0.0001
    204  N         -7.7020  -32.6210   17.8690 N.3   119  PHE119     -0.1241
    205  CA        -8.8630  -33.3450   18.3590 C.3   119  PHE119      0.1605
    206  C         -8.3650  -34.3800   19.3720 C.2   119  PHE119      0.2264
    207  O         -7.1580  -34.5870   19.5290 O.2   119  PHE119     -0.2867
    208  CB        -9.6240  -34.0180   17.2030 C.3   119  PHE119      0.0534
    209  CG        -8.7510  -34.8510   16.3070 C.ar  119  PHE119     -0.0203
    210  CD1       -8.3410  -36.1290   16.7020 C.ar  119  PHE119     -0.0042
    211  CD2       -8.3320  -34.3640   15.0740 C.ar  119  PHE119     -0.0042
    212  CE1       -7.5420  -36.8920   15.8930 C.ar  119  PHE119     -0.0003
    213  CE2       -7.4950  -35.1390   14.2410 C.ar  119  PHE119     -0.0003
    214  CZ        -7.1040  -36.3960   14.6510 C.ar  119  PHE119     -0.0000
    215  N        -11.5910  -41.3320   18.8150 N.3   124  VAL124     -0.1245
    216  CA       -11.4740  -42.1690   17.6260 C.3   124  VAL124      0.1561
    217  C        -11.4150  -43.6440   18.0100 C.2   124  VAL124      0.2260
    218  O        -12.0060  -44.5000   17.3460 O.2   124  VAL124     -0.2867
    219  CB       -10.2270  -41.7970   16.8000 C.3   124  VAL124      0.0252
    220  CG1       -9.9440  -42.8550   15.7570 C.3   124  VAL124      0.0019
    221  CG2      -10.4090  -40.4100   16.1610 C.3   124  VAL124      0.0019
@<TRIPOS>BOND
     1    17    18    1
     2    19    18    1
     3    19    20    2
     4    18    21    1
     5    21    22    1
     6    82    83    2
     7    82    81    1
     8    70    71    1
     9    80    81    1
    10    80    72   am
    11    84    81    1
    12    84    85    1
    13    22    24   ar
    14    22    23   ar
    15    72    71    1
    16    72    73    2
    17    71    74    1
    18    88    89    1
    19    27    24   ar
    20    27    29   ar
    21     9    10    1
    22    24    26   ar
    23    23    25   ar
    24    90    89    1
    25    90    91    2
    26    85    86    1
    27    10    11    1
    28    10    13    1
    29    74    75    1
    30    29    30   ar
    31    89    92    1
    32    12    11    2
    33    99   100    1
    34    16    14    1
    35    92    93    1
    36    95    93   ar
    37    95    97   ar
    38    26    25   ar
    39    26    28   ar
    40    87    86    1
    41    14    13    1
    42    14    15    1
    43    30    28   ar
    44    93    94   ar
    45    75    76   ar
    46    75    77   ar
    47    97    98   ar
    48   100   103    1
    49   100   101    1
    50   114   113    2
    51     3     4    2
    52     3     2    1
    53     1     2    1
    54    76    78   ar
    55    77    79   ar
    56   103   104    1
    57    31    32    1
    58   111   101   am
    59   111   112    1
    60    35    32    1
    61    35    36    1
    62   101   102    2
    63     2     5    1
    64   113   112    1
    65    94    96   ar
    66    98    96   ar
    67   190   192   ar
    68   190   189   ar
    69    38    36    1
    70   192   194   ar
    71    32    33    1
    72    78    79   ar
    73   112   115    1
    74    36    37    1
    75   188   189    1
    76   188   185    1
    77   104   105   ar
    78   104   106   ar
    79   189   191   ar
    80   122   121    2
    81   105   107   ar
    82     5     6    1
    83   119   120    1
    84   184   185    1
    85   194   195    1
    86   194   193   ar
    87   125   123    1
    88    34    33    2
    89   115   116    1
    90   185   186    1
    91   106   108   ar
    92   136   134   ar
    93   136   137   ar
    94   191   193   ar
    95    50    49    1
    96     6     8    1
    97     6     7    1
    98   121   120    1
    99   120   123    1
   100   107   109   ar
   101   116   117    1
   102   123   124    1
   103   134   132   ar
   104    69    68    1
   105   187   186    2
   106   137   135   ar
   107   151   152    2
   108   151   150    1
   109    67    68   ar
   110    67    65   ar
   111    49    48   ar
   112    49    47   ar
   113   108   109   ar
   114    68    66   ar
   115   109   110    1
   116    48    46   ar
   117    65    63   ar
   118   117   118    1
   119   150   149    1
   120   150   153    1
   121    47    45   ar
   122   124   126    1
   123   132   131    1
   124   132   133   ar
   125   127   128    1
   126   135   133   ar
   127   131   128    1
   128    46    44   ar
   129    66    64   ar
   130   153   154    1
   131    63    64   ar
   132    63    62    1
   133    45    44   ar
   134   203   201    1
   135   130   129    2
   136   128   129    1
   137    44    43    1
   138    59    60    1
   139    59    62    1
   140    59    58    1
   141    60    61    2
   142    39    40    1
   143   154   156   ar
   144   154   155   ar
   145   200   201    1
   146   200   197    1
   147   148   147   ar
   148   148   146   ar
   149   156   158   ar
   150   147   145   ar
   151   201   202    1
   152   196   197    1
   153    43    40    1
   154   146   144   ar
   155   155   157   ar
   156    40    41    1
   157   145   143   ar
   158   197   198    1
   159   183   182    1
   160   144   143   ar
   161   158   157   ar
   162   143   142    1
   163   182   180   ar
   164   182   181   ar
   165   166   164    1
   166   213   214   ar
   167   213   211   ar
   168   180   178   ar
   169    56    57    1
   170    56    55    1
   171   181   179   ar
   172    41    42    2
   173   199   198    2
   174   142   139    1
   175   214   212   ar
   176    57    51    1
   177   178   177   ar
   178   179   177   ar
   179   211   209   ar
   180   177   176    1
   181   163   164    1
   182   163   160    1
   183   164   165    1
   184    54    53    2
   185    55    52    1
   186   220   219    1
   187   159   160    1
   188   176   173    1
   189   162   161    2
   190   212   210   ar
   191    51    52    1
   192   221   219    1
   193   139   140    1
   194   139   138    1
   195   160   161    1
   196   209   210   ar
   197   209   208    1
   198    53    52    1
   199   140   141    2
   200   219   216    1
   201   171   168    1
   202   208   205    1
   203   173   174    1
   204   173   172    1
   205   218   217    2
   206   216   217    1
   207   216   215    1
   208   170   169    2
   209   174   175    2
   210   204   205    1
   211   167   168    1
   212   168   169    1
   213   205   206    1
   214   206   207    2
