@<TRIPOS>MOLECULE
tmp/4j93A01.pdb
 97 90 0 0 0
SMALL
GASTEIGER

@<TRIPOS>ATOM
      1  N          2.4650    3.1640   12.4870 N.3    53  ASN53      -0.1240
      2  CA         1.0230    3.1440   12.6910 C.3    53  ASN53       0.1653
      3  C          0.6450    3.2310   14.1650 C.2    53  ASN53       0.2266
      4  O         -0.3340    3.8810   14.5230 O.2    53  ASN53      -0.2867
      5  CB         0.4030    1.9120   12.0390 C.3    53  ASN53       0.1155
      6  CG         0.3520    2.0300   10.5340 C.2    53  ASN53       0.2627
      7  OD1        0.2180    3.1290   10.0020 O.2    53  ASN53      -0.2716
      8  ND2        0.4740    0.9040    9.8380 N.am   53  ASN53      -0.0877
      9  N          0.9680    6.8600   15.0420 N.3    56  LEU56      -0.1231
     10  CA        -0.1430    7.6300   14.4980 C.3    56  LEU56       0.1693
     11  C         -1.4590    7.3300   15.2190 C.2    56  LEU56       0.2592
     12  O         -2.2800    8.2250   15.4130 O.2    56  LEU56      -0.2718
     13  CB        -0.2760    7.4090   12.9890 C.3    56  LEU56       0.0284
     14  CG         0.9410    7.8590   12.1650 C.3    56  LEU56       0.0019
     15  CD1        0.7040    7.6640   10.6770 C.3    56  LEU56       0.0001
     16  CD2        1.2980    9.3100   12.4710 C.3    56  LEU56       0.0001
     17  N         -1.6540    6.0820   15.6330 N.am   57  ASN57      -0.1974
     18  CA        -2.8630    5.7210   16.3740 C.3    57  ASN57       0.1688
     19  C         -3.0100    6.4840   17.6930 C.2    57  ASN57       0.2292
     20  O         -4.1180    6.8630   18.0780 O.2    57  ASN57      -0.2864
     21  CB        -2.9150    4.2150   16.6490 C.3    57  ASN57       0.1181
     22  CG        -3.1180    3.3950   15.3910 C.2    57  ASN57       0.2629
     23  OD1       -3.6240    3.8910   14.3820 O.2    57  ASN57      -0.2716
     24  ND2       -2.7270    2.1280   15.4460 N.am   57  ASN57      -0.0877
     25  N         -4.9600    9.6680   17.3360 N.3    60  GLY60      -0.1225
     26  CA        -6.1520    9.5650   16.5130 C.3    60  GLY60       0.1811
     27  C         -7.2460   10.5340   16.9230 C.2    60  GLY60       0.2280
     28  O         -8.2230   10.7160   16.1980 O.2    60  GLY60      -0.2866
     29  N         -5.7120   13.5240   11.2160 N.3    66  MET66      -0.1245
     30  CA        -5.5070   12.1120   10.9120 C.3    66  MET66       0.1570
     31  C         -6.0740   11.7180    9.5530 C.2    66  MET66       0.2261
     32  O         -5.5110   10.8680    8.8630 O.2    66  MET66      -0.2867
     33  CB        -6.0830   11.2220   12.0150 C.3    66  MET66       0.0387
     34  CG        -5.2670   11.2280   13.2980 C.3    66  MET66       0.0595
     35  SD        -3.5200   10.8550   13.0280 S.3    66  MET66      -0.1393
     36  CE        -2.8050   12.4970   13.0460 C.3    66  MET66       0.0692
     37  N         -3.7280   12.9480    6.9550 N.3    69  LEU69      -0.1231
     38  CA        -2.5930   12.0380    6.9140 C.3    69  LEU69       0.1693
     39  C         -2.9290   10.7890    6.1100 C.2    69  LEU69       0.2591
     40  O         -2.1630   10.3820    5.2330 O.2    69  LEU69      -0.2718
     41  CB        -2.1400   11.6610    8.3300 C.3    69  LEU69       0.0284
     42  CG        -0.7290   12.1100    8.7190 C.3    69  LEU69       0.0019
     43  CD1       -0.3920   11.6490   10.1260 C.3    69  LEU69       0.0001
     44  CD2        0.3030   11.5950    7.7170 C.3    69  LEU69       0.0001
     45  N         -4.0750   10.1800    6.4060 N.am   70  LYS70      -0.1980
     46  CA        -4.4800    8.9630    5.7100 C.3    70  LYS70       0.1596
     47  C         -4.6030    9.1740    4.2020 C.2    70  LYS70       0.2287
     48  O         -4.2290    8.3060    3.4160 O.2    70  LYS70      -0.2864
     49  CB        -5.7900    8.4130    6.2810 C.3    70  LYS70       0.0298
     50  CG        -5.6440    7.7660    7.6470 C.3    70  LYS70       0.0038
     51  CD        -6.9770    7.2500    8.1680 C.3    70  LYS70       0.0206
     52  CE        -6.8540    6.7750    9.6070 C.3    70  LYS70       0.1093
     53  NZ        -8.1840    6.4800   10.2090 N.3    70  LYS70      -0.1314
     54  N         -1.2100    9.5030    2.5830 N.3    73  ILE73      -0.1231
     55  CA        -0.6330    8.1710    2.4960 C.3    73  ILE73       0.1692
     56  C         -1.2210    7.4010    1.3150 C.2    73  ILE73       0.2592
     57  O         -0.4980    6.7300    0.5780 O.2    73  ILE73      -0.2718
     58  CB        -0.8340    7.4140    3.8130 C.3    73  ILE73       0.0266
     59  CG1        0.0490    8.0380    4.8980 C.3    73  ILE73       0.0019
     60  CG2       -0.5260    5.9370    3.6400 C.3    73  ILE73       0.0020
     61  CD1       -0.2730    7.5690    6.3020 C.3    73  ILE73       0.0001
     62  N         -2.5330    7.5160    1.1220 N.am   74  ASN74      -0.1974
     63  CA        -3.1890    6.8880   -0.0200 C.3    74  ASN74       0.1688
     64  C         -2.6260    7.3830   -1.3480 C.2    74  ASN74       0.2292
     65  O         -2.3620    6.5940   -2.2500 O.2    74  ASN74      -0.2864
     66  CB        -4.7040    7.1200    0.0260 C.3    74  ASN74       0.1181
     67  CG        -5.3840    6.3090    1.1100 C.2    74  ASN74       0.2629
     68  OD1       -4.8260    5.3310    1.6110 O.2    74  ASN74      -0.2716
     69  ND2       -6.6000    6.7040    1.4710 N.am   74  ASN74      -0.0877
     70  N          2.5160    0.8980    3.8560 N.3   105  ALA105     -0.1231
     71  CA         1.7460    1.5810    4.8880 C.3   105  ALA105      0.1694
     72  C          1.3440    0.6420    6.0200 C.2   105  ALA105      0.2593
     73  O          0.7240    1.0670    6.9930 O.2   105  ALA105     -0.2718
     74  CB         0.5160    2.2490    4.2910 C.3   105  ALA105      0.0304
     75  N          1.6920   -0.6350    5.8820 N.am  106  GLY106     -0.1942
     76  CA         1.4460   -1.6140    6.9250 C.3   106  GLY106      0.2014
     77  C          0.0020   -2.0720    6.9830 C.2   106  GLY106      0.2639
     78  O         -0.3970   -2.7740    7.9100 O.2   106  GLY106     -0.2714
     79  N         -0.7820   -1.6800    5.9860 N.am  107  THR107     -0.1950
     80  CA        -2.2060   -2.0070    5.9470 C.3   107  THR107      0.1897
     81  C         -2.4490   -3.4520    5.5310 C.2   107  THR107      0.2313
     82  O         -3.3410   -4.1240    6.0530 O.2   107  THR107     -0.2863
     83  CB        -2.9530   -1.0930    4.9530 C.3   107  THR107      0.1794
     84  OG1       -2.7150    0.2790    5.2900 O.3   107  THR107     -0.2208
     85  CG2       -4.4510   -1.3710    4.9850 C.3   107  THR107      0.0378
     86  N          7.6490    4.6970    4.2240 N.3   130  TYR130     -0.1241
     87  CA         6.3900    5.0750    4.8540 C.3   130  TYR130      0.1605
     88  C          6.5660    6.3610    5.6590 C.2   130  TYR130      0.2264
     89  O          5.6860    7.2250    5.6800 O.2   130  TYR130     -0.2867
     90  CB         5.9020    3.9470    5.7650 C.3   130  TYR130      0.0534
     91  CG         4.4920    4.1050    6.2890 C.ar  130  TYR130     -0.0201
     92  CD1        3.5330    4.8210    5.5800 C.ar  130  TYR130     -0.0009
     93  CD2        4.1180    3.5250    7.4960 C.ar  130  TYR130     -0.0009
     94  CE1        2.2400    4.9570    6.0630 C.ar  130  TYR130      0.0417
     95  CE2        2.8340    3.6530    7.9830 C.ar  130  TYR130      0.0417
     96  CZ         1.8970    4.3730    7.2680 C.ar  130  TYR130      0.1957
     97  OH         0.6170    4.4970    7.7640 O.3   130  TYR130     -0.2866
@<TRIPOS>BOND
     1    65    64    2
     2    64    63    1
     3    63    66    1
     4    63    62    1
     5    66    67    1
     6    57    56    2
     7    67    69   am
     8    67    68    2
     9    62    56   am
    10    56    55    1
    11    55    54    1
    12    55    58    1
    13    48    47    2
    14    60    58    1
    15    58    59    1
    16    70    71    1
    17    47    46    1
    18    86    87    1
    19    74    71    1
    20    87    88    1
    21    87    90    1
    22    71    72    1
    23    59    61    1
    24    83    85    1
    25    83    84    1
    26    83    80    1
    27    40    39    2
    28    81    80    1
    29    81    82    2
    30    92    94   ar
    31    92    91   ar
    32    88    89    2
    33    46    49    1
    34    46    45    1
    35    90    91    1
    36    75    72   am
    37    75    76    1
    38    80    79    1
    39    79    77   am
    40    72    73    2
    41    94    96   ar
    42    39    45   am
    43    39    38    1
    44    49    50    1
    45    91    93   ar
    46    38    37    1
    47    38    41    1
    48    76    77    1
    49    77    78    2
    50    96    97    1
    51    96    95   ar
    52    93    95   ar
    53    50    51    1
    54    44    42    1
    55    51    52    1
    56    41    42    1
    57    42    43    1
    58    32    31    2
    59    31    30    1
    60    52    53    1
    61     8     6   am
    62     7     6    2
    63     6     5    1
    64    15    14    1
    65    30    29    1
    66    30    33    1
    67    33    34    1
    68     5     2    1
    69    14    16    1
    70    14    13    1
    71     1     2    1
    72     2     3    1
    73    13    10    1
    74    35    36    1
    75    35    34    1
    76     3     4    2
    77    23    22    2
    78    10     9    1
    79    10    11    1
    80    11    12    2
    81    11    17   am
    82    22    24   am
    83    22    21    1
    84    17    18    1
    85    28    27    2
    86    18    21    1
    87    18    19    1
    88    26    27    1
    89    26    25    1
    90    19    20    2
