@<TRIPOS>MOLECULE
tmp/4j95D00.pdb
 168 159 0 0 0
SMALL
GASTEIGER

@<TRIPOS>ATOM
      1  N         36.5920   28.3560   -0.9620 N.3    21  LEU21      -0.1231
      2  CA        36.9160   28.5670   -2.3730 C.3    21  LEU21       0.1693
      3  C         38.1390   29.4640   -2.4760 C.2    21  LEU21       0.2593
      4  O         38.7610   29.5720   -3.5320 O.2    21  LEU21      -0.2718
      5  CB        35.7370   29.1840   -3.1270 C.3    21  LEU21       0.0284
      6  CG        34.4770   28.3210   -3.2370 C.3    21  LEU21       0.0019
      7  CD1       33.2660   29.1380   -3.6630 C.3    21  LEU21       0.0001
      8  CD2       34.7100   27.1850   -4.2170 C.3    21  LEU21       0.0001
      9  N         38.4670   30.1170   -1.3690 N.am   22  GLY22      -0.1942
     10  CA        39.6580   30.9370   -1.2840 C.3    22  GLY22       0.2014
     11  C         39.5200   32.1380   -0.3730 C.2    22  GLY22       0.2639
     12  O         38.4640   32.7670   -0.2850 O.2    22  GLY22      -0.2714
     13  N         40.6130   32.4400    0.3180 N.am   23  GLU23      -0.1963
     14  CA        40.7220   33.6180    1.1620 C.3    23  GLU23       0.1733
     15  C         41.5630   34.6650    0.4470 C.2    23  GLU23       0.2617
     16  O         42.3090   34.3420   -0.4780 O.2    23  GLU23      -0.2715
     17  CB        41.3470   33.2680    2.5110 C.3    23  GLU23       0.0429
     18  CG        42.7660   32.7470    2.4080 C.3    23  GLU23       0.1163
     19  CD        43.4130   32.5330    3.7620 C.2    23  GLU23       0.3649
     20  OE1       42.6800   32.4780    4.7730 O.co2  23  GLU23      -0.2457
     21  OE2       44.6580   32.4430    3.8150 O.co2  23  GLU23      -0.2457
     22  N         41.4250   35.9210    0.8520 N.am   24  GLY24      -0.1940
     23  CA        42.1910   36.9890    0.2430 C.3    24  GLY24       0.2014
     24  C         42.6990   37.9500    1.2990 C.2    24  GLY24       0.2639
     25  O         42.9530   37.5530    2.4390 O.2    24  GLY24      -0.2714
     26  N         42.8380   39.2160    0.9230 N.am   25  ALA25      -0.1963
     27  CA        43.3380   40.2460    1.8290 C.3    25  ALA25       0.1728
     28  C         42.3480   40.5050    2.9560 C.2    25  ALA25       0.2616
     29  O         42.7000   40.4270    4.1350 O.2    25  ALA25      -0.2715
     30  CB        43.6290   41.5360    1.0730 C.3    25  ALA25       0.0334
     31  N         41.1060   40.8050    2.5880 N.am   26  PHE26      -0.1960
     32  CA        40.1140   41.2190    3.5700 C.3    26  PHE26       0.1774
     33  C         38.9020   40.3010    3.6870 C.2    26  PHE26       0.2659
     34  O         37.8660   40.7040    4.2170 O.2    26  PHE26      -0.2711
     35  CB        39.6560   42.6590    3.3010 C.3    26  PHE26       0.0574
     36  CG        38.7910   42.8150    2.0750 C.ar   26  PHE26      -0.0200
     37  CD1       39.3560   42.8650    0.8110 C.ar   26  PHE26      -0.0042
     38  CD2       37.4120   42.9380    2.1920 C.ar   26  PHE26      -0.0042
     39  CE1       38.5640   43.0170   -0.3150 C.ar   26  PHE26      -0.0003
     40  CE2       36.6140   43.0890    1.0700 C.ar   26  PHE26      -0.0003
     41  CZ        37.1910   43.1290   -0.1840 C.ar   26  PHE26      -0.0000
     42  N         39.0290   39.0650    3.2160 N.am   27  GLY27      -0.1730
     43  CA        37.9370   38.1200    3.3480 C.2    27  GLY27       0.1340
     44  C         38.1820   36.7500    2.7530 C.2    27  GLY27       0.2521
     45  O         39.2310   36.4820    2.1660 O.2    27  GLY27      -0.2816
     46  N         35.9380   33.2360    0.7990 N.3    29  VAL29      -0.1245
     47  CA        34.7390   32.7940    0.1120 C.3    29  VAL29       0.1561
     48  C         34.6460   31.2890    0.3020 C.2    29  VAL29       0.2260
     49  O         35.6300   30.5770    0.1020 O.2    29  VAL29      -0.2867
     50  CB        34.7930   33.1230   -1.3930 C.3    29  VAL29       0.0252
     51  CG1       33.5090   32.6900   -2.0780 C.3    29  VAL29       0.0019
     52  CG2       35.0210   34.6050   -1.6020 C.3    29  VAL29       0.0019
     53  N         27.8690   30.6740   -3.3040 N.3    49  ALA49      -0.1245
     54  CA        29.1480   31.1040   -2.7670 C.3    49  ALA49       0.1562
     55  C         28.8700   32.1340   -1.6910 C.2    49  ALA49       0.2260
     56  O         28.0160   33.0060   -1.8680 O.2    49  ALA49      -0.2867
     57  CB        30.0150   31.7000   -3.8690 C.3    49  ALA49       0.0290
     58  N         30.5240   35.0710    0.8410 N.3    51  LYS51      -0.1245
     59  CA        31.6550   35.9170    1.1850 C.3    51  LYS51       0.1561
     60  C         31.4820   36.4290    2.6130 C.2    51  LYS51       0.2260
     61  O         30.4240   36.9450    2.9820 O.2    51  LYS51      -0.2867
     62  CB        31.7900   37.0640    0.1800 C.3    51  LYS51       0.0271
     63  CG        33.1460   37.7510    0.1870 C.3    51  LYS51       0.0035
     64  CD        33.2970   38.6410   -1.0400 C.3    51  LYS51       0.0206
     65  CE        34.6170   39.3910   -1.0330 C.3    51  LYS51       0.1093
     66  NZ        34.7670   40.2300   -2.2530 N.3    51  LYS51      -0.1314
     67  N         28.0070   38.3150  -11.8760 N.3    82  ILE82      -0.1245
     68  CA        27.7360   37.4990  -10.6990 C.3    82  ILE82       0.1561
     69  C         26.6780   38.2410   -9.8680 C.2    82  ILE82       0.2260
     70  O         26.8500   39.4030   -9.4850 O.2    82  ILE82      -0.2867
     71  CB        29.0500   37.1730   -9.9070 C.3    82  ILE82       0.0252
     72  CG1       29.1410   35.6760   -9.5980 C.3    82  ILE82       0.0019
     73  CG2       29.2050   37.9860   -8.6310 C.3    82  ILE82       0.0019
     74  CD1       29.7880   34.8670  -10.6900 C.3    82  ILE82       0.0001
     75  N         26.2820   34.8250   -2.9970 N.3    98  VAL98      -0.1231
     76  CA        26.3150   35.1140   -4.4270 C.3    98  VAL98       0.1692
     77  C         26.3300   33.8340   -5.2480 C.2    98  VAL98       0.2592
     78  O         26.5410   32.7390   -4.7160 O.2    98  VAL98      -0.2718
     79  CB        27.5460   35.9710   -4.8160 C.3    98  VAL98       0.0266
     80  CG1       27.5930   37.2470   -3.9870 C.3    98  VAL98       0.0020
     81  CG2       28.8280   35.1760   -4.6500 C.3    98  VAL98       0.0020
     82  N         26.1160   33.9890   -6.5490 N.am   99  GLU99      -0.1966
     83  CA        26.0970   32.8630   -7.4720 C.3    99  GLU99       0.1733
     84  C         27.4060   32.0980   -7.4570 C.2    99  GLU99       0.2616
     85  O         28.4820   32.6910   -7.4140 O.2    99  GLU99      -0.2715
     86  CB        25.8100   33.3470   -8.8920 C.3    99  GLU99       0.0429
     87  CG        24.5730   34.2090   -9.0030 C.3    99  GLU99       0.1163
     88  CD        24.3050   34.6470  -10.4220 C.2    99  GLU99       0.3649
     89  OE1       25.2790   34.8010  -11.1900 O.co2  99  GLU99      -0.2457
     90  OE2       23.1230   34.8400  -10.7690 O.co2  99  GLU99      -0.2457
     91  N         27.3060   30.7770   -7.4980 N.am  100  TYR100     -0.1960
     92  CA        28.4890   29.9370   -7.4970 C.3   100  TYR100      0.1771
     93  C         28.9040   29.6730   -8.9340 C.2   100  TYR100      0.2619
     94  O         28.0780   29.3020   -9.7710 O.2   100  TYR100     -0.2715
     95  CB        28.2150   28.6180   -6.7730 C.3   100  TYR100      0.0574
     96  CG        29.3190   27.5940   -6.9210 C.ar  100  TYR100     -0.0198
     97  CD1       30.5640   27.7930   -6.3340 C.ar  100  TYR100     -0.0009
     98  CD2       29.1160   26.4310   -7.6530 C.ar  100  TYR100     -0.0009
     99  CE1       31.5720   26.8600   -6.4660 C.ar  100  TYR100      0.0417
    100  CE2       30.1170   25.4900   -7.7880 C.ar  100  TYR100      0.0417
    101  CZ        31.3440   25.7100   -7.1960 C.ar  100  TYR100      0.1957
    102  OH        32.3490   24.7790   -7.3320 O.3   100  TYR100     -0.2866
    103  N         30.1890   29.8520   -9.2100 N.am  101  ALA101     -0.1977
    104  CA        30.7340   29.5620  -10.5270 C.3   101  ALA101      0.1597
    105  C         31.6780   28.3810  -10.3740 C.2   101  ALA101      0.2287
    106  O         32.7390   28.5010   -9.7580 O.2   101  ALA101     -0.2864
    107  CB        31.4580   30.7690  -11.0830 C.3   101  ALA101      0.0319
    108  N         35.5020   28.5060  -11.6380 N.3   104  GLY104     -0.1210
    109  CA        36.4760   29.4180  -11.0590 C.3   104  GLY104      0.1956
    110  C         36.7330   30.7070  -11.8230 C.2   104  GLY104      0.2611
    111  O         35.9250   31.1360  -12.6520 O.2   104  GLY104     -0.2717
    112  N         37.8830   31.3160  -11.5540 N.am  105  ASN105     -0.1974
    113  CA        38.2270   32.5960  -12.1660 C.3   105  ASN105      0.1688
    114  C         38.8520   32.4490  -13.5500 C.2   105  ASN105      0.2292
    115  O         39.5160   31.4520  -13.8380 O.2   105  ASN105     -0.2864
    116  CB        39.1010   33.4440  -11.2310 C.3   105  ASN105      0.1181
    117  CG        40.4910   32.8700  -11.0430 C.2   105  ASN105      0.2629
    118  OD1       41.3530   32.9790  -11.9180 O.2   105  ASN105     -0.2716
    119  ND2       40.7180   32.2550   -9.8890 N.am  105  ASN105     -0.0877
    120  N         42.6610   31.4690  -14.2390 N.3   108  GLU108     -0.1245
    121  CA        42.9510   30.0680  -13.9800 C.3   108  GLU108      0.1567
    122  C         42.1810   29.1790  -14.9540 C.2   108  GLU108      0.2260
    123  O         42.6500   28.1070  -15.3400 O.2   108  GLU108     -0.2867
    124  CB        42.6330   29.7220  -12.5230 C.3   108  GLU108      0.0388
    125  CG        43.6020   30.3620  -11.5280 C.3   108  GLU108      0.1160
    126  CD        43.0960   30.3320  -10.0930 C.2   108  GLU108      0.3649
    127  OE1       41.8810   30.1200   -9.8880 O.co2 108  GLU108     -0.2457
    128  OE2       43.9140   30.5390   -9.1690 O.co2 108  GLU108     -0.2457
    129  N         41.3330   37.6560  -12.9920 N.3   148  ARG148     -0.1231
    130  CA        41.1500   37.0170  -11.6920 C.3   148  ARG148      0.1694
    131  C         39.8280   37.4400  -11.0430 C.2   148  ARG148      0.2592
    132  O         39.3610   36.8000  -10.0990 O.2   148  ARG148     -0.2718
    133  CB        42.3270   37.3430  -10.7690 C.3   148  ARG148      0.0321
    134  CG        42.4270   38.8190  -10.4230 C.3   148  ARG148      0.0489
    135  CD        43.6630   39.1480   -9.6030 C.3   148  ARG148      0.2205
    136  NE        43.5740   40.5040   -9.0730 N.pl3 148  ARG148     -0.0865
    137  CZ        44.0910   41.5700   -9.6710 C.cat 148  ARG148      0.5346
    138  NH1       44.7480   41.4360  -10.8160 N.pl3 148  ARG148      0.1354
    139  NH2       43.9460   42.7690   -9.1290 N.pl3 148  ARG148      0.1354
    140  N         39.2430   38.5290  -11.5390 N.am  149  ASN149     -0.1974
    141  CA        37.9580   39.0020  -11.0310 C.3   149  ASN149      0.1688
    142  C         36.8120   38.7320  -12.0000 C.2   149  ASN149      0.2292
    143  O         35.7420   39.3340  -11.8990 O.2   149  ASN149     -0.2864
    144  CB        38.0120   40.4830  -10.6460 C.3   149  ASN149      0.1181
    145  CG        38.8080   40.7300   -9.3730 C.2   149  ASN149      0.2629
    146  OD1       38.9530   39.8400   -8.5320 O.2   149  ASN149     -0.2716
    147  ND2       39.3110   41.9490   -9.2190 N.am  149  ASN149     -0.0877
    148  N         34.5140   35.4450  -13.2880 N.3   151  LEU151     -0.1245
    149  CA        34.2220   34.0740  -12.8770 C.3   151  LEU151      0.1561
    150  C         33.5240   33.2960  -13.9870 C.2   151  LEU151      0.2260
    151  O         32.7500   33.8640  -14.7600 O.2   151  LEU151     -0.2867
    152  CB        33.3670   34.0610  -11.6060 C.3   151  LEU151      0.0270
    153  CG        34.0540   34.6030  -10.3470 C.3   151  LEU151      0.0019
    154  CD1       33.1060   34.6290   -9.1560 C.3   151  LEU151      0.0001
    155  CD2       35.3070   33.8040  -10.0280 C.3   151  LEU151      0.0001
    156  N         32.9010   39.7620  -11.5940 N.3   161  ALA161     -0.1231
    157  CA        32.7630   39.5950  -10.1530 C.3   161  ALA161      0.1694
    158  C         33.6180   40.5940   -9.3810 C.2   161  ALA161      0.2592
    159  O         34.2370   41.4830   -9.9740 O.2   161  ALA161     -0.2718
    160  CB        33.1340   38.1710   -9.7590 C.3   161  ALA161      0.0304
    161  N         33.6210   40.4400   -8.0570 N.am  162  ASP162     -0.1974
    162  CA        34.4700   41.2060   -7.1440 C.3   162  ASP162      0.1709
    163  C         34.1260   42.6900   -7.2100 C.2   162  ASP162      0.2293
    164  O         34.8420   43.4750   -7.8320 O.2   162  ASP162     -0.2864
    165  CB        35.9590   40.9760   -7.4360 C.3   162  ASP162      0.1436
    166  CG        36.8630   41.4410   -6.3000 C.2   162  ASP162      0.3671
    167  OD1       36.4020   42.2210   -5.4370 O.co2 162  ASP162     -0.2456
    168  OD2       38.0410   41.0190   -6.2690 O.co2 162  ASP162     -0.2456
@<TRIPOS>BOND
     1   123   122    2
     2   122   121    1
     3   151   150    2
     4   120   121    1
     5   150   149    1
     6   121   124    1
     7   115   114    2
     8   114   113    1
     9   148   149    1
    10   129   130    1
    11   149   152    1
    12   111   110    2
    13   124   125    1
    14   113   112    1
    15   113   116    1
    16   142   143    2
    17   142   141    1
    18   118   117    2
    19    67    68    1
    20   110   112   am
    21   110   109    1
    22   130   131    1
    23   130   133    1
    24   108   109    1
    25   152   153    1
    26   156   157    1
    27   140   131   am
    28   140   141    1
    29   125   126    1
    30   116   117    1
    31    89    88   ar
    32   107   104    1
    33   117   119   am
    34   131   132    2
    35   141   144    1
    36   138   137    1
    37   133   134    1
    38    90    88   ar
    39    68    71    1
    40    68    69    1
    41    74    72    1
    42   144   145    1
    43   104   105    1
    44   104   103    1
    45   134   135    1
    46    88    87    1
    47   105   106    2
    48   153   155    1
    49   153   154    1
    50   157   160    1
    51   157   158    1
    52   126   127   ar
    53   126   128   ar
    54   159   158    2
    55    71    72    1
    56    71    73    1
    57    69    70    2
    58    94    93    2
    59   137   139    1
    60   137   136    2
    61   135   136    1
    62   158   161   am
    63   145   147   am
    64   145   146    2
    65   103    93   am
    66    87    86    1
    67    93    92    1
    68    86    83    1
    69   161   162    1
    70   164   163    2
    71   100    98   ar
    72   100   101   ar
    73    98    96   ar
    74    91    92    1
    75    91    84   am
    76    92    95    1
    77    83    84    1
    78    83    82    1
    79    84    85    2
    80   165   162    1
    81   165   166    1
    82   102   101    1
    83   163   162    1
    84   101    99   ar
    85    96    95    1
    86    96    97   ar
    87    82    77   am
    88    99    97   ar
    89   166   168   ar
    90   166   167   ar
    91    77    78    2
    92    77    76    1
    93    79    81    1
    94    79    76    1
    95    79    80    1
    96    76    75    1
    97     8     6    1
    98    57    54    1
    99     7     6    1
   100     4     3    2
   101    53    54    1
   102     6     5    1
   103     5     2    1
   104    54    55    1
   105     3     2    1
   106     3     9   am
   107     2     1    1
   108    66    65    1
   109    51    50    1
   110    56    55    2
   111    52    50    1
   112    50    47    1
   113     9    10    1
   114    10    11    1
   115    64    65    1
   116    64    63    1
   117    16    15    2
   118    11    12    2
   119    11    13   am
   120    39    41   ar
   121    39    37   ar
   122    41    40   ar
   123    49    48    2
   124    47    48    1
   125    47    46    1
   126    62    63    1
   127    62    59    1
   128    23    22    1
   129    23    24    1
   130    13    14    1
   131    15    22   am
   132    15    14    1
   133    37    36   ar
   134    58    59    1
   135    26    24   am
   136    26    27    1
   137    40    38   ar
   138    30    27    1
   139    14    17    1
   140    59    60    1
   141    24    25    2
   142    27    28    1
   143    36    38   ar
   144    36    35    1
   145    45    44    2
   146    18    17    1
   147    18    19    1
   148    31    28   am
   149    31    32    1
   150    60    61    2
   151    44    43    1
   152    28    29    2
   153    42    43    2
   154    42    33    1
   155    35    32    1
   156    32    33    1
   157    33    34    2
   158    19    21   ar
   159    19    20   ar
