@<TRIPOS>MOLECULE
tmp/4j97A00.pdb
 126 116 0 0 0
SMALL
GASTEIGER

@<TRIPOS>ATOM
      1  N          4.4560  -18.5930    7.7480 N.3    20  LEU20      -0.1231
      2  CA         3.8870  -17.3500    8.2540 C.3    20  LEU20       0.1693
      3  C          2.3760  -17.3560    8.0650 C.2    20  LEU20       0.2593
      4  O          1.6740  -16.4670    8.5460 O.2    20  LEU20      -0.2718
      5  CB         4.4980  -16.1510    7.5300 C.3    20  LEU20       0.0284
      6  CG         6.0270  -16.0990    7.5300 C.3    20  LEU20       0.0019
      7  CD1        6.5370  -14.8740    6.7830 C.3    20  LEU20       0.0001
      8  CD2        6.5560  -16.1260    8.9520 C.3    20  LEU20       0.0001
      9  N          1.8840  -18.3680    7.3580 N.am   21  GLY21      -0.1942
     10  CA         0.4700  -18.4870    7.0580 C.3    21  GLY21       0.2014
     11  C          0.2450  -19.2340    5.7570 C.2    21  GLY21       0.2638
     12  O          1.0140  -19.0850    4.8070 O.2    21  GLY21      -0.2714
     13  N         -0.8110  -20.0420    5.7160 N.am   22  GLU22      -0.1977
     14  CA        -1.1100  -20.8530    4.5410 C.3    22  GLU22       0.1602
     15  C         -2.5960  -21.1840    4.4570 C.2    22  GLU22       0.2287
     16  O         -2.9830  -22.3540    4.4740 O.2    22  GLU22      -0.2864
     17  CB        -0.2880  -22.1440    4.5630 C.3    22  GLU22       0.0415
     18  CG        -0.5630  -22.9970    5.7880 C.3    22  GLU22       0.1163
     19  CD         0.2870  -24.2530    5.8450 C.2    22  GLU22       0.3649
     20  OE1        1.1620  -24.4240    4.9470 O.co2  22  GLU22      -0.2457
     21  OE2        0.0880  -25.0750    6.7600 O.co2  22  GLU22      -0.2457
     22  N         -0.4120  -19.2730   -2.2850 N.3    23  GLY23      -0.1225
     23  CA        -0.2590  -20.5670   -1.6470 C.3    23  GLY23       0.1811
     24  C          0.1360  -20.4520   -0.1870 C.2    23  GLY23       0.2280
     25  O         -0.6920  -20.1420    0.6680 O.2    23  GLY23      -0.2866
     26  N          3.2720  -18.9860    2.6140 N.3    25  VAL25      -0.1245
     27  CA         4.4530  -18.1670    2.8460 C.3    25  VAL25       0.1561
     28  C          5.2200  -18.6840    4.0560 C.2    25  VAL25       0.2260
     29  O          4.6300  -18.9650    5.0990 O.2    25  VAL25      -0.2867
     30  CB         4.0840  -16.6900    3.0750 C.3    25  VAL25       0.0252
     31  CG1        5.3390  -15.8570    3.2880 C.3    25  VAL25       0.0019
     32  CG2        3.2840  -16.1590    1.8970 C.3    25  VAL25       0.0019
     33  N         11.0240  -13.5880    3.3130 N.3    43  ALA43      -0.1245
     34  CA         9.7890  -14.3480    3.1900 C.3    43  ALA43       0.1562
     35  C          9.7450  -15.0080    1.8190 C.2    43  ALA43       0.2260
     36  O          9.9790  -14.3600    0.7980 O.2    43  ALA43      -0.2867
     37  CB         8.5850  -13.4450    3.3860 C.3    43  ALA43       0.0290
     38  N          5.9310   -3.8920   -0.8520 N.3    76  ILE76      -0.1245
     39  CA         6.7040   -5.0940   -0.5600 C.3    76  ILE76       0.1561
     40  C          7.7180   -5.3660   -1.6680 C.2    76  ILE76       0.2260
     41  O          7.3730   -5.4190   -2.8480 O.2    76  ILE76      -0.2867
     42  CB         5.7920   -6.3230   -0.3300 C.3    76  ILE76       0.0252
     43  CG1        5.4570   -6.4530    1.1550 C.3    76  ILE76       0.0019
     44  CG2        6.4650   -7.6040   -0.7990 C.3    76  ILE76       0.0019
     45  CD1        6.6820   -6.6060    2.0470 C.3    76  ILE76       0.0001
     46  N         10.5290  -12.5820   -1.1420 N.3    92  VAL92      -0.1231
     47  CA        10.1540  -11.1920   -0.9150 C.3    92  VAL92       0.1692
     48  C         10.6350  -10.6890    0.4450 C.2    92  VAL92       0.2592
     49  O         11.0240  -11.4720    1.3130 O.2    92  VAL92      -0.2718
     50  CB         8.6260  -10.9990   -0.9960 C.3    92  VAL92       0.0266
     51  CG1        8.0850  -11.5660   -2.2960 C.3    92  VAL92       0.0020
     52  CG2        7.9470  -11.6610    0.1920 C.3    92  VAL92       0.0020
     53  N         10.5980   -9.3710    0.6130 N.am   93  GLU93      -0.1966
     54  CA        10.9530   -8.7210    1.8670 C.3    93  GLU93       0.1733
     55  C         10.0600   -9.1880    3.0120 C.2    93  GLU93       0.2616
     56  O          8.8480   -9.3320    2.8470 O.2    93  GLU93      -0.2715
     57  CB        10.8410   -7.2050    1.7040 C.3    93  GLU93       0.0429
     58  CG        10.8840   -6.4190    3.0010 C.3    93  GLU93       0.1163
     59  CD        10.5830   -4.9480    2.7950 C.2    93  GLU93       0.3649
     60  OE1       10.8920   -4.1460    3.7010 O.co2  93  GLU93      -0.2457
     61  OE2       10.0360   -4.5950    1.7270 O.co2  93  GLU93      -0.2457
     62  N         10.6700   -9.4200    4.1710 N.am   94  TYR94      -0.1960
     63  CA         9.9510   -9.8680    5.3590 C.3    94  TYR94       0.1771
     64  C          9.3530   -8.7000    6.1410 C.2    94  TYR94       0.2619
     65  O          9.9850   -7.6570    6.2970 O.2    94  TYR94      -0.2715
     66  CB        10.8800  -10.6800    6.2630 C.3    94  TYR94       0.0574
     67  CG        10.2990  -10.9760    7.6270 C.ar   94  TYR94      -0.0198
     68  CD1        9.2850  -11.9120    7.7830 C.ar   94  TYR94      -0.0009
     69  CD2       10.7660  -10.3220    8.7580 C.ar   94  TYR94      -0.0009
     70  CE1        8.7520  -12.1850    9.0270 C.ar   94  TYR94       0.0417
     71  CE2       10.2400  -10.5880   10.0040 C.ar   94  TYR94       0.0417
     72  CZ         9.2340  -11.5210   10.1340 C.ar   94  TYR94       0.1957
     73  OH         8.7060  -11.7890   11.3760 O.3    94  TYR94      -0.2866
     74  N          8.1340   -8.8920    6.6370 N.am   95  ALA95      -0.1977
     75  CA         7.4230   -7.8610    7.3850 C.3    95  ALA95       0.1597
     76  C          7.2820   -8.2350    8.8600 C.2    95  ALA95       0.2287
     77  O          6.5590   -9.1700    9.2090 O.2    95  ALA95      -0.2864
     78  CB         6.0590   -7.6040    6.7660 C.3    95  ALA95       0.0319
     79  N          3.4660   -8.0560   10.4770 N.3    98  GLY98      -0.1210
     80  CA         2.3450   -8.7370    9.8580 C.3    98  GLY98       0.1956
     81  C          1.4160   -7.8470    9.0580 C.2    98  GLY98       0.2611
     82  O          1.7740   -6.7280    8.6860 O.2    98  GLY98      -0.2717
     83  N          0.2140   -8.3520    8.7930 N.am   99  ASN99      -0.1974
     84  CA        -0.7420   -7.6280    7.9690 C.3    99  ASN99       0.1688
     85  C         -1.4890   -6.5440    8.7370 C.2    99  ASN99       0.2292
     86  O         -1.7150   -6.6590    9.9380 O.2    99  ASN99      -0.2864
     87  CB        -1.7140   -8.5800    7.2610 C.3    99  ASN99       0.1181
     88  CG        -2.7230   -9.2020    8.2040 C.2    99  ASN99       0.2629
     89  OD1       -3.7370   -8.5900    8.5410 O.2    99  ASN99      -0.2716
     90  ND2       -2.4580  -10.4350    8.6230 N.am   99  ASN99      -0.0877
     91  N         -4.9710   -7.3420   11.1440 N.3   102  GLU102     -0.1245
     92  CA        -4.7560   -7.8720   12.4880 C.3   102  GLU102      0.1567
     93  C         -3.9630   -6.8880   13.3450 C.2   102  GLU102      0.2260
     94  O         -4.1440   -6.8220   14.5600 O.2   102  GLU102     -0.2867
     95  CB        -4.0380   -9.2210   12.4220 C.3   102  GLU102      0.0388
     96  CG        -4.7960  -10.2800   11.6370 C.3   102  GLU102      0.1160
     97  CD        -3.9850  -11.5440   11.4260 C.2   102  GLU102      0.3649
     98  OE1       -4.4180  -12.4040   10.6290 O.co2 102  GLU102     -0.2457
     99  OE2       -2.9140  -11.6770   12.0560 O.co2 102  GLU102     -0.2457
    100  N         -5.9100   -6.5890    4.7310 N.3   148  ARG148     -0.1245
    101  CA        -5.3430   -7.9290    4.8340 C.3   148  ARG148      0.1563
    102  C         -4.1470   -8.1050    3.9010 C.2   148  ARG148      0.2260
    103  O         -3.2710   -8.9280    4.1600 O.2   148  ARG148     -0.2867
    104  CB        -6.4050   -8.9840    4.5170 C.3   148  ARG148      0.0307
    105  CG        -7.0080   -8.8190    3.1310 C.3   148  ARG148      0.0489
    106  CD        -7.9390   -9.9520    2.7480 C.3   148  ARG148      0.2205
    107  NE        -7.9410  -10.1200    1.3000 N.pl3 148  ARG148     -0.0865
    108  CZ        -8.7670   -9.4950    0.4670 C.cat 148  ARG148      0.5346
    109  NH1       -9.6910   -8.6640    0.9320 N.pl3 148  ARG148      0.1354
    110  NH2       -8.6700   -9.7110   -0.8350 N.pl3 148  ARG148      0.1354
    111  N          1.1440   -5.0950    4.5020 N.3   151  LEU151     -0.1245
    112  CA         2.0270   -5.5780    5.5600 C.3   151  LEU151      0.1561
    113  C          2.6780   -4.4200    6.3150 C.2   151  LEU151      0.2260
    114  O          2.9140   -3.3580    5.7420 O.2   151  LEU151     -0.2867
    115  CB         3.0950   -6.5020    4.9690 C.3   151  LEU151      0.0270
    116  CG         2.5700   -7.8040    4.3570 C.3   151  LEU151      0.0019
    117  CD1        3.6810   -8.5710    3.6570 C.3   151  LEU151      0.0001
    118  CD2        1.9180   -8.6670    5.4260 C.3   151  LEU151      0.0001
    119  N          0.7590   -8.7760   -1.8120 N.3   162  ASP162     -0.1239
    120  CA        -0.1800   -9.6620   -2.4970 C.3   162  ASP162      0.1674
    121  C         -0.5000   -9.1890   -3.9090 C.2   162  ASP162      0.2266
    122  O         -1.6050   -8.7220   -4.1790 O.2   162  ASP162     -0.2867
    123  CB        -1.4740   -9.8230   -1.6910 C.3   162  ASP162      0.1410
    124  CG        -1.5140  -11.1140   -0.9010 C.2   162  ASP162      0.3668
    125  OD1       -1.0310  -11.1220    0.2520 O.co2 162  ASP162     -0.2456
    126  OD2       -2.0360  -12.1180   -1.4340 O.co2 162  ASP162     -0.2456
@<TRIPOS>BOND
     1   122   121    2
     2   121   120    1
     3    41    40    2
     4   120   119    1
     5   120   123    1
     6    51    50    1
     7    22    23    1
     8   123   124    1
     9    40    39    1
    10    23    24    1
    11   126   124   ar
    12    46    47    1
    13    50    47    1
    14    50    52    1
    15    47    48    1
    16   124   125   ar
    17    38    39    1
    18   110   108    1
    19    44    42    1
    20    39    42    1
    21    42    43    1
    22    24    25    2
    23    48    53   am
    24    48    49    2
    25   108   109    1
    26   108   107    2
    27    53    54    1
    28    36    35    2
    29    43    45    1
    30   107   106    1
    31    57    54    1
    32    57    58    1
    33    61    59   ar
    34    35    34    1
    35    54    55    1
    36    32    30    1
    37    26    27    1
    38   106   105    1
    39    59    58    1
    40    59    60   ar
    41    27    30    1
    42    27    28    1
    43    56    55    2
    44    55    62   am
    45    30    31    1
    46   105   104    1
    47    34    33    1
    48    34    37    1
    49   117   116    1
    50   102   103    2
    51   102   101    1
    52    28    29    2
    53    62    63    1
    54   116   115    1
    55   116   118    1
    56    15    16    2
    57    15    14    1
    58   111   112    1
    59   104   101    1
    60    14    17    1
    61    14    13    1
    62    17    18    1
    63   100   101    1
    64    12    11    2
    65    20    19   ar
    66   115   112    1
    67    63    64    1
    68    63    66    1
    69   112   113    1
    70    13    11   am
    71   114   113    2
    72    11    10    1
    73    18    19    1
    74    19    21   ar
    75    64    65    2
    76    64    74   am
    77    66    67    1
    78    74    75    1
    79    78    75    1
    80     7     6    1
    81    10     9    1
    82    87    84    1
    83    87    88    1
    84     9     3   am
    85    75    76    1
    86     5     6    1
    87     5     2    1
    88     6     8    1
    89    67    68   ar
    90    67    69   ar
    91     1     2    1
    92    68    70   ar
    93    84    85    1
    94    84    83    1
    95     3     2    1
    96     3     4    2
    97    88    89    2
    98    88    90   am
    99    82    81    2
   100    85    86    2
   101    69    71   ar
   102    83    81   am
   103    76    77    2
   104    70    72   ar
   105    81    80    1
   106    80    79    1
   107    71    72   ar
   108    72    73    1
   109    98    97   ar
   110    91    92    1
   111    97    96    1
   112    97    99   ar
   113    96    95    1
   114    95    92    1
   115    92    93    1
   116    93    94    2
