@<TRIPOS>MOLECULE
tmp/4j99A00.pdb
 156 145 0 0 0
SMALL
GASTEIGER

@<TRIPOS>ATOM
      1  N         18.2020   12.9550   18.4290 N.3    22  LEU22      -0.1231
      2  CA        16.7890   12.6990   18.6620 C.3    22  LEU22       0.1693
      3  C         16.5720   11.7620   19.8220 C.2    22  LEU22       0.2593
      4  O         15.5440   11.8210   20.4910 O.2    22  LEU22      -0.2718
      5  CB        16.1510   12.1030   17.4050 C.3    22  LEU22       0.0284
      6  CG        15.9470   13.1480   16.3020 C.3    22  LEU22       0.0019
      7  CD1       15.5800   12.5080   14.9850 C.3    22  LEU22       0.0001
      8  CD2       14.8650   14.1290   16.7140 C.3    22  LEU22       0.0001
      9  N         17.5560   10.9140   20.0760 N.am   23  GLY23      -0.1942
     10  CA        17.4330    9.9270   21.1250 C.3    23  GLY23       0.2014
     11  C         18.5440    8.8970   21.1480 C.2    23  GLY23       0.2639
     12  O         19.1290    8.5270   20.1280 O.2    23  GLY23      -0.2714
     13  N         18.8650    8.4680   22.3580 N.am   24  GLU24      -0.1963
     14  CA        19.8610    7.4460   22.5800 C.3    24  GLU24       0.1733
     15  C         19.1000    6.2390   23.1190 C.2    24  GLU24       0.2617
     16  O         18.2950    6.3640   24.0480 O.2    24  GLU24      -0.2715
     17  CB        20.9100    7.9610   23.5670 C.3    24  GLU24       0.0429
     18  CG        22.1430    7.1040   23.7140 C.3    24  GLU24       0.1163
     19  CD        23.2750    7.8510   24.4110 C.2    24  GLU24       0.3649
     20  OE1       23.8990    7.2770   25.3300 O.co2  24  GLU24      -0.2457
     21  OE2       23.5330    9.0180   24.0390 O.co2  24  GLU24      -0.2457
     22  N         19.3250    5.0820   22.5140 N.am   25  GLY25      -0.1940
     23  CA        18.6090    3.8870   22.9000 C.3    25  GLY25       0.2014
     24  C         19.5650    2.9430   23.5850 C.2    25  GLY25       0.2638
     25  O         20.5470    3.3770   24.1990 O.2    25  GLY25      -0.2714
     26  N         19.3110    1.6480   23.4490 N.am   26  ALA26      -0.1977
     27  CA        20.1400    0.6590   24.1170 C.3    26  ALA26       0.1597
     28  C         21.4510    0.5020   23.3600 C.2    26  ALA26       0.2287
     29  O         22.5400    0.6190   23.9310 O.2    26  ALA26      -0.2864
     30  CB        19.4040   -0.6750   24.1810 C.3    26  ALA26       0.0319
     31  N         22.2910    2.0530   20.1410 N.3    28  GLY28      -0.1225
     32  CA        22.5590    2.9620   19.0330 C.3    28  GLY28       0.1811
     33  C         22.0510    4.3540   19.3170 C.2    28  GLY28       0.2280
     34  O         21.5050    4.5970   20.3890 O.2    28  GLY28      -0.2866
     35  N         20.1170    7.9950   17.4430 N.3    30  VAL30      -0.1245
     36  CA        19.3620    8.5230   16.3130 C.3    30  VAL30       0.1561
     37  C         19.5390   10.0180   16.2770 C.2    30  VAL30       0.2260
     38  O         19.4180   10.6970   17.3020 O.2    30  VAL30      -0.2867
     39  CB        17.8820    8.1670   16.4440 C.3    30  VAL30       0.0252
     40  CG1       17.0910    8.7010   15.2170 C.3    30  VAL30       0.0019
     41  CG2       17.7430    6.6850   16.5950 C.3    30  VAL30       0.0019
     42  N         15.7610   10.9530    9.6280 N.3    50  ALA50      -0.1245
     43  CA        16.3570   10.4910   10.8840 C.3    50  ALA50       0.1562
     44  C         17.4620    9.5430   10.5290 C.2    50  ALA50       0.2260
     45  O         17.3550    8.8010    9.5650 O.2    50  ALA50      -0.2867
     46  CB        15.3160    9.7910   11.7780 C.3    50  ALA50       0.0290
     47  N         19.9750    6.5150   11.9710 N.3    52  LYS52      -0.1245
     48  CA        20.3680    5.5830   13.0500 C.3    52  LYS52       0.1561
     49  C         21.8230    5.1700   12.8570 C.2    52  LYS52       0.2260
     50  O         22.2510    4.8730   11.7460 O.2    52  LYS52      -0.2867
     51  CB        19.4360    4.3530   13.1110 C.3    52  LYS52       0.0271
     52  CG        19.5240    3.5960   14.4640 C.3    52  LYS52       0.0035
     53  CD        18.3670    2.5930   14.6570 C.3    52  LYS52       0.0206
     54  CE        18.5000    1.8310   15.9770 C.3    52  LYS52       0.1093
     55  NZ        17.3950    0.8420   16.1890 N.3    52  LYS52      -0.1314
     56  N          7.4630    3.3630    9.6040 N.3    83  ILE83      -0.1245
     57  CA         8.6860    4.1250    9.3540 C.3    83  ILE83       0.1561
     58  C          9.4390    3.3780    8.2860 C.2    83  ILE83       0.2260
     59  O          9.8400    2.2330    8.5020 O.2    83  ILE83      -0.2867
     60  CB         9.5870    4.2220   10.6210 C.3    83  ILE83       0.0252
     61  CG1        8.9530    5.1470   11.6580 C.3    83  ILE83       0.0019
     62  CG2       11.0130    4.7030   10.2270 C.3    83  ILE83       0.0019
     63  CD1        8.7920    6.6120   11.1850 C.3    83  ILE83       0.0001
     64  N         16.2000    6.8740    7.7680 N.3    99  VAL99      -0.1231
     65  CA        14.7930    6.5260    7.8020 C.3    99  VAL99       0.1692
     66  C         13.9300    7.7660    7.8870 C.2    99  VAL99       0.2592
     67  O         14.4290    8.8870    8.1470 O.2    99  VAL99      -0.2718
     68  CB        14.4950    5.5650    8.9950 C.3    99  VAL99       0.0266
     69  CG1       15.4150    4.3610    8.9430 C.3    99  VAL99       0.0020
     70  CG2       14.6480    6.2900   10.3320 C.3    99  VAL99       0.0020
     71  N         12.6310    7.5810    7.6520 N.am  100  GLU100     -0.1966
     72  CA        11.6940    8.6890    7.7870 C.3   100  GLU100      0.1733
     73  C         11.7300    9.3370    9.1630 C.2   100  GLU100      0.2616
     74  O         11.7720    8.6520   10.1910 O.2   100  GLU100     -0.2715
     75  CB        10.2560    8.2220    7.4790 C.3   100  GLU100      0.0429
     76  CG        10.0670    7.8080    6.0400 C.3   100  GLU100      0.1163
     77  CD         8.6690    7.2690    5.7530 C.2   100  GLU100      0.3649
     78  OE1        8.2040    7.4700    4.6160 O.co2 100  GLU100     -0.2457
     79  OE2        8.0220    6.7020    6.6660 O.co2 100  GLU100     -0.2457
     80  N         11.6890   10.6690    9.1790 N.am  101  TYR101     -0.1960
     81  CA        11.6680   11.4500   10.4150 C.3   101  TYR101      0.1771
     82  C         10.2530   11.6930   10.9020 C.2   101  TYR101      0.2619
     83  O          9.3810   12.0860   10.1290 O.2   101  TYR101     -0.2715
     84  CB        12.3450   12.7960   10.1650 C.3   101  TYR101      0.0574
     85  CG        12.1920   13.8280   11.2600 C.ar  101  TYR101     -0.0198
     86  CD1       12.7450   13.6340   12.5090 C.ar  101  TYR101     -0.0009
     87  CD2       11.5530   15.0390   11.0060 C.ar  101  TYR101     -0.0009
     88  CE1       12.6280   14.5840   13.4990 C.ar  101  TYR101      0.0417
     89  CE2       11.4370   16.0020   12.0010 C.ar  101  TYR101      0.0417
     90  CZ        11.9780   15.7660   13.2320 C.ar  101  TYR101      0.1957
     91  OH        11.8730   16.7020   14.2340 O.3   101  TYR101     -0.2866
     92  N         10.0390   11.4830   12.1880 N.am  102  ALA102     -0.1977
     93  CA         8.7430   11.7310   12.8080 C.3   102  ALA102      0.1597
     94  C          8.9110   12.7790   13.8980 C.2   102  ALA102      0.2287
     95  O          9.4750   12.5160   14.9510 O.2   102  ALA102     -0.2864
     96  CB         8.1890   10.4420   13.3810 C.3   102  ALA102      0.0319
     97  N          7.7730   12.4690   17.9150 N.3   105  GLY105     -0.1210
     98  CA         8.3490   11.5190   18.8520 C.3   105  GLY105      0.1956
     99  C          7.5160   10.2620   19.0230 C.2   105  GLY105      0.2611
    100  O          6.6360    9.9780   18.2180 O.2   105  GLY105     -0.2717
    101  N          7.7990    9.4920   20.0630 N.am  106  ASN106     -0.1974
    102  CA         7.1130    8.2100   20.2020 C.3   106  ASN106      0.1688
    103  C          5.7230    8.3340   20.8170 C.2   106  ASN106      0.2292
    104  O          5.4150    9.2970   21.5320 O.2   106  ASN106     -0.2864
    105  CB         7.9800    7.1900   20.9500 C.3   106  ASN106      0.1181
    106  CG         8.0630    7.4720   22.4320 C.2   106  ASN106      0.2629
    107  OD1        7.1140    7.2410   23.1790 O.2   106  ASN106     -0.2716
    108  ND2        9.2080    7.9870   22.8720 N.am  106  ASN106     -0.0877
    109  N          7.9020   -6.6850   18.5690 N.3   146  ASP146     -0.1239
    110  CA         8.1560   -5.6540   19.5610 C.3   146  ASP146      0.1674
    111  C          7.1570   -4.5200   19.4120 C.2   146  ASP146      0.2266
    112  O          7.5250   -3.3580   19.4700 O.2   146  ASP146     -0.2867
    113  CB         9.5930   -5.1280   19.4280 C.3   146  ASP146      0.1410
    114  CG        10.0780   -4.3840   20.6500 C.2   146  ASP146      0.3668
    115  OD1        9.4340   -4.4150   21.7200 O.co2 146  ASP146     -0.2456
    116  OD2       11.1750   -3.7830   20.5530 O.co2 146  ASP146     -0.2456
    117  N          5.9050    2.6860   22.7110 N.3   150  ARG150     -0.1231
    118  CA         7.2250    3.2960   22.6450 C.3   150  ARG150      0.1694
    119  C          7.8490    3.1290   21.2620 C.2   150  ARG150      0.2592
    120  O          8.7590    3.8820   20.9030 O.2   150  ARG150     -0.2718
    121  CB         8.1300    2.6720   23.7090 C.3   150  ARG150      0.0321
    122  CG         8.5500    1.2600   23.3390 C.3   150  ARG150      0.0489
    123  CD         9.3280    0.5720   24.5130 C.3   150  ARG150      0.2205
    124  NE         8.5490   -0.5700   24.9940 N.pl3 150  ARG150     -0.0865
    125  CZ         8.5630   -1.7560   24.4050 C.cat 150  ARG150      0.5346
    126  NH1        9.3360   -1.9510   23.3450 N.pl3 150  ARG150      0.1354
    127  NH2        7.8190   -2.7400   24.8730 N.pl3 150  ARG150      0.1354
    128  N          7.3500    2.1480   20.5070 N.am  151  ASN151     -0.1974
    129  CA         7.8320    1.8120   19.1790 C.3   151  ASN151      0.1688
    130  C          6.9130    2.2700   18.0670 C.2   151  ASN151      0.2292
    131  O          7.0040    1.8130   16.9120 O.2   151  ASN151     -0.2864
    132  CB         8.0880    0.3040   19.0790 C.3   151  ASN151      0.1181
    133  CG         9.3310   -0.0960   19.8000 C.2   151  ASN151      0.2629
    134  OD1       10.1510    0.7520   20.0660 O.2   151  ASN151     -0.2716
    135  ND2        9.5120   -1.3780   20.0580 N.am  151  ASN151     -0.0877
    136  N          5.9360    5.8300   16.1470 N.3   153  LEU153     -0.1245
    137  CA         6.3200    7.2320   16.0810 C.3   153  LEU153      0.1561
    138  C          5.1970    8.0550   15.4620 C.2   153  LEU153      0.2260
    139  O          4.3690    7.5330   14.7150 O.2   153  LEU153     -0.2867
    140  CB         7.6280    7.4110   15.2940 C.3   153  LEU153      0.0270
    141  CG         8.8550    6.7400   15.9280 C.3   153  LEU153      0.0019
    142  CD1       10.0580    6.8800   15.0290 C.3   153  LEU153      0.0001
    143  CD2        9.1540    7.2880   17.3090 C.3   153  LEU153      0.0001
    144  N          7.4810    1.5970   14.1480 N.3   163  ALA163     -0.1231
    145  CA         8.9290    1.7500   14.0590 C.3   163  ALA163      0.1694
    146  C          9.6440    0.6270   14.7860 C.2   163  ALA163      0.2592
    147  O          9.0170   -0.3210   15.2660 O.2   163  ALA163     -0.2718
    148  CB         9.3540    3.1050   14.6360 C.3   163  ALA163      0.0304
    149  N         10.9710    0.7370   14.8560 N.am  164  ASP164     -0.1974
    150  CA        11.8170   -0.2270   15.5760 C.3   164  ASP164      0.1709
    151  C         11.7040   -1.6650   15.0800 C.2   164  ASP164      0.2293
    152  O         11.0990   -2.5280   15.7310 O.2   164  ASP164     -0.2864
    153  CB        11.5690   -0.1750   17.0950 C.3   164  ASP164      0.1436
    154  CG        12.6610   -0.9170   17.9040 C.2   164  ASP164      0.3671
    155  OD1       13.4740   -1.6630   17.3080 O.co2 164  ASP164     -0.2456
    156  OD2       12.6980   -0.7560   19.1410 O.co2 164  ASP164     -0.2456
@<TRIPOS>BOND
     1    78    77   ar
     2    77    76    1
     3    77    79   ar
     4    76    75    1
     5    75    72    1
     6    71    72    1
     7    71    66   am
     8    64    65    1
     9    72    73    1
    10    65    66    1
    11    65    68    1
    12    66    67    2
    13    58    59    2
    14    58    57    1
    15    69    68    1
    16    68    70    1
    17    73    80   am
    18    73    74    2
    19    80    81    1
    20    57    56    1
    21    57    60    1
    22    45    44    2
    23    42    43    1
    24    83    82    2
    25    84    81    1
    26    84    85    1
    27    62    60    1
    28    81    82    1
    29    44    43    1
    30    60    61    1
    31    43    46    1
    32    82    92   am
    33    87    85   ar
    34    87    89   ar
    35    63    61    1
    36    85    86   ar
    37    50    49    2
    38    47    48    1
    39    89    90   ar
    40    92    93    1
    41    86    88   ar
    42    93    96    1
    43    93    94    1
    44    49    48    1
    45    48    51    1
    46    51    52    1
    47    90    88   ar
    48    90    91    1
    49    94    95    2
    50   145   144    1
    51   145   148    1
    52   145   146    1
    53    52    53    1
    54    53    54    1
    55   139   138    2
    56   146   149   am
    57   146   147    2
    58   149   150    1
    59     7     6    1
    60   142   141    1
    61   151   150    1
    62   151   152    2
    63    40    39    1
    64   140   141    1
    65   140   137    1
    66   138   137    1
    67   150   153    1
    68   141   143    1
    69    54    55    1
    70   137   136    1
    71    37    36    1
    72    37    38    2
    73     6     8    1
    74     6     5    1
    75    36    39    1
    76    36    35    1
    77    39    41    1
    78   131   130    2
    79   153   154    1
    80   155   154   ar
    81     5     2    1
    82   154   156   ar
    83    97    98    1
    84   130   129    1
    85   100    99    2
    86     1     2    1
    87   109   110    1
    88     2     3    1
    89    98    99    1
    90    99   101   am
    91    32    33    1
    92    32    31    1
    93   132   129    1
    94   132   133    1
    95   129   128    1
    96    33    34    2
    97   111   112    2
    98   111   110    1
    99   113   110    1
   100   113   114    1
   101   133   135   am
   102   133   134    2
   103     3     9   am
   104     3     4    2
   105   101   102    1
   106     9    10    1
   107    12    11    2
   108   102   103    1
   109   102   105    1
   110   128   119   am
   111   116   114   ar
   112   114   115   ar
   113   103   104    2
   114   120   119    2
   115   105   106    1
   116    10    11    1
   117    11    13   am
   118   119   118    1
   119    13    14    1
   120   106   108   am
   121   106   107    2
   122    22    23    1
   123    22    15   am
   124    14    15    1
   125    14    17    1
   126   118   117    1
   127   118   121    1
   128    23    24    1
   129    15    16    2
   130   122   121    1
   131   122   123    1
   132   126   125    1
   133    28    29    2
   134    28    27    1
   135    26    24   am
   136    26    27    1
   137    17    18    1
   138    24    25    2
   139    18    19    1
   140    21    19   ar
   141    27    30    1
   142   125   127    1
   143   125   124    2
   144    19    20   ar
   145   123   124    1
