@<TRIPOS>MOLECULE
tmp/4j9dE00.pdb
 143 145 0 0 0
SMALL
GASTEIGER

@<TRIPOS>ATOM
      1  N        -23.4810   20.8670    4.1480 N.3     9  TYR9       -0.1227
      2  CA       -23.8840   21.5820    5.3610 C.3     9  TYR9        0.1736
      3  C        -25.3950   21.6760    5.3930 C.2     9  TYR9        0.2595
      4  O        -26.0360   21.6240    4.3460 O.2     9  TYR9       -0.2718
      5  CB       -23.3340   23.0110    5.3560 C.3     9  TYR9        0.0548
      6  CG       -21.9320   23.1370    4.8050 C.ar    9  TYR9       -0.0200
      7  CD1      -20.8500   22.5980    5.4860 C.ar    9  TYR9       -0.0009
      8  CD2      -21.6900   23.7820    3.6060 C.ar    9  TYR9       -0.0009
      9  CE1      -19.5680   22.7030    4.9830 C.ar    9  TYR9        0.0417
     10  CE2      -20.4120   23.8890    3.1000 C.ar    9  TYR9        0.0417
     11  CZ       -19.3640   23.3450    3.7860 C.ar    9  TYR9        0.1957
     12  OH       -18.0870   23.4490    3.2770 O.3     9  TYR9       -0.2866
     13  N        -25.9510   21.8140    6.5880 N.am   10  ASP10      -0.1960
     14  CA       -27.3620   22.1410    6.7200 C.3    10  ASP10       0.1840
     15  C        -27.6450   23.4680    6.0210 C.2    10  ASP10       0.2622
     16  O        -26.8140   24.3860    6.0190 O.2    10  ASP10      -0.2715
     17  CB       -27.7620   22.3580    8.1830 C.3    10  ASP10       0.1450
     18  CG       -27.8820   21.0900    8.9920 C.2    10  ASP10       0.3671
     19  OD1      -27.4360   20.0110    8.5610 O.co2  10  ASP10      -0.2456
     20  OD2      -28.4300   21.2060   10.1180 O.co2  10  ASP10      -0.2456
     21  N        -28.8440   23.5930    5.4770 N.am   11  PHE11      -0.1974
     22  CA       -29.3180   24.8650    4.9310 C.3    11  PHE11       0.1639
     23  C        -30.7890   24.9570    5.2540 C.2    11  PHE11       0.2290
     24  O        -31.5520   24.0360    4.9710 O.2    11  PHE11      -0.2864
     25  CB       -29.0910   24.9540    3.4120 C.3    11  PHE11       0.0560
     26  CG       -29.8660   26.0680    2.7560 C.ar   11  PHE11      -0.0200
     27  CD1      -29.4450   27.3750    2.8700 C.ar   11  PHE11      -0.0042
     28  CD2      -31.0270   25.8020    2.0540 C.ar   11  PHE11      -0.0042
     29  CE1      -30.1620   28.3970    2.2770 C.ar   11  PHE11      -0.0003
     30  CE2      -31.7540   26.8080    1.4690 C.ar   11  PHE11      -0.0003
     31  CZ       -31.3300   28.1200    1.5910 C.ar   11  PHE11      -0.0000
     32  N        -35.1830   29.7560    3.2200 N.3    14  SER14      -0.1202
     33  CA       -35.4180   31.1750    3.4740 C.3    14  SER14       0.2020
     34  C        -36.5790   31.6740    2.6210 C.2    14  SER14       0.2619
     35  O        -36.6460   32.8500    2.2830 O.2    14  SER14      -0.2717
     36  CB       -34.1560   31.9950    3.1650 C.3    14  SER14       0.2103
     37  OG       -33.6870   31.7720    1.8370 O.3    14  SER14      -0.2182
     38  N        -37.4890   30.7690    2.2780 N.am   15  GLY15      -0.1942
     39  CA       -38.5800   31.0830    1.3770 C.3    15  GLY15       0.2014
     40  C        -38.0780   31.2550   -0.0460 C.2    15  GLY15       0.2639
     41  O        -37.0110   30.7670   -0.3810 O.2    15  GLY15      -0.2714
     42  N        -38.8470   31.9510   -0.8810 N.am   16  ASP16      -0.1957
     43  CA       -38.4900   32.1380   -2.2900 C.3    16  ASP16       0.1840
     44  C        -38.1380   30.8190   -2.9730 C.2    16  ASP16       0.2622
     45  O        -37.1620   30.7370   -3.7240 O.2    16  ASP16      -0.2715
     46  CB       -37.3200   33.1100   -2.4290 C.3    16  ASP16       0.1450
     47  CG       -37.5880   34.4360   -1.7580 C.2    16  ASP16       0.3671
     48  OD1      -38.4230   35.2060   -2.2740 O.co2  16  ASP16      -0.2456
     49  OD2      -36.9580   34.7060   -0.7180 O.co2  16  ASP16      -0.2456
     50  N        -38.9430   29.7970   -2.7020 N.am   17  ASN17      -0.1958
     51  CA       -38.8080   28.4810   -3.3190 C.3    17  ASN17       0.1819
     52  C        -37.5070   27.7810   -2.9420 C.2    17  ASN17       0.2621
     53  O        -36.9270   27.0790   -3.7380 O.2    17  ASN17      -0.2715
     54  CB       -38.9190   28.5900   -4.8470 C.3    17  ASN17       0.1195
     55  CG       -40.2720   29.1160   -5.3010 C.2    17  ASN17       0.2630
     56  OD1      -40.3510   30.0840   -6.0600 O.2    17  ASN17      -0.2716
     57  ND2      -41.3430   28.4780   -4.8390 N.am   17  ASN17      -0.0877
     58  N        -37.0520   27.9760   -1.7210 N.am   18  THR18      -0.1951
     59  CA       -35.8550   27.2840   -1.2660 C.3    18  THR18       0.1897
     60  C        -36.2520   25.9900   -0.5590 C.2    18  THR18       0.2313
     61  O        -37.4140   25.7860   -0.2140 O.2    18  THR18      -0.2863
     62  CB       -34.9980   28.1690   -0.3390 C.3    18  THR18       0.1794
     63  OG1      -35.7840   28.6390    0.7580 O.3    18  THR18      -0.2208
     64  CG2      -34.4190   29.3550   -1.1020 C.3    18  THR18       0.0378
     65  N        -28.8720   28.2380  -11.2910 N.3    33  ASN33      -0.1225
     66  CA       -29.3660   29.5140  -11.7970 C.3    33  ASN33       0.1785
     67  C        -28.3130   30.2360  -12.6380 C.2    33  ASN33       0.2597
     68  O        -27.2300   29.6970  -12.9080 O.2    33  ASN33      -0.2718
     69  CB       -29.8350   30.4090  -10.6440 C.3    33  ASN33       0.1169
     70  CG       -28.6820   31.0060   -9.8820 C.2    33  ASN33       0.2627
     71  OD1      -27.6340   30.3810   -9.7470 O.2    33  ASN33      -0.2716
     72  ND2      -28.8650   32.2230   -9.3870 N.am   33  ASN33      -0.0877
     73  N        -28.6350   31.4610  -13.0520 N.am   34  HIS34      -0.1975
     74  CA       -27.8660   32.1330  -14.0930 C.3    34  HIS34       0.1656
     75  C        -26.4330   32.4100  -13.6910 C.2    34  HIS34       0.2291
     76  O        -25.5560   32.4330  -14.5490 O.2    34  HIS34      -0.2864
     77  CB       -28.5350   33.4460  -14.4870 C.3    34  HIS34       0.0771
     78  CG       -28.4960   34.4860  -13.4160 C.ar   34  HIS34       0.0820
     79  ND1      -27.5860   35.5200  -13.4210 N.ar   34  HIS34      -0.2267
     80  CD2      -29.2420   34.6410  -12.2950 C.ar   34  HIS34       0.1154
     81  CE1      -27.7830   36.2810  -12.3570 C.ar   34  HIS34       0.1986
     82  NE2      -28.7810   35.7670  -11.6570 N.ar   34  HIS34      -0.2212
     83  N        -24.8970   30.5020   -8.3390 N.3    37  GLU37      -0.1231
     84  CA       -24.9000   30.6040   -6.8780 C.3    37  GLU37       0.1699
     85  C        -25.9700   29.7350   -6.2210 C.2    37  GLU37       0.2592
     86  O        -25.8660   29.3970   -5.0300 O.2    37  GLU37      -0.2718
     87  CB       -25.0920   32.0610   -6.4450 C.3    37  GLU37       0.0402
     88  CG       -23.9060   32.9610   -6.7530 C.3    37  GLU37       0.1161
     89  CD       -22.7280   32.7030   -5.8340 C.2    37  GLU37       0.3649
     90  OE1      -22.8080   33.0840   -4.6470 O.co2  37  GLU37      -0.2457
     91  OE2      -21.7270   32.1140   -6.2940 O.co2  37  GLU37      -0.2457
     92  N        -27.0020   29.3900   -6.9830 N.am   38  TRP38      -0.1976
     93  CA       -28.1110   28.5840   -6.4690 C.3    38  TRP38       0.1640
     94  C        -28.3220   27.3590   -7.3360 C.2    38  TRP38       0.2290
     95  O        -28.1280   27.4060   -8.5570 O.2    38  TRP38      -0.2864
     96  CB       -29.4040   29.3950   -6.4510 C.3    38  TRP38       0.0576
     97  CG       -29.4540   30.4940   -5.4320 C.ar   38  TRP38       0.0006
     98  CD1      -29.2080   31.8230   -5.6320 C.ar   38  TRP38       0.0946
     99  CD2      -29.8000   30.3550   -4.0470 C.ar   38  TRP38       0.0152
    100  NE1      -29.3730   32.5200   -4.4560 N.ar   38  TRP38      -0.2442
    101  CE2      -29.7340   31.6400   -3.4670 C.ar   38  TRP38       0.0810
    102  CE3      -30.1680   29.2700   -3.2450 C.ar   38  TRP38       0.0012
    103  CZ2      -30.0230   31.8650   -2.1240 C.ar   38  TRP38       0.0191
    104  CZ3      -30.4530   29.4970   -1.8970 C.ar   38  TRP38       0.0001
    105  CH2      -30.3740   30.7830   -1.3580 C.ar   38  TRP38       0.0015
    106  N        -34.6550   25.4540   -4.2390 N.3    49  TRP49      -0.1241
    107  CA       -33.3240   25.9980   -4.4360 C.3    49  TRP49       0.1605
    108  C        -32.5020   25.9130   -3.1680 C.2    49  TRP49       0.2264
    109  O        -33.0200   26.1460   -2.0670 O.2    49  TRP49      -0.2867
    110  CB       -33.4240   27.4470   -4.9310 C.3    49  TRP49       0.0550
    111  CG       -34.0500   27.5440   -6.2750 C.ar   49  TRP49       0.0003
    112  CD1      -35.3740   27.7360   -6.5500 C.ar   49  TRP49       0.0946
    113  CD2      -33.3850   27.4480   -7.5410 C.ar   49  TRP49       0.0152
    114  NE1      -35.5720   27.7630   -7.9070 N.ar   49  TRP49      -0.2442
    115  CE2      -34.3690   27.5910   -8.5390 C.ar   49  TRP49       0.0810
    116  CE3      -32.0580   27.2660   -7.9270 C.ar   49  TRP49       0.0012
    117  CZ2      -34.0640   27.5600   -9.9040 C.ar   49  TRP49       0.0191
    118  CZ3      -31.7540   27.2270   -9.2730 C.ar   49  TRP49       0.0001
    119  CH2      -32.7460   27.3800  -10.2490 C.ar   49  TRP49       0.0015
    120  N        -28.1440   26.5660   -1.7630 N.3    51  PRO51      -0.2116
    121  CA       -26.8840   27.1690   -2.2050 C.3    51  PRO51       0.1372
    122  C        -25.9980   26.1640   -2.9200 C.2    51  PRO51       0.2244
    123  O        -25.7750   25.0420   -2.4430 O.2    51  PRO51      -0.2868
    124  CB       -26.2230   27.6190   -0.8940 C.3    51  PRO51       0.0268
    125  CG       -27.3560   27.6740    0.1120 C.3    51  PRO51       0.0207
    126  CD       -28.2790   26.5770   -0.2930 C.3    51  PRO51       0.0892
    127  N        -22.8670   26.1820   -3.1830 N.3    53  ALA53      -0.1231
    128  CA       -21.6970   25.9220   -2.3500 C.3    53  ALA53       0.1694
    129  C        -21.9680   24.9980   -1.1680 C.2    53  ALA53       0.2592
    130  O        -21.0330   24.6310   -0.4510 O.2    53  ALA53      -0.2718
    131  CB       -21.1230   27.2300   -1.8570 C.3    53  ALA53       0.0304
    132  N        -23.2310   24.6320   -0.9490 N.am   54  TYR54      -0.1976
    133  CA       -23.5830   23.7720    0.1790 C.3    54  TYR54       0.1639
    134  C        -23.7370   22.3130   -0.2200 C.2    54  TYR54       0.2290
    135  O        -24.0300   21.4640    0.6220 O.2    54  TYR54      -0.2864
    136  CB       -24.8780   24.2480    0.8490 C.3    54  TYR54       0.0560
    137  CG       -24.6780   25.3790    1.8410 C.ar   54  TYR54      -0.0198
    138  CD1      -25.2690   25.3360    3.0880 C.ar   54  TYR54      -0.0009
    139  CD2      -23.8960   26.4800    1.5270 C.ar   54  TYR54      -0.0009
    140  CE1      -25.0940   26.3650    3.9930 C.ar   54  TYR54       0.0417
    141  CE2      -23.7120   27.5150    2.4120 C.ar   54  TYR54       0.0417
    142  CZ       -24.3020   27.4550    3.6630 C.ar   54  TYR54       0.1957
    143  OH       -24.1290   28.4780    4.5860 O.3    54  TYR54      -0.2866
@<TRIPOS>BOND
     1    76    75    2
     2    77    74    1
     3    77    78    1
     4    74    75    1
     5    74    73    1
     6    79    78   ar
     7    79    81   ar
     8    78    80   ar
     9    73    67   am
    10    68    67    2
    11    67    66    1
    12    81    82   ar
    13    80    82   ar
    14    66    65    1
    15    66    69    1
    16    69    70    1
    17   119   117   ar
    18   119   118   ar
    19   117   115   ar
    20    70    71    2
    21    70    72   am
    22   118   116   ar
    23    95    94    2
    24   115   114   ar
    25   115   113   ar
    26    83    84    1
    27   116   113   ar
    28   114   112   ar
    29   113   111   ar
    30    94    93    1
    31    92    93    1
    32    92    85   am
    33    84    87    1
    34    84    85    1
    35    88    87    1
    36    88    89    1
    37   112   111   ar
    38    93    96    1
    39    96    97    1
    40    91    89   ar
    41   111   110    1
    42    85    86    2
    43    56    55    2
    44    89    90   ar
    45    98    97   ar
    46    98   100   ar
    47    97    99   ar
    48    55    54    1
    49    55    57   am
    50   110   107    1
    51    54    51    1
    52   100   101   ar
    53   107   106    1
    54   107   108    1
    55    99   101   ar
    56    99   102   ar
    57    53    52    2
    58    45    44    2
    59   101   103   ar
    60    51    52    1
    61    51    50    1
    62   102   104   ar
    63   127   128    1
    64   108   109    2
    65    44    50   am
    66    44    43    1
    67    52    58   am
    68   122   123    2
    69   122   121    1
    70    46    43    1
    71    46    47    1
    72   128   131    1
    73   128   129    1
    74    43    42    1
    75    48    47   ar
    76   121   120    1
    77   121   124    1
    78   103   105   ar
    79   104   105   ar
    80   120   126    1
    81    47    49   ar
    82    58    59    1
    83    59    60    1
    84    59    62    1
    85   129   132   am
    86   129   130    2
    87    64    62    1
    88   132   133    1
    89   124   125    1
    90    42    40   am
    91    60    61    2
    92    41    40    2
    93    62    63    1
    94   126   125    1
    95   134   133    1
    96   134   135    2
    97    40    39    1
    98   133   136    1
    99   136   137    1
   100    39    38    1
   101    30    31   ar
   102    30    28   ar
   103   139   137   ar
   104   139   141   ar
   105    31    29   ar
   106    37    36    1
   107   137   138   ar
   108    28    26   ar
   109    29    27   ar
   110    38    34   am
   111    35    34    2
   112   141   142   ar
   113    34    33    1
   114    26    27   ar
   115    26    25    1
   116   138   140   ar
   117    10     8   ar
   118    10    11   ar
   119    36    33    1
   120    32    33    1
   121    12    11    1
   122    25    22    1
   123     8     6   ar
   124   142   140   ar
   125   142   143    1
   126    11     9   ar
   127     1     2    1
   128     4     3    2
   129     6     5    1
   130     6     7   ar
   131    22    23    1
   132    22    21    1
   133    24    23    2
   134     9     7   ar
   135     5     2    1
   136     2     3    1
   137     3    13   am
   138    21    15   am
   139    16    15    2
   140    15    14    1
   141    13    14    1
   142    14    17    1
   143    17    18    1
   144    19    18   ar
   145    18    20   ar
