@<TRIPOS>MOLECULE
tmp/4j9hA00.pdb
 146 148 0 0 0
SMALL
GASTEIGER

@<TRIPOS>ATOM
      1  N        -12.7750  -15.8020  -19.4120 N.3     9  TYR9       -0.1227
      2  CA       -11.9740  -15.7550  -18.1970 C.3     9  TYR9        0.1736
      3  C        -11.1610  -14.4690  -18.1390 C.2     9  TYR9        0.2595
      4  O        -10.9440  -13.8080  -19.1570 O.2     9  TYR9       -0.2718
      5  CB       -10.9970  -16.9300  -18.1400 C.3     9  TYR9        0.0548
      6  CG       -11.4980  -18.2140  -18.7560 C.ar    9  TYR9       -0.0200
      7  CD1      -12.4110  -19.0200  -18.0920 C.ar    9  TYR9       -0.0009
      8  CD2      -11.0320  -18.6350  -19.9950 C.ar    9  TYR9       -0.0009
      9  CE1      -12.8600  -20.2000  -18.6540 C.ar    9  TYR9        0.0417
     10  CE2      -11.4740  -19.8130  -20.5630 C.ar    9  TYR9        0.0417
     11  CZ       -12.3870  -20.5920  -19.8890 C.ar    9  TYR9        0.1957
     12  OH       -12.8310  -21.7660  -20.4530 O.3     9  TYR9       -0.2866
     13  N        -10.7140  -14.1230  -16.9370 N.am   10  ASP10      -0.1960
     14  CA        -9.7410  -13.0570  -16.7530 C.3    10  ASP10       0.1840
     15  C         -8.4360  -13.4060  -17.4580 C.2    10  ASP10       0.2622
     16  O         -8.0230  -14.5650  -17.4810 O.2    10  ASP10      -0.2715
     17  CB        -9.4500  -12.8580  -15.2630 C.3    10  ASP10       0.1450
     18  CG       -10.5400  -12.0950  -14.5430 C.2    10  ASP10       0.3671
     19  OD1      -11.7060  -12.1380  -14.9850 O.co2  10  ASP10      -0.2456
     20  OD2      -10.2290  -11.4710  -13.5080 O.co2  10  ASP10      -0.2456
     21  N         -7.7920  -12.3960  -18.0310 N.am   11  PHE11      -0.1974
     22  CA        -6.4630  -12.5570  -18.6050 C.3    11  PHE11       0.1639
     23  C         -5.6500  -11.3060  -18.3100 C.2    11  PHE11       0.2290
     24  O         -6.0220  -10.2060  -18.7140 O.2    11  PHE11      -0.2864
     25  CB        -6.5310  -12.7920  -20.1140 C.3    11  PHE11       0.0560
     26  CG        -5.2010  -12.6560  -20.8070 C.ar   11  PHE11      -0.0200
     27  CD1       -4.2500  -13.6600  -20.7150 C.ar   11  PHE11      -0.0042
     28  CD2       -4.9030  -11.5250  -21.5480 C.ar   11  PHE11      -0.0042
     29  CE1       -3.0260  -13.5380  -21.3480 C.ar   11  PHE11      -0.0003
     30  CE2       -3.6790  -11.3980  -22.1860 C.ar   11  PHE11      -0.0003
     31  CZ        -2.7410  -12.4060  -22.0840 C.ar   11  PHE11      -0.0000
     32  N          0.7060   -9.7080  -20.3520 N.3    14  SER14      -0.1202
     33  CA         2.0820  -10.0780  -20.0560 C.3    14  SER14       0.2020
     34  C          3.0190   -9.2390  -20.9090 C.2    14  SER14       0.2619
     35  O          4.0910   -9.6970  -21.3020 O.2    14  SER14      -0.2717
     36  CB         2.3130  -11.5570  -20.3570 C.3    14  SER14       0.2103
     37  OG         1.8720  -11.8740  -21.6670 O.3    14  SER14      -0.2182
     38  N          2.6210   -8.0030  -21.1860 N.am   15  GLY15      -0.1942
     39  CA         3.4120   -7.1590  -22.0550 C.3    15  GLY15       0.2014
     40  C          3.3520   -7.6730  -23.4820 C.2    15  GLY15       0.2639
     41  O          2.5070   -8.5050  -23.8100 O.2    15  GLY15      -0.2714
     42  N          4.2470   -7.1820  -24.3320 N.am   16  ASP16      -0.1957
     43  CA         4.3120   -7.6210  -25.7200 C.3    16  ASP16       0.1840
     44  C          2.9700   -7.4300  -26.4140 C.2    16  ASP16       0.2622
     45  O          2.4600   -8.3380  -27.0690 O.2    16  ASP16      -0.2715
     46  CB         4.7170   -9.0940  -25.7850 C.3    16  ASP16       0.1450
     47  CG         6.0820   -9.3490  -25.1800 C.2    16  ASP16       0.3671
     48  OD1        6.9880   -8.5150  -25.3770 O.co2  16  ASP16      -0.2456
     49  OD2        6.2370  -10.3660  -24.4760 O.co2  16  ASP16      -0.2456
     50  N          2.4100   -6.2350  -26.2640 N.am   17  ASN17      -0.1958
     51  CA         1.2040   -5.8480  -26.9840 C.3    17  ASN17       0.1819
     52  C         -0.0360   -6.6580  -26.6020 C.2    17  ASN17       0.2621
     53  O         -1.0110   -6.6910  -27.3500 O.2    17  ASN17      -0.2715
     54  CB         1.4400   -5.8930  -28.4980 C.3    17  ASN17       0.1195
     55  CG         2.4840   -4.8880  -28.9590 C.2    17  ASN17       0.2630
     56  OD1        3.0750   -4.1780  -28.1450 O.2    17  ASN17      -0.2716
     57  ND2        2.7380   -4.8480  -30.2620 N.am   17  ASN17      -0.0877
     58  N         -0.0080   -7.3020  -25.4390 N.am   18  THR18      -0.1951
     59  CA        -1.1710   -8.0540  -24.9730 C.3    18  THR18       0.1897
     60  C         -2.1100   -7.1150  -24.2250 C.2    18  THR18       0.2313
     61  O         -1.7090   -6.0290  -23.8080 O.2    18  THR18      -0.2863
     62  CB        -0.7880   -9.2460  -24.0640 C.3    18  THR18       0.1794
     63  OG1       -0.0270   -8.7880  -22.9390 O.3    18  THR18      -0.2208
     64  CG2        0.0030  -10.2920  -24.8460 C.3    18  THR18       0.0378
     65  N         -3.5250  -14.4120  -34.9960 N.3    33  ASN33      -0.1225
     66  CA        -2.1550  -14.5410  -35.4750 C.3    33  ASN33       0.1785
     67  C         -1.9930  -15.7760  -36.3520 C.2    33  ASN33       0.2597
     68  O         -2.9670  -16.4650  -36.6510 O.2    33  ASN33      -0.2718
     69  CB        -1.1770  -14.5780  -34.2990 C.3    33  ASN33       0.1169
     70  CG        -1.1990  -15.8990  -33.5610 C.2    33  ASN33       0.2627
     71  OD1       -2.2370  -16.5510  -33.4650 O.2    33  ASN33      -0.2716
     72  ND2       -0.0510  -16.2950  -33.0230 N.am   33  ASN33      -0.0877
     73  N         -0.7580  -16.0600  -36.7490 N.am   34  HIS34      -0.1975
     74  CA        -0.4900  -17.0610  -37.7760 C.3    34  HIS34       0.1656
     75  C         -0.9170  -18.4790  -37.3960 C.2    34  HIS34       0.2291
     76  O         -1.3070  -19.2580  -38.2650 O.2    34  HIS34      -0.2864
     77  CB         0.9960  -17.0480  -38.1360 C.3    34  HIS34       0.0771
     78  CG         1.8830  -17.5720  -37.0500 C.ar   34  HIS34       0.0820
     79  ND1        2.3540  -18.8650  -37.0320 N.ar   34  HIS34      -0.2267
     80  CD2        2.3760  -16.9740  -35.9380 C.ar   34  HIS34       0.1154
     81  CE1        3.1070  -19.0420  -35.9590 C.ar   34  HIS34       0.1986
     82  NE2        3.1340  -17.9120  -35.2800 N.ar   34  HIS34      -0.2212
     83  N         -3.3860  -19.0260  -32.0870 N.3    37  GLU37      -0.1231
     84  CA        -3.3090  -19.0860  -30.6290 C.3    37  GLU37       0.1699
     85  C         -3.6110  -17.7390  -29.9790 C.2    37  GLU37       0.2592
     86  O         -4.1220  -17.6850  -28.8590 O.2    37  GLU37      -0.2718
     87  CB        -1.9270  -19.5670  -30.1870 C.3    37  GLU37       0.0402
     88  CG        -1.6250  -21.0100  -30.5490 C.3    37  GLU37       0.1161
     89  CD        -0.2620  -21.4570  -30.0600 C.2    37  GLU37       0.3649
     90  OE1        0.5310  -20.5900  -29.6370 O.co2  37  GLU37      -0.2457
     91  OE2        0.0150  -22.6730  -30.1010 O.co2  37  GLU37      -0.2457
     92  N         -3.3020  -16.6580  -30.6880 N.am   38  TRP38      -0.1976
     93  CA        -3.5210  -15.3130  -30.1710 C.3    38  TRP38       0.1640
     94  C         -4.5730  -14.5790  -30.9930 C.2    38  TRP38       0.2290
     95  O         -4.6990  -14.7930  -32.1980 O.2    38  TRP38      -0.2864
     96  CB        -2.2180  -14.5100  -30.1880 C.3    38  TRP38       0.0576
     97  CG        -1.2220  -14.9200  -29.1440 C.ar   38  TRP38       0.0006
     98  CD1       -0.1100  -15.6860  -29.3320 C.ar   38  TRP38       0.0946
     99  CD2       -1.2430  -14.5790  -27.7510 C.ar   38  TRP38       0.0152
    100  NE1        0.5630  -15.8430  -28.1460 N.ar   38  TRP38      -0.2442
    101  CE2       -0.1120  -15.1740  -27.1590 C.ar   38  TRP38       0.0810
    102  CE3       -2.1080  -13.8280  -26.9480 C.ar   38  TRP38       0.0012
    103  CZ2        0.1770  -15.0440  -25.8020 C.ar   38  TRP38       0.0191
    104  CZ3       -1.8190  -13.7000  -25.6000 C.ar   38  TRP38       0.0001
    105  CH2       -0.6860  -14.3050  -25.0410 C.ar   38  TRP38       0.0015
    106  N         -3.4290   -8.1570  -27.8320 N.3    49  TRP49      -0.1241
    107  CA        -3.5810   -9.5850  -28.0620 C.3    49  TRP49       0.1605
    108  C         -4.0510  -10.3190  -26.8060 C.2    49  TRP49       0.2264
    109  O         -3.5550  -10.0740  -25.7070 O.2    49  TRP49      -0.2867
    110  CB        -2.2610  -10.1710  -28.5620 C.3    49  TRP49       0.0550
    111  CG        -1.8450   -9.6210  -29.8960 C.ar   49  TRP49       0.0003
    112  CD1       -1.0700   -8.5210  -30.1240 C.ar   49  TRP49       0.0946
    113  CD2       -2.1890  -10.1440  -31.1850 C.ar   49  TRP49       0.0152
    114  NE1       -0.9090   -8.3280  -31.4760 N.ar   49  TRP49      -0.2442
    115  CE2       -1.5850   -9.3110  -32.1480 C.ar   49  TRP49       0.0810
    116  CE3       -2.9460  -11.2360  -31.6170 C.ar   49  TRP49       0.0012
    117  CZ2       -1.7160   -9.5380  -33.5180 C.ar   49  TRP49       0.0191
    118  CZ3       -3.0760  -11.4590  -32.9750 C.ar   49  TRP49       0.0001
    119  CH2       -2.4640  -10.6130  -33.9090 C.ar   49  TRP49       0.0015
    120  N         -5.6200  -14.4470  -25.4290 N.3    51  PRO51      -0.2116
    121  CA        -5.6880  -15.8530  -25.8440 C.3    51  PRO51       0.1372
    122  C         -6.9730  -16.1520  -26.6110 C.2    51  PRO51       0.2244
    123  O         -8.0570  -15.7830  -26.1590 O.2    51  PRO51      -0.2868
    124  CB        -5.6640  -16.6150  -24.5140 C.3    51  PRO51       0.0268
    125  CG        -5.0940  -15.6490  -23.5180 C.3    51  PRO51       0.0207
    126  CD        -5.5700  -14.3040  -23.9640 C.3    51  PRO51       0.0892
    127  N         -8.7070  -18.8310  -27.0720 N.3    53  ASN53      -0.1225
    128  CA        -9.6990  -19.6550  -26.3900 C.3    53  ASN53       0.1785
    129  C        -10.0960  -19.0980  -25.0230 C.2    53  ASN53       0.2597
    130  O        -10.6910  -19.8020  -24.2070 O.2    53  ASN53      -0.2718
    131  CB        -9.2310  -21.1110  -26.2860 C.3    53  ASN53       0.1169
    132  CG        -7.8910  -21.2530  -25.6020 C.2    53  ASN53       0.2627
    133  OD1       -7.4630  -20.3730  -24.8550 O.2    53  ASN53      -0.2716
    134  ND2       -7.2180  -22.3710  -25.8540 N.am   53  ASN53      -0.0877
    135  N         -9.7700  -17.8300  -24.7830 N.am   54  TYR54      -0.1976
    136  CA       -10.2610  -17.1210  -23.6050 C.3    54  TYR54       0.1639
    137  C        -11.4900  -16.2810  -23.9420 C.2    54  TYR54       0.2290
    138  O        -12.0210  -15.5830  -23.0790 O.2    54  TYR54      -0.2864
    139  CB        -9.1750  -16.2150  -23.0210 C.3    54  TYR54       0.0560
    140  CG        -8.2730  -16.8880  -22.0110 C.ar   54  TYR54      -0.0198
    141  CD1       -7.6710  -18.1080  -22.2860 C.ar   54  TYR54      -0.0009
    142  CD2       -8.0270  -16.3000  -20.7790 C.ar   54  TYR54      -0.0009
    143  CE1       -6.8440  -18.7210  -21.3600 C.ar   54  TYR54       0.0417
    144  CE2       -7.2060  -16.9020  -19.8500 C.ar   54  TYR54       0.0417
    145  CZ        -6.6160  -18.1110  -20.1430 C.ar   54  TYR54       0.1957
    146  OH        -5.7980  -18.7070  -19.2130 O.3    54  TYR54      -0.2866
@<TRIPOS>BOND
     1    76    75    2
     2    77    74    1
     3    77    78    1
     4    74    75    1
     5    74    73    1
     6    78    79   ar
     7    78    80   ar
     8    79    81   ar
     9    73    67   am
    10    68    67    2
    11    67    66    1
    12    81    82   ar
    13    80    82   ar
    14    66    65    1
    15    66    69    1
    16    69    70    1
    17   119   117   ar
    18   119   118   ar
    19    70    71    2
    20    70    72   am
    21   117   115   ar
    22   118   116   ar
    23    95    94    2
    24   115   114   ar
    25   115   113   ar
    26    83    84    1
    27   116   113   ar
    28   114   112   ar
    29   113   111   ar
    30    94    93    1
    31    92    93    1
    32    92    85   am
    33    84    87    1
    34    84    85    1
    35    88    87    1
    36    88    89    1
    37    57    55   am
    38    96    93    1
    39    96    97    1
    40   112   111   ar
    41    91    89   ar
    42    89    90   ar
    43    85    86    2
    44   111   110    1
    45    98    97   ar
    46    98   100   ar
    47    97    99   ar
    48    55    54    1
    49    55    56    2
    50   110   107    1
    51    54    51    1
    52   100   101   ar
    53   107   106    1
    54   107   108    1
    55    99   101   ar
    56    99   102   ar
    57    53    52    2
    58   101   103   ar
    59   127   128    1
    60    45    44    2
    61    51    52    1
    62    51    50    1
    63   102   104   ar
    64   108   109    2
    65   122   123    2
    66   122   121    1
    67    52    58   am
    68    44    50   am
    69    44    43    1
    70   128   131    1
    71   128   129    1
    72   131   132    1
    73   134   132   am
    74   121   120    1
    75   121   124    1
    76   103   105   ar
    77    46    43    1
    78    46    47    1
    79    43    42    1
    80   132   133    2
    81   104   105   ar
    82    58    59    1
    83   120   126    1
    84    48    47   ar
    85    47    49   ar
    86   129   135   am
    87   129   130    2
    88    59    60    1
    89    59    62    1
    90    64    62    1
    91   135   136    1
    92   124   125    1
    93    42    40   am
    94    60    61    2
    95    62    63    1
    96   126   125    1
    97   137   136    1
    98   137   138    2
    99    41    40    2
   100   136   139    1
   101    40    39    1
   102   139   140    1
   103   141   140   ar
   104   141   143   ar
   105    30    31   ar
   106    30    28   ar
   107    31    29   ar
   108    39    38    1
   109   140   142   ar
   110    37    36    1
   111    28    26   ar
   112   143   145   ar
   113    29    27   ar
   114    35    34    2
   115    38    34   am
   116    34    33    1
   117    26    27   ar
   118    26    25    1
   119   142   144   ar
   120    10     8   ar
   121    10    11   ar
   122    12    11    1
   123    36    33    1
   124    32    33    1
   125   145   144   ar
   126   145   146    1
   127    25    22    1
   128     8     6   ar
   129    11     9   ar
   130     1     2    1
   131     4     3    2
   132     6     5    1
   133     6     7   ar
   134    24    23    2
   135     9     7   ar
   136    22    23    1
   137    22    21    1
   138     2     5    1
   139     2     3    1
   140     3    13   am
   141    21    15   am
   142    16    15    2
   143    15    14    1
   144    13    14    1
   145    14    17    1
   146    17    18    1
   147    19    18   ar
   148    18    20   ar
