@<TRIPOS>MOLECULE
tmp/4j9iE00.pdb
 146 148 0 0 0
SMALL
GASTEIGER

@<TRIPOS>ATOM
      1  N         30.5150   10.0690   -3.2180 N.3     7  TYR7       -0.1227
      2  CA        31.2930   10.1140   -1.9680 C.3     7  TYR7        0.1736
      3  C         32.1550   11.3550   -1.9080 C.2     7  TYR7        0.2595
      4  O         32.3970   11.9530   -2.9100 O.2     7  TYR7       -0.2718
      5  CB        32.2390    8.9400   -1.8610 C.3     7  TYR7        0.0548
      6  CG        31.8120    7.6890   -2.5550 C.ar    7  TYR7       -0.0200
      7  CD1       30.8310    6.8970   -2.0330 C.ar    7  TYR7       -0.0009
      8  CD2       32.4110    7.2790   -3.7180 C.ar    7  TYR7       -0.0009
      9  CE1       30.4600    5.7340   -2.6530 C.ar    7  TYR7        0.0417
     10  CE2       32.0430    6.1270   -4.3500 C.ar    7  TYR7        0.0417
     11  CZ        31.0750    5.3540   -3.8040 C.ar    7  TYR7        0.1957
     12  OH        30.7140    4.2210   -4.4190 O.3     7  TYR7       -0.2866
     13  N         32.6320   11.7260   -0.7280 N.am    8  ASP8       -0.1960
     14  CA        33.6570   12.7600   -0.5970 C.3     8  ASP8        0.1840
     15  C         34.9100   12.3120   -1.3420 C.2     8  ASP8        0.2622
     16  O         35.2280   11.1160   -1.3990 O.2     8  ASP8       -0.2715
     17  CB        34.0290   12.9930    0.8750 C.3     8  ASP8        0.1450
     18  CG        32.9610   13.7640    1.6500 C.2     8  ASP8        0.3671
     19  OD1       31.8130   13.9080    1.1450 O.co2   8  ASP8       -0.2456
     20  OD2       33.2810   14.2260    2.7830 O.co2   8  ASP8       -0.2456
     21  N         35.6270   13.2760   -1.8970 N.am    9  PHE9       -0.1974
     22  CA        36.9560   13.0170   -2.4430 C.3     9  PHE9        0.1639
     23  C         37.8120   14.2270   -2.1020 C.2     9  PHE9        0.2290
     24  O         37.4660   15.3590   -2.4760 O.2     9  PHE9       -0.2864
     25  CB        36.8970   12.8270   -3.9760 C.3     9  PHE9        0.0560
     26  CG        38.2380   12.8620   -4.6320 C.ar    9  PHE9       -0.0200
     27  CD1       39.1060   11.7830   -4.5090 C.ar    9  PHE9       -0.0042
     28  CD2       38.6410   13.9810   -5.3690 C.ar    9  PHE9       -0.0042
     29  CE1       40.3650   11.8070   -5.1100 C.ar    9  PHE9       -0.0003
     30  CE2       39.8990   14.0170   -5.9780 C.ar    9  PHE9       -0.0003
     31  CZ        40.7650   12.9320   -5.8450 C.ar    9  PHE9       -0.0000
     32  N         44.0730   15.8470   -4.1120 N.3    12  SER12      -0.1202
     33  CA        45.4580   15.4390   -3.8500 C.3    12  SER12       0.2020
     34  C         46.4740   16.2420   -4.6760 C.2    12  SER12       0.2619
     35  O         47.5590   15.7360   -4.9970 O.2    12  SER12      -0.2717
     36  CB        45.6240   13.9550   -4.1690 C.3    12  SER12       0.2103
     37  OG        45.2820   13.6870   -5.5230 O.3    12  SER12      -0.2182
     38  N         46.1300   17.4860   -5.0150 N.am   13  GLY13      -0.1942
     39  CA        46.9090   18.2440   -5.9870 C.3    13  GLY13       0.2014
     40  C         46.9030   17.5880   -7.3670 C.2    13  GLY13       0.2639
     41  O         46.1510   16.6360   -7.6070 O.2    13  GLY13      -0.2714
     42  N         47.7480   18.0830   -8.2720 N.am   14  ASP14      -0.1957
     43  CA        47.7860   17.5860   -9.6520 C.3    14  ASP14       0.1840
     44  C         46.4940   17.9640  -10.3770 C.2    14  ASP14       0.2622
     45  O         45.9590   17.1790  -11.1720 O.2    14  ASP14      -0.2715
     46  CB        47.9990   16.0580   -9.6970 C.3    14  ASP14       0.1450
     47  CG        49.4180   15.6360   -9.2930 C.2    14  ASP14       0.3671
     48  OD1       50.3970   16.1990   -9.8400 O.co2  14  ASP14      -0.2456
     49  OD2       49.5480   14.7290   -8.4320 O.co2  14  ASP14      -0.2456
     50  N         45.9980   19.1680  -10.0890 N.am   15  ASN15      -0.1958
     51  CA        44.7670   19.6740  -10.7000 C.3    15  ASN15       0.1819
     52  C         43.5310   18.8130  -10.4180 C.2    15  ASN15       0.2621
     53  O         42.6520   18.6810  -11.2760 O.2    15  ASN15      -0.2715
     54  CB        44.9390   19.8630  -12.2160 C.3    15  ASN15       0.1195
     55  CG        45.8120   21.0660  -12.5660 C.2    15  ASN15       0.2630
     56  OD1       46.8810   21.2790  -11.9720 O.2    15  ASN15      -0.2716
     57  ND2       45.3510   21.8680  -13.5300 N.am   15  ASN15      -0.0877
     58  N         43.4710   18.2190   -9.2250 N.am   16  THR16      -0.1951
     59  CA        42.2690   17.4990   -8.7900 C.3    16  THR16       0.1897
     60  C         41.3520   18.4370   -8.0180 C.2    16  THR16       0.2313
     61  O         41.7920   19.4780   -7.5070 O.2    16  THR16      -0.2863
     62  CB        42.5900   16.2650   -7.9230 C.3    16  THR16       0.1794
     63  OG1       43.4160   16.6510   -6.8190 O.3    16  THR16      -0.2208
     64  CG2       43.2960   15.1850   -8.7460 C.3    16  THR16       0.0378
     65  N         39.6700   11.1540  -19.0150 N.3    31  ASN31      -0.1225
     66  CA        41.0180   10.9870  -19.5470 C.3    31  ASN31       0.1785
     67  C         41.0370    9.7880  -20.4870 C.2    31  ASN31       0.2597
     68  O         39.9770    9.2170  -20.7880 O.2    31  ASN31      -0.2718
     69  CB        42.0640   10.8660  -18.4290 C.3    31  ASN31       0.1169
     70  CG        41.9600    9.5530  -17.6550 C.2    31  ASN31       0.2627
     71  OD1       40.9030    8.9070  -17.6140 O.2    31  ASN31      -0.2716
     72  ND2       43.0650    9.1570  -17.0380 N.am   31  ASN31      -0.0877
     73  N         42.2250    9.4050  -20.9480 N.am   32  HIS32      -0.1975
     74  CA        42.3410    8.4040  -22.0170 C.3    32  HIS32       0.1656
     75  C         41.8790    7.0080  -21.5960 C.2    32  HIS32       0.2291
     76  O         41.3310    6.2640  -22.4100 O.2    32  HIS32      -0.2864
     77  CB        43.7830    8.3530  -22.5440 C.3    32  HIS32       0.0771
     78  CG        44.7790    7.8790  -21.5310 C.ar   32  HIS32       0.0820
     79  ND1       45.3550    6.6260  -21.5810 N.ar   32  HIS32      -0.2267
     80  CD2       45.2880    8.4830  -20.4270 C.ar   32  HIS32       0.1154
     81  CE1       46.1800    6.4820  -20.5580 C.ar   32  HIS32       0.1986
     82  NE2       46.1570    7.5890  -19.8430 N.ar   32  HIS32      -0.2212
     83  N         39.7170    6.5390  -16.1020 N.3    35  GLU35      -0.1231
     84  CA        39.8510    6.5510  -14.6320 C.3    35  GLU35       0.1699
     85  C         39.5400    7.8940  -13.9470 C.2    35  GLU35       0.2592
     86  O         39.1930    7.9180  -12.7550 O.2    35  GLU35      -0.2718
     87  CB        41.2510    6.0760  -14.2150 C.3    35  GLU35       0.0402
     88  CG        41.4740    4.5730  -14.3570 C.3    35  GLU35       0.1161
     89  CD        42.9390    4.1920  -14.2610 C.2    35  GLU35       0.3649
     90  OE1       43.7470    5.0300  -13.7930 O.co2  35  GLU35      -0.2457
     91  OE2       43.2830    3.0520  -14.6570 O.co2  35  GLU35      -0.2457
     92  N         39.6800    8.9990  -14.6850 N.am   36  TRP36      -0.1976
     93  CA        39.4270   10.3430  -14.1500 C.3    36  TRP36       0.1640
     94  C         38.4750   11.1430  -15.0450 C.2    36  TRP36       0.2290
     95  O         38.5470   11.0260  -16.2750 O.2    36  TRP36      -0.2864
     96  CB        40.7300   11.1300  -14.0580 C.3    36  TRP36       0.0576
     97  CG        41.7440   10.6110  -13.0870 C.ar   36  TRP36       0.0006
     98  CD1       42.7830    9.7520  -13.3530 C.ar   36  TRP36       0.0946
     99  CD2       41.8620   10.9670  -11.7020 C.ar   36  TRP36       0.0152
    100  NE1       43.5280    9.5460  -12.2090 N.ar   36  TRP36      -0.2442
    101  CE2       42.9810   10.2740  -11.1790 C.ar   36  TRP36       0.0810
    102  CE3       41.1240   11.7980  -10.8470 C.ar   36  TRP36       0.0012
    103  CZ2       43.3770   10.3840   -9.8350 C.ar   36  TRP36       0.0191
    104  CZ3       41.5200   11.9080   -9.5100 C.ar   36  TRP36       0.0001
    105  CH2       42.6340   11.2050   -9.0210 C.ar   36  TRP36       0.0015
    106  N         40.1280   17.5660  -11.7770 N.3    47  TRP47      -0.1241
    107  CA        39.9410   16.1450  -12.0020 C.3    47  TRP47       0.1605
    108  C         39.4340   15.4160  -10.7590 C.2    47  TRP47       0.2264
    109  O         39.9330   15.6340   -9.6370 O.2    47  TRP47      -0.2867
    110  CB        41.2450   15.5230  -12.5100 C.3    47  TRP47       0.0550
    111  CG        41.6270   16.0170  -13.8840 C.ar   47  TRP47       0.0003
    112  CD1       42.4350   17.0960  -14.1880 C.ar   47  TRP47       0.0946
    113  CD2       41.2190   15.4630  -15.1390 C.ar   47  TRP47       0.0152
    114  NE1       42.5490   17.2300  -15.5520 N.ar   47  TRP47      -0.2442
    115  CE2       41.8150   16.2370  -16.1650 C.ar   47  TRP47       0.0810
    116  CE3       40.4120   14.3760  -15.5040 C.ar   47  TRP47       0.0012
    117  CZ2       41.6310   15.9620  -17.5270 C.ar   47  TRP47       0.0191
    118  CZ3       40.2300   14.0970  -16.8510 C.ar   47  TRP47       0.0001
    119  CH2       40.8340   14.8860  -17.8470 C.ar   47  TRP47       0.0015
    120  N         37.8300   11.2620   -9.5190 N.3    49  PRO49      -0.2116
    121  CA        37.7220    9.8550   -9.9430 C.3    49  PRO49       0.1372
    122  C         36.3850    9.5470  -10.6310 C.2    49  PRO49       0.2244
    123  O         35.3180    9.9610  -10.1420 O.2    49  PRO49      -0.2868
    124  CB        37.8130    9.0740   -8.6210 C.3    49  PRO49       0.0268
    125  CG        38.4340   10.0310   -7.6280 C.3    49  PRO49       0.0207
    126  CD        37.9630   11.3990   -8.0540 C.3    49  PRO49       0.0892
    127  N         34.6370    6.6870  -10.8940 N.3    51  ASN51      -0.1225
    128  CA        33.6780    5.8870  -10.1390 C.3    51  ASN51       0.1785
    129  C         33.3140    6.4970   -8.7910 C.2    51  ASN51       0.2597
    130  O         32.8000    5.7930   -7.9160 O.2    51  ASN51      -0.2718
    131  CB        34.1550    4.4340   -9.9860 C.3    51  ASN51       0.1169
    132  CG        35.5950    4.3320   -9.5180 C.2    51  ASN51       0.2627
    133  OD1       36.0790    5.1800   -8.7600 O.2    51  ASN51      -0.2716
    134  ND2       36.2940    3.2900   -9.9710 N.am   51  ASN51      -0.0877
    135  N         33.5740    7.7990   -8.6250 N.am   52  TYR52      -0.1976
    136  CA        33.0690    8.5270   -7.4560 C.3    52  TYR52       0.1639
    137  C         31.8540    9.3730   -7.8260 C.2    52  TYR52       0.2290
    138  O         31.2650   10.0580   -6.9650 O.2    52  TYR52      -0.2864
    139  CB        34.1610    9.4140   -6.8460 C.3    52  TYR52       0.0560
    140  CG        35.0710    8.7070   -5.8590 C.ar   52  TYR52      -0.0198
    141  CD1       35.2260    9.1920   -4.5650 C.ar   52  TYR52      -0.0009
    142  CD2       35.7930    7.5770   -6.2270 C.ar   52  TYR52      -0.0009
    143  CE1       36.0580    8.5670   -3.6640 C.ar   52  TYR52       0.0417
    144  CE2       36.6310    6.9460   -5.3370 C.ar   52  TYR52       0.0417
    145  CZ        36.7590    7.4400   -4.0530 C.ar   52  TYR52       0.1957
    146  OH        37.5970    6.8060   -3.1520 O.3    52  TYR52      -0.2866
@<TRIPOS>BOND
     1    77    74    1
     2    77    78    1
     3    76    75    2
     4    74    75    1
     5    74    73    1
     6    79    78   ar
     7    79    81   ar
     8    78    80   ar
     9    73    67   am
    10    68    67    2
    11    81    82   ar
    12    67    66    1
    13    80    82   ar
    14    66    65    1
    15    66    69    1
    16    69    70    1
    17   119   117   ar
    18   119   118   ar
    19    70    71    2
    20    70    72   am
    21   117   115   ar
    22   118   116   ar
    23    95    94    2
    24   115   114   ar
    25   115   113   ar
    26    83    84    1
    27   114   112   ar
    28   116   113   ar
    29   113   111   ar
    30    94    93    1
    31    92    93    1
    32    92    85   am
    33    91    89   ar
    34    84    87    1
    35    84    85    1
    36    88    89    1
    37    88    87    1
    38    89    90   ar
    39   112   111   ar
    40    93    96    1
    41    96    97    1
    42    85    86    2
    43   111   110    1
    44    57    55   am
    45    98    97   ar
    46    98   100   ar
    47    97    99   ar
    48    55    54    1
    49    55    56    2
    50   110   107    1
    51    54    51    1
    52   100   101   ar
    53   107   106    1
    54   107   108    1
    55    99   101   ar
    56    99   102   ar
    57    53    52    2
    58   101   103   ar
    59    45    44    2
    60   127   128    1
    61   102   104   ar
    62   108   109    2
    63    51    52    1
    64    51    50    1
    65   122   123    2
    66   122   121    1
    67    52    58   am
    68    44    50   am
    69    44    43    1
    70   128   131    1
    71   128   129    1
    72   131   132    1
    73   134   132   am
    74   121   120    1
    75   121   124    1
    76    48    47   ar
    77   103   105   ar
    78    46    43    1
    79    46    47    1
    80    43    42    1
    81   120   126    1
    82   132   133    2
    83   104   105   ar
    84    47    49   ar
    85    58    59    1
    86   129   135   am
    87   129   130    2
    88    59    60    1
    89    59    62    1
    90    64    62    1
    91   135   136    1
    92   124   125    1
    93    42    40   am
    94   126   125    1
    95    60    61    2
    96    62    63    1
    97   137   136    1
    98   137   138    2
    99    41    40    2
   100   136   139    1
   101    40    39    1
   102   139   140    1
   103   142   140   ar
   104   142   144   ar
   105    39    38    1
   106    30    31   ar
   107    30    28   ar
   108   140   141   ar
   109    31    29   ar
   110    37    36    1
   111    28    26   ar
   112   144   145   ar
   113    29    27   ar
   114    38    34   am
   115    35    34    2
   116    34    33    1
   117    26    27   ar
   118    26    25    1
   119   141   143   ar
   120    12    11    1
   121    10    11   ar
   122    10     8   ar
   123    36    33    1
   124    32    33    1
   125   145   143   ar
   126   145   146    1
   127    25    22    1
   128    11     9   ar
   129     8     6   ar
   130     1     2    1
   131     4     3    2
   132     9     7   ar
   133     6     7   ar
   134     6     5    1
   135    24    23    2
   136    22    23    1
   137    22    21    1
   138     2     3    1
   139     2     5    1
   140     3    13   am
   141    21    15   am
   142    16    15    2
   143    15    14    1
   144    13    14    1
   145    14    17    1
   146    17    18    1
   147    19    18   ar
   148    18    20   ar
