@<TRIPOS>MOLECULE
tmp/4j9vA01.pdb
 144 137 0 0 0
SMALL
GASTEIGER

@<TRIPOS>ATOM
      1  N        -33.4950  -25.1190  -15.2960 N.3   126  GLU126     -0.1245
      2  CA       -32.7690  -24.7570  -16.5030 C.3   126  GLU126      0.1567
      3  C        -31.3640  -24.2630  -16.1360 C.2   126  GLU126      0.2260
      4  O        -30.4000  -24.5840  -16.8250 O.2   126  GLU126     -0.2867
      5  CB       -33.5570  -23.7390  -17.3290 C.3   126  GLU126      0.0388
      6  CG       -35.0290  -24.1410  -17.4820 C.3   126  GLU126      0.1160
      7  CD       -35.6340  -23.7340  -18.8150 C.2   126  GLU126      0.3649
      8  OE1      -35.2990  -24.3880  -19.8220 O.co2 126  GLU126     -0.2457
      9  OE2      -36.4490  -22.7840  -18.8630 O.co2 126  GLU126     -0.2457
     10  N        -27.2860  -28.4750  -30.2520 N.3   238  VAL238     -0.1231
     11  CA       -28.5550  -28.5830  -30.9640 C.3   238  VAL238      0.1692
     12  C        -29.7280  -28.1580  -30.0900 C.2   238  VAL238      0.2593
     13  O        -29.8860  -28.6250  -28.9650 O.2   238  VAL238     -0.2718
     14  CB       -28.7880  -30.0080  -31.5060 C.3   238  VAL238      0.0266
     15  CG1      -30.2660  -30.2690  -31.7080 C.3   238  VAL238      0.0020
     16  CG2      -28.0500  -30.1850  -32.8190 C.3   238  VAL238      0.0020
     17  N        -30.5570  -27.2720  -30.6250 N.am  239  GLY239     -0.1942
     18  CA       -31.6880  -26.7590  -29.8810 C.3   239  GLY239      0.2014
     19  C        -31.3410  -25.4280  -29.2520 C.2   239  GLY239      0.2639
     20  O        -30.5330  -25.3640  -28.3280 O.2   239  GLY239     -0.2714
     21  N        -31.9200  -24.3590  -29.7900 N.am  240  GLY240     -0.1939
     22  CA       -31.6810  -23.0220  -29.2810 C.3   240  GLY240      0.2014
     23  C        -32.8150  -22.5250  -28.4030 C.2   240  GLY240      0.2639
     24  O        -33.3520  -21.4410  -28.6240 O.2   240  GLY240     -0.2714
     25  N        -33.1900  -23.3290  -27.4150 N.am  241  GLY241     -0.1939
     26  CA       -34.2060  -22.9440  -26.4570 C.3   241  GLY241      0.2014
     27  C        -33.5650  -22.3380  -25.2250 C.2   241  GLY241      0.2638
     28  O        -32.4220  -21.8870  -25.2850 O.2   241  GLY241     -0.2714
     29  N        -34.3020  -22.3290  -24.1150 N.am  242  ASN242     -0.1972
     30  CA       -33.7990  -21.8070  -22.8430 C.3   242  ASN242      0.1688
     31  C        -32.4330  -22.3620  -22.4660 C.2   242  ASN242      0.2292
     32  O        -31.4960  -21.6040  -22.2230 O.2   242  ASN242     -0.2864
     33  CB       -34.7760  -22.1090  -21.7110 C.3   242  ASN242      0.1181
     34  CG       -36.0340  -21.2670  -21.7720 C.2   242  ASN242      0.2629
     35  OD1      -36.0780  -20.2310  -22.4380 O.2   242  ASN242     -0.2716
     36  ND2      -37.0740  -21.7160  -21.0730 N.am  242  ASN242     -0.0877
     37  N        -27.2680  -25.0310  -33.5210 N.3   260  ILE260     -0.1231
     38  CA       -28.2520  -25.3280  -34.5500 C.3   260  ILE260      0.1692
     39  C        -29.6700  -25.2160  -33.9920 C.2   260  ILE260      0.2592
     40  O        -30.0150  -25.8400  -32.9780 O.2   260  ILE260     -0.2718
     41  CB       -28.0150  -26.7170  -35.1510 C.3   260  ILE260      0.0266
     42  CG1      -26.6150  -26.7690  -35.7580 C.3   260  ILE260      0.0019
     43  CG2      -29.0550  -27.0280  -36.2010 C.3   260  ILE260      0.0020
     44  CD1      -26.2840  -28.0720  -36.4330 C.3   260  ILE260      0.0001
     45  N        -30.4750  -24.4000  -34.6630 N.am  261  GLU261     -0.1966
     46  CA       -31.8450  -24.1210  -34.2570 C.3   261  GLU261      0.1733
     47  C        -32.7580  -24.0960  -35.4720 C.2   261  GLU261      0.2616
     48  O        -32.6150  -23.2350  -36.3350 O.2   261  GLU261     -0.2715
     49  CB       -31.8920  -22.7820  -33.5210 C.3   261  GLU261      0.0429
     50  CG       -33.2800  -22.2140  -33.3520 C.3   261  GLU261      0.1163
     51  CD       -34.1940  -23.1430  -32.5840 C.2   261  GLU261      0.3649
     52  OE1      -34.8290  -23.9940  -33.2420 O.co2 261  GLU261     -0.2457
     53  OE2      -34.2880  -23.0250  -31.3410 O.co2 261  GLU261     -0.2457
     54  N        -33.7230  -25.0120  -35.5230 N.am  262  ARG262     -0.1963
     55  CA       -34.5090  -25.2070  -36.7480 C.3   262  ARG262      0.1729
     56  C        -35.5480  -24.1220  -37.0460 C.2   262  ARG262      0.2616
     57  O        -35.9800  -23.9780  -38.1920 O.2   262  ARG262     -0.2715
     58  CB       -35.1740  -26.5920  -36.7540 C.3   262  ARG262      0.0348
     59  CG       -36.3690  -26.7150  -35.8280 C.3   262  ARG262      0.0492
     60  CD       -37.1520  -28.0050  -36.0650 C.3   262  ARG262      0.2205
     61  NE       -38.1730  -28.1950  -35.0340 N.pl3 262  ARG262     -0.0865
     62  CZ       -38.8540  -29.3210  -34.8450 C.cat 262  ARG262      0.5346
     63  NH1      -38.6250  -30.3780  -35.6140 N.pl3 262  ARG262      0.1354
     64  NH2      -39.7570  -29.3950  -33.8750 N.pl3 262  ARG262      0.1354
     65  N        -35.9430  -23.3660  -36.0250 N.am  263  ASP263     -0.1971
     66  CA       -36.8590  -22.2390  -36.2090 C.3   263  ASP263      0.1709
     67  C        -36.1130  -20.9740  -36.6260 C.2   263  ASP263      0.2293
     68  O        -35.3620  -20.4040  -35.8350 O.2   263  ASP263     -0.2864
     69  CB       -37.6530  -21.9680  -34.9320 C.3   263  ASP263      0.1436
     70  CG       -38.6900  -20.8740  -35.1140 C.2   263  ASP263      0.3671
     71  OD1      -39.8710  -21.2070  -35.3460 O.co2 263  ASP263     -0.2456
     72  OD2      -38.3250  -19.6810  -35.0330 O.co2 263  ASP263     -0.2456
     73  N        -36.5930  -17.7290  -34.4760 N.3   266  ARG266     -0.1245
     74  CA       -35.8640  -17.8400  -33.2140 C.3   266  ARG266      0.1563
     75  C        -34.3600  -17.8190  -33.4670 C.2   266  ARG266      0.2260
     76  O        -33.6020  -17.2220  -32.7040 O.2   266  ARG266     -0.2867
     77  CB       -36.2660  -19.1160  -32.4630 C.3   266  ARG266      0.0307
     78  CG       -35.6220  -19.3020  -31.0810 C.3   266  ARG266      0.0489
     79  CD       -36.1210  -18.2710  -30.0680 C.3   266  ARG266      0.2205
     80  NE       -37.5760  -18.2870  -29.9270 N.pl3 266  ARG266     -0.0865
     81  CZ       -38.2880  -17.3410  -29.3160 C.cat 266  ARG266      0.5346
     82  NH1      -37.6860  -16.2890  -28.7810 N.pl3 266  ARG266      0.1354
     83  NH2      -39.6090  -17.4460  -29.2440 N.pl3 266  ARG266      0.1354
     84  N        -31.3370  -24.7800  -39.0070 N.3   282  GLY282     -0.1210
     85  CA       -31.3860  -26.0650  -39.6720 C.3   282  GLY282      0.1956
     86  C        -31.8370  -27.1650  -38.7370 C.2   282  GLY282      0.2612
     87  O        -31.9760  -26.9550  -37.5350 O.2   282  GLY282     -0.2717
     88  N        -32.0640  -28.3470  -39.2930 N.am  283  ASP283     -0.1959
     89  CA       -32.5410  -29.4800  -38.5160 C.3   283  ASP283      0.1840
     90  C        -31.3760  -30.2870  -37.9310 C.2   283  ASP283      0.2622
     91  O        -30.2800  -30.3040  -38.4820 O.2   283  ASP283     -0.2715
     92  CB       -33.4320  -30.3560  -39.3920 C.3   283  ASP283      0.1450
     93  CG       -34.2730  -31.3140  -38.5940 C.2   283  ASP283      0.3671
     94  OD1      -33.8500  -32.4760  -38.4180 O.co2 283  ASP283     -0.2456
     95  OD2      -35.3640  -30.8990  -38.1490 O.co2 283  ASP283     -0.2456
     96  N        -31.6110  -30.9340  -36.7960 N.am  284  ALA284     -0.1963
     97  CA       -30.5610  -31.6840  -36.1130 C.3   284  ALA284      0.1728
     98  C        -30.1470  -32.9470  -36.8650 C.2   284  ALA284      0.2616
     99  O        -29.0350  -33.4410  -36.6860 O.2   284  ALA284     -0.2715
    100  CB       -31.0030  -32.0400  -34.7020 C.3   284  ALA284      0.0334
    101  N        -31.0440  -33.4780  -37.6910 N.am  285  ALA285     -0.1977
    102  CA       -30.7850  -34.7460  -38.3640 C.3   285  ALA285      0.1597
    103  C        -30.2700  -34.5230  -39.7750 C.2   285  ALA285      0.2287
    104  O        -30.0850  -35.4710  -40.5400 O.2   285  ALA285     -0.2864
    105  CB       -32.0420  -35.5970  -38.3900 C.3   285  ALA285      0.0319
    106  N        -29.8120  -30.5400  -26.9710 N.3   304  LEU304     -0.1231
    107  CA       -30.5980  -29.9470  -25.8950 C.3   304  LEU304      0.1693
    108  C        -32.0010  -29.5210  -26.2870 C.2   304  LEU304      0.2593
    109  O        -32.5040  -28.5340  -25.7610 O.2   304  LEU304     -0.2718
    110  CB       -29.8680  -28.7440  -25.3010 C.3   304  LEU304      0.0284
    111  CG       -28.5480  -29.0730  -24.6170 C.3   304  LEU304      0.0019
    112  CD1      -27.8630  -27.8020  -24.1300 C.3   304  LEU304      0.0001
    113  CD2      -28.7980  -30.0470  -23.4810 C.3   304  LEU304      0.0001
    114  N        -32.6240  -30.2360  -27.2170 N.am  305  THR305     -0.1939
    115  CA       -34.0210  -29.9740  -27.5420 C.3   305  THR305      0.2028
    116  C        -34.8600  -30.6000  -26.4460 C.2   305  THR305      0.2642
    117  O        -34.3410  -31.3330  -25.6090 O.2   305  THR305     -0.2714
    118  CB       -34.4340  -30.6010  -28.8720 C.3   305  THR305      0.1808
    119  OG1      -34.6340  -32.0090  -28.6960 O.3   305  THR305     -0.2208
    120  CG2      -33.3740  -30.3580  -29.9210 C.3   305  THR305      0.0379
    121  N        -36.1610  -30.3480  -26.4660 N.am  306  ASN306     -0.1957
    122  CA       -37.0270  -30.8680  -25.4160 C.3   306  ASN306      0.1819
    123  C        -37.5430  -32.2690  -25.6910 C.2   306  ASN306      0.2621
    124  O        -38.1610  -32.8930  -24.8220 O.2   306  ASN306     -0.2715
    125  CB       -38.1940  -29.9240  -25.1680 C.3   306  ASN306      0.1195
    126  CG       -37.9370  -28.9890  -24.0140 C.2   306  ASN306      0.2630
    127  OD1      -36.8210  -28.9250  -23.4880 O.2   306  ASN306     -0.2716
    128  ND2      -38.9650  -28.2460  -23.6130 N.am  306  ASN306     -0.0877
    129  N        -37.3080  -32.7580  -26.9040 N.am  307  GLU307     -0.1977
    130  CA       -37.7400  -34.1020  -27.2520 C.3   307  GLU307      0.1602
    131  C        -36.5620  -35.0530  -27.1510 C.2   307  GLU307      0.2287
    132  O        -35.5300  -34.8450  -27.7810 O.2   307  GLU307     -0.2864
    133  CB       -38.3760  -34.1280  -28.6380 C.3   307  GLU307      0.0415
    134  CG       -39.6090  -33.2380  -28.7430 C.3   307  GLU307      0.1163
    135  CD       -39.9900  -32.9220  -30.1790 C.2   307  GLU307      0.3649
    136  OE1      -39.1180  -33.0310  -31.0710 O.co2 307  GLU307     -0.2457
    137  OE2      -41.1690  -32.5760  -30.4190 O.co2 307  GLU307     -0.2457
    138  N        -35.5060  -36.8530  -30.4120 N.3   310  THR310     -0.1218
    139  CA       -34.7790  -35.9490  -31.2920 C.3   310  THR310      0.1862
    140  C        -33.3290  -35.8810  -30.8560 C.2   310  THR310      0.2287
    141  O        -32.4300  -36.0110  -31.6790 O.2   310  THR310     -0.2866
    142  CB       -35.3700  -34.5310  -31.2720 C.3   310  THR310      0.1770
    143  OG1      -36.6760  -34.5400  -31.8640 O.3   310  THR310     -0.2211
    144  CG2      -34.4710  -33.5650  -32.0320 C.3   310  THR310      0.0375
@<TRIPOS>BOND
     1   104   103    2
     2   103   102    1
     3    85    84    1
     4    85    86    1
     5    92    93    1
     6    92    89    1
     7    88    86   am
     8    88    89    1
     9    86    87    2
    10    93    94   ar
    11    93    95   ar
    12    89    90    1
    13    91    90    2
    14   105   102    1
    15   102   101    1
    16    57    56    2
    17    90    96   am
    18   101    98   am
    19    56    55    1
    20    56    65   am
    21    98    99    2
    22    98    97    1
    23    96    97    1
    24    58    55    1
    25    58    59    1
    26    55    54    1
    27    67    66    1
    28    67    68    2
    29    44    42    1
    30    48    47    2
    31    66    65    1
    32    66    69    1
    33    43    41    1
    34    97   100    1
    35    60    59    1
    36    60    61    1
    37    42    41    1
    38    63    62    1
    39    54    47   am
    40    47    46    1
    41    71    70   ar
    42    41    38    1
    43    70    72   ar
    44    70    69    1
    45    61    62    2
    46    62    64    1
    47    45    46    1
    48    45    39   am
    49    38    39    1
    50    38    37    1
    51    73    74    1
    52    46    49    1
    53    39    40    2
    54    49    50    1
    55    75    74    1
    56    75    76    2
    57    50    51    1
    58    52    51   ar
    59    74    77    1
    60    16    14    1
    61    51    53   ar
    62    77    78    1
    63   144   142    1
    64   143   142    1
    65    15    14    1
    66   141   140    2
    67    14    11    1
    68   139   142    1
    69   139   140    1
    70   139   138    1
    71    78    79    1
    72   136   135   ar
    73    11    10    1
    74    11    12    1
    75    17    12   am
    76    17    18    1
    77   137   135   ar
    78   135   134    1
    79    12    13    2
    80    79    80    1
    81    80    81    2
    82   120   118    1
    83    18    19    1
    84    21    22    1
    85    21    19   am
    86    81    83    1
    87    81    82    1
    88    22    23    1
    89    19    20    2
    90   118   119    1
    91   118   115    1
    92   134   133    1
    93   133   130    1
    94    24    23    2
    95    23    25   am
    96   132   131    2
    97   115   114    1
    98   115   116    1
    99    25    26    1
   100   130   131    1
   101   130   129    1
   102   114   108   am
   103   106   107    1
   104   129   123   am
   105   121   116   am
   106   121   122    1
   107    26    27    1
   108   116   117    2
   109   108   107    1
   110   108   109    2
   111   107   110    1
   112   123   122    1
   113   123   124    2
   114   122   125    1
   115   110   111    1
   116    28    27    2
   117    27    29   am
   118   125   126    1
   119   111   112    1
   120   111   113    1
   121    29    30    1
   122   126   128   am
   123   126   127    2
   124    30    31    1
   125    30    33    1
   126    31    32    2
   127    35    34    2
   128    34    33    1
   129    34    36   am
   130     8     7   ar
   131     9     7   ar
   132     7     6    1
   133     6     5    1
   134     5     2    1
   135     4     3    2
   136     2     3    1
   137     2     1    1
