@<TRIPOS>MOLECULE
tmp/4j9vA00.pdb
 154 146 0 0 0
SMALL
GASTEIGER

@<TRIPOS>ATOM
      1  N        -47.7870  -30.6410   -5.4980 N.3     7  GLY7       -0.1210
      2  CA       -47.6320  -31.2210   -6.8130 C.3     7  GLY7        0.1956
      3  C        -46.8600  -32.5150   -6.7180 C.2     7  GLY7        0.2612
      4  O        -45.7010  -32.5160   -6.3230 O.2     7  GLY7       -0.2717
      5  N        -47.5110  -33.6180   -7.0640 N.am    8  ALA8       -0.1965
      6  CA       -46.8870  -34.9330   -7.0120 C.3     8  ALA8        0.1728
      7  C        -46.4890  -35.4430   -8.3980 C.2     8  ALA8        0.2617
      8  O        -46.7540  -36.5970   -8.7370 O.2     8  ALA8       -0.2715
      9  CB       -47.8050  -35.9280   -6.3310 C.3     8  ALA8        0.0334
     10  N        -45.8490  -34.5940   -9.1970 N.am    9  GLY9       -0.1940
     11  CA       -45.3570  -35.0190  -10.4930 C.3     9  GLY9        0.2014
     12  C        -44.0970  -35.8530  -10.3310 C.2     9  GLY9        0.2639
     13  O        -43.8610  -36.4250   -9.2670 O.2     9  GLY9       -0.2714
     14  N        -43.2990  -35.9420  -11.3910 N.am   10  GLN10      -0.1963
     15  CA       -42.0290  -36.6620  -11.3370 C.3    10  GLN10       0.1733
     16  C        -41.1470  -36.1510  -10.2030 C.2    10  GLN10       0.2616
     17  O        -40.6090  -36.9290   -9.4220 O.2    10  GLN10      -0.2715
     18  CB       -41.2810  -36.5320  -12.6600 C.3    10  GLN10       0.0408
     19  CG       -42.0250  -37.0890  -13.8550 C.3    10  GLN10       0.0908
     20  CD       -42.2690  -38.5820  -13.7510 C.2    10  GLN10       0.2608
     21  OE1      -41.4640  -39.3190  -13.1810 O.2    10  GLN10      -0.2717
     22  NE2      -43.3820  -39.0380  -14.3170 N.am   10  GLN10      -0.0878
     23  N        -41.0030  -34.8350  -10.1180 N.am   11  VAL11      -0.1963
     24  CA       -40.1510  -34.2240   -9.1070 C.3    11  VAL11       0.1727
     25  C        -40.7410  -34.3470   -7.6980 C.2    11  VAL11       0.2616
     26  O        -40.0610  -34.7880   -6.7730 O.2    11  VAL11      -0.2715
     27  CB       -39.8380  -32.7610   -9.4640 C.3    11  VAL11       0.0290
     28  CG1      -39.1450  -32.0560   -8.3220 C.3    11  VAL11       0.0023
     29  CG2      -38.9840  -32.7220  -10.7050 C.3    11  VAL11       0.0023
     30  N        -42.0040  -33.9710   -7.5340 N.am   12  GLY12      -0.1955
     31  CA       -42.6380  -34.0690   -6.2300 C.3    12  GLY12       0.1869
     32  C        -42.7010  -35.4800   -5.6830 C.2    12  GLY12       0.2309
     33  O        -42.3860  -35.7230   -4.5220 O.2    12  GLY12      -0.2863
     34  N        -49.6530  -32.5960   -1.7740 N.3    29  VAL29      -0.1231
     35  CA       -50.8650  -32.0120   -2.3340 C.3    29  VAL29       0.1692
     36  C        -50.8580  -32.1590   -3.8580 C.2    29  VAL29       0.2592
     37  O        -49.8400  -31.9290   -4.5140 O.2    29  VAL29      -0.2718
     38  CB       -50.9760  -30.5290   -1.9670 C.3    29  VAL29       0.0266
     39  CG1      -52.1780  -29.8890   -2.6550 C.3    29  VAL29       0.0020
     40  CG2      -51.0640  -30.3740   -0.4560 C.3    29  VAL29       0.0020
     41  N        -51.9900  -32.5670   -4.4140 N.am   30  ASP30      -0.1960
     42  CA       -52.1200  -32.6930   -5.8540 C.3    30  ASP30       0.1840
     43  C        -53.6060  -32.6860   -6.1720 C.2    30  ASP30       0.2622
     44  O        -54.4100  -33.1270   -5.3570 O.2    30  ASP30      -0.2715
     45  CB       -51.4870  -34.0000   -6.3290 C.3    30  ASP30       0.1450
     46  CG       -51.1960  -34.0090   -7.8300 C.2    30  ASP30       0.3671
     47  OD1      -52.1580  -33.9750   -8.6270 O.co2  30  ASP30      -0.2456
     48  OD2      -50.0060  -34.1250   -8.2090 O.co2  30  ASP30      -0.2456
     49  N        -53.9860  -32.1650   -7.3330 N.am   31  ASN31      -0.1958
     50  CA       -55.4020  -32.1260   -7.6880 C.3    31  ASN31       0.1819
     51  C        -55.8090  -33.3330   -8.5210 C.2    31  ASN31       0.2621
     52  O        -56.9750  -33.4810   -8.8790 O.2    31  ASN31      -0.2715
     53  CB       -55.7880  -30.8130   -8.3710 C.3    31  ASN31       0.1195
     54  CG       -55.1240  -30.6230   -9.6980 C.2    31  ASN31       0.2630
     55  OD1      -54.0740  -31.1970   -9.9780 O.2    31  ASN31      -0.2716
     56  ND2      -55.7320  -29.7940  -10.5330 N.am   31  ASN31      -0.0877
     57  N        -54.8380  -34.1750   -8.8610 N.am   32  ASN32      -0.1972
     58  CA       -55.1360  -35.3850   -9.6140 C.3    32  ASN32       0.1688
     59  C        -55.2330  -36.5790   -8.6730 C.2    32  ASN32       0.2292
     60  O        -54.2260  -37.0760   -8.1680 O.2    32  ASN32      -0.2864
     61  CB       -54.0700  -35.6440  -10.6770 C.3    32  ASN32       0.1181
     62  CG       -54.4180  -36.8150  -11.5710 C.2    32  ASN32       0.2629
     63  OD1      -53.9210  -37.9220  -11.3810 O.2    32  ASN32      -0.2716
     64  ND2      -55.2850  -36.5780  -12.5470 N.am   32  ASN32      -0.0877
     65  N        -53.0230  -39.7520   -9.2570 N.3    35  ARG35      -0.1245
     66  CA       -51.6330  -39.6310   -8.8540 C.3    35  ARG35       0.1563
     67  C        -51.4730  -39.8090   -7.3510 C.2    35  ARG35       0.2260
     68  O        -50.4540  -40.3140   -6.8850 O.2    35  ARG35      -0.2867
     69  CB       -51.0610  -38.2850   -9.3090 C.3    35  ARG35       0.0307
     70  CG       -49.5850  -38.0880   -9.0040 C.3    35  ARG35       0.0489
     71  CD       -48.7540  -39.2880   -9.4490 C.3    35  ARG35       0.2205
     72  NE       -47.3320  -39.1260   -9.1480 N.pl3  35  ARG35      -0.0865
     73  CZ       -46.4280  -40.0980   -9.2500 C.cat  35  ARG35       0.5346
     74  NH1      -46.7970  -41.3130   -9.6370 N.pl3  35  ARG35       0.1354
     75  NH2      -45.1550  -39.8580   -8.9600 N.pl3  35  ARG35       0.1354
     76  N        -56.5770  -31.2300   -3.9830 N.3    50  GLY50      -0.1210
     77  CA       -57.0360  -29.8620   -4.1620 C.3    50  GLY50       0.1956
     78  C        -56.0200  -28.9990   -4.8850 C.2    50  GLY50       0.2612
     79  O        -54.9790  -29.4900   -5.3130 O.2    50  GLY50      -0.2717
     80  N        -56.3270  -27.7150   -5.0350 N.am   51  HIS51      -0.1961
     81  CA       -55.4100  -26.7780   -5.6780 C.3    51  HIS51       0.1787
     82  C        -54.3470  -26.2960   -4.6920 C.2    51  HIS51       0.2620
     83  O        -54.6710  -25.7610   -3.6470 O.2    51  HIS51      -0.2715
     84  CB       -56.1880  -25.5870   -6.2530 C.3    51  HIS51       0.0785
     85  CG       -55.3880  -24.7400   -7.1940 C.ar   51  HIS51       0.0821
     86  ND1      -54.2920  -24.0070   -6.7900 N.ar   51  HIS51      -0.2267
     87  CD2      -55.5180  -24.5190   -8.5230 C.ar   51  HIS51       0.1154
     88  CE1      -53.7850  -23.3680   -7.8290 C.ar   51  HIS51       0.1986
     89  NE2      -54.5120  -23.6600   -8.8920 N.ar   51  HIS51      -0.2212
     90  N        -53.0790  -26.4550   -5.0580 N.am   52  ALA52      -0.1977
     91  CA       -51.9560  -26.2400   -4.1480 C.3    52  ALA52       0.1597
     92  C        -51.8320  -24.8440   -3.5400 C.2    52  ALA52       0.2287
     93  O        -51.1400  -24.6660   -2.5460 O.2    52  ALA52      -0.2864
     94  CB       -50.6530  -26.6260   -4.8300 C.3    52  ALA52       0.0319
     95  N        -43.7350  -27.7240   -6.2210 N.3    72  VAL72      -0.1231
     96  CA       -43.3240  -28.2600   -7.5030 C.3    72  VAL72       0.1692
     97  C        -44.5470  -28.6380   -8.3220 C.2    72  VAL72       0.2593
     98  O        -44.7190  -29.7820   -8.7370 O.2    72  VAL72      -0.2718
     99  CB       -42.3860  -29.4630   -7.3350 C.3    72  VAL72       0.0266
    100  CG1      -40.9900  -28.9790   -6.9920 C.3    72  VAL72       0.0020
    101  CG2      -42.9090  -30.4060   -6.2530 C.3    72  VAL72       0.0020
    102  N        -45.4080  -27.6590   -8.5440 N.am   73  THR73      -0.1939
    103  CA       -46.5510  -27.8680   -9.4160 C.3    73  THR73       0.2028
    104  C        -46.1750  -27.6860  -10.8960 C.2    73  THR73       0.2642
    105  O        -44.9910  -27.6080  -11.2480 O.2    73  THR73      -0.2714
    106  CB       -47.7110  -26.9340   -9.0360 C.3    73  THR73       0.1808
    107  OG1      -47.2840  -25.5800   -9.1950 O.3    73  THR73      -0.2208
    108  CG2      -48.0780  -27.1180   -7.5860 C.3    73  THR73       0.0379
    109  N        -47.1890  -27.6190  -11.7500 N.am   74  ASN74      -0.1971
    110  CA       -46.9960  -27.4970  -13.1890 C.3    74  ASN74       0.1688
    111  C        -46.5140  -26.1090  -13.6060 C.2    74  ASN74       0.2292
    112  O        -45.9120  -25.9300  -14.6670 O.2    74  ASN74      -0.2864
    113  CB       -48.2940  -27.8330  -13.9230 C.3    74  ASN74       0.1181
    114  CG       -49.4350  -26.8900  -13.5500 C.2    74  ASN74       0.2629
    115  OD1      -49.4200  -26.2710  -12.4790 O.2    74  ASN74      -0.2716
    116  ND2      -50.4290  -26.7710  -14.4350 N.am   74  ASN74      -0.0877
    117  N        -48.3030  -20.7290   -9.9450 N.3    78  THR78      -0.1218
    118  CA       -48.9870  -21.4520   -8.8790 C.3    78  THR78       0.1862
    119  C        -48.0350  -21.6910   -7.7120 C.2    78  THR78       0.2287
    120  O        -48.4130  -21.5410   -6.5600 O.2    78  THR78      -0.2866
    121  CB       -49.5480  -22.7940   -9.3680 C.3    78  THR78       0.1770
    122  OG1      -50.5540  -22.5590  -10.3600 O.3    78  THR78      -0.2211
    123  CG2      -50.1620  -23.5670   -8.2130 C.3    78  THR78       0.0375
    124  N        -39.9920  -24.3780   -7.3110 N.3    98  ARG98      -0.1245
    125  CA       -39.4300  -24.5480   -8.6430 C.3    98  ARG98       0.1563
    126  C        -39.8690  -23.3980   -9.5390 C.2    98  ARG98       0.2260
    127  O        -41.0540  -23.1160   -9.6670 O.2    98  ARG98      -0.2867
    128  CB       -39.8580  -25.8840   -9.2500 C.3    98  ARG98       0.0307
    129  CG       -39.5670  -25.9900  -10.7300 C.3    98  ARG98       0.0489
    130  CD       -39.6240  -27.4160  -11.2430 C.3    98  ARG98       0.2205
    131  NE       -40.9620  -27.9950  -11.2320 N.pl3  98  ARG98      -0.0865
    132  CZ       -41.2030  -29.2690  -11.5140 C.cat  98  ARG98       0.5346
    133  NH1      -40.1950  -30.0660  -11.8290 N.pl3  98  ARG98       0.1354
    134  NH2      -42.4370  -29.7460  -11.4940 N.pl3  98  ARG98       0.1354
    135  N        -39.1030  -22.1950  -13.4240 N.3   100  ARG100     -0.1245
    136  CA       -38.5070  -22.6230  -14.6820 C.3   100  ARG100      0.1563
    137  C        -38.2130  -21.4580  -15.6180 C.2   100  ARG100      0.2260
    138  O        -37.4320  -21.5790  -16.5590 O.2   100  ARG100     -0.2867
    139  CB       -39.4370  -23.6120  -15.3560 C.3   100  ARG100      0.0307
    140  CG       -39.3040  -24.9980  -14.8380 C.3   100  ARG100      0.0489
    141  CD       -40.3360  -25.8560  -15.4830 C.3   100  ARG100      0.2205
    142  NE       -40.1390  -27.2690  -15.2040 N.pl3 100  ARG100     -0.0865
    143  CZ       -41.1230  -28.1240  -14.9760 C.cat 100  ARG100      0.5346
    144  NH1      -42.3790  -27.7080  -14.9700 N.pl3 100  ARG100      0.1354
    145  NH2      -40.8490  -29.3990  -14.7540 N.pl3 100  ARG100      0.1354
    146  N        -34.9820  -33.0920  -14.5010 N.3   351  GLN351     -0.1245
    147  CA       -35.7510  -33.5590  -13.3600 C.3   351  GLN351      0.1566
    148  C        -34.8240  -34.0460  -12.2620 C.2   351  GLN351      0.2260
    149  O        -34.9890  -33.6760  -11.0980 O.2   351  GLN351     -0.2867
    150  CB       -36.7080  -34.6660  -13.7670 C.3   351  GLN351      0.0367
    151  CG       -37.7550  -34.2230  -14.7440 C.3   351  GLN351      0.0905
    152  CD       -38.8010  -35.2810  -14.9690 C.2   351  GLN351      0.2608
    153  OE1      -38.6420  -36.4240  -14.5440 O.2   351  GLN351     -0.2717
    154  NE2      -39.8840  -34.9080  -15.6330 N.am  351  GLN351     -0.0878
@<TRIPOS>BOND
     1   138   137    2
     2   154   152   am
     3   137   136    1
     4   141   142    1
     5   141   140    1
     6   139   140    1
     7   139   136    1
     8   142   143    2
     9   143   144    1
    10   143   145    1
    11   152   151    1
    12   152   153    2
    13   151   150    1
    14   136   135    1
    15   112   111    2
    16   146   147    1
    17   116   114   am
    18    22    20   am
    19   113   114    1
    20   113   110    1
    21    19    20    1
    22    19    18    1
    23   150   147    1
    24    20    21    2
    25   111   110    1
    26   114   115    2
    27   147   148    1
    28   110   109    1
    29    18    15    1
    30    64    62   am
    31   148   149    2
    32   133   132    1
    33   109   104   am
    34    62    63    2
    35    62    61    1
    36   132   134    1
    37   132   131    2
    38    14    15    1
    39    14    12   am
    40    15    16    1
    41   105   104    2
    42   130   131    1
    43   130   129    1
    44   104   103    1
    45   129   128    1
    46    29    27    1
    47    61    58    1
    48    56    54   am
    49    11    12    1
    50    11    10    1
    51   122   121    1
    52    12    13    2
    53    16    23   am
    54    16    17    2
    55    23    24    1
    56    55    54    2
    57   117   118    1
    58    54    53    1
    59   127   126    2
    60    74    73    1
    61    58    57    1
    62    58    59    1
    63   126   125    1
    64    27    24    1
    65    27    28    1
    66    71    72    1
    67    71    70    1
    68   103   106    1
    69   103   102    1
    70   121   118    1
    71   121   123    1
    72    69    70    1
    73    69    66    1
    74    65    66    1
    75   128   125    1
    76    73    72    2
    77    73    75    1
    78    10     7   am
    79   107   106    1
    80    24    25    1
    81   106   108    1
    82    89    87   ar
    83    89    88   ar
    84    52    51    2
    85   118   119    1
    86    57    51   am
    87    66    67    1
    88    98    97    2
    89     8     7    2
    90    59    60    2
    91   125   124    1
    92    47    46   ar
    93   102    97   am
    94    87    85   ar
    95    51    50    1
    96     7     6    1
    97    53    50    1
    98    97    96    1
    99    48    46   ar
   100    46    45    1
   101    88    86   ar
   102   119   120    2
   103    25    30   am
   104    25    26    2
   105    50    49    1
   106    30    31    1
   107    96    99    1
   108    96    95    1
   109    67    68    2
   110    99   100    1
   111    99   101    1
   112    49    43   am
   113    85    86   ar
   114    85    84    1
   115     5     6    1
   116     5     3   am
   117     6     9    1
   118     2     3    1
   119     2     1    1
   120     3     4    2
   121    45    42    1
   122    84    81    1
   123    31    32    1
   124    43    42    1
   125    43    44    2
   126    42    41    1
   127    32    33    2
   128    81    80    1
   129    81    82    1
   130    79    78    2
   131    90    82   am
   132    90    91    1
   133    80    78   am
   134    78    77    1
   135    94    91    1
   136    82    83    2
   137    37    36    2
   138    41    36   am
   139    77    76    1
   140    91    92    1
   141    36    35    1
   142    92    93    2
   143    39    38    1
   144    35    38    1
   145    35    34    1
   146    38    40    1
