@<TRIPOS>MOLECULE
tmp/4j9wB00.pdb
 101 93 0 0 0
SMALL
GASTEIGER

@<TRIPOS>ATOM
      1  N          7.7910   10.2650    9.0900 N.3    14  GLU14      -0.1245
      2  CA         8.0530    9.2510   10.1100 C.3    14  GLU14       0.1567
      3  C          9.5500    8.9590   10.1810 C.2    14  GLU14       0.2260
      4  O         10.1510    8.5440    9.2040 O.2    14  GLU14      -0.2867
      5  CB         7.2710    7.9640    9.8060 C.3    14  GLU14       0.0388
      6  CG         7.5670    6.8220   10.7840 C.3    14  GLU14       0.1160
      7  CD         6.8730    6.9610   12.1320 C.2    14  GLU14       0.3649
      8  OE1        6.3230    8.0370   12.4360 O.co2  14  GLU14      -0.2457
      9  OE2        6.8720    5.9680   12.8940 O.co2  14  GLU14      -0.2457
     10  N         11.5250    5.3960   15.3010 N.3    60  VAL60      -0.1245
     11  CA        11.7300    3.9830   15.0420 C.3    60  VAL60       0.1561
     12  C         13.1960    3.7640   14.7180 C.2    60  VAL60       0.2260
     13  O         13.7780    4.4980   13.9270 O.2    60  VAL60      -0.2867
     14  CB        10.8530    3.5100   13.8680 C.3    60  VAL60       0.0252
     15  CG1       11.2750    2.1230   13.3860 C.3    60  VAL60       0.0019
     16  CG2        9.3760    3.5440   14.2640 C.3    60  VAL60       0.0019
     17  N         11.0830    0.1670   18.3950 N.3    80  ASN80      -0.1240
     18  CA        10.4640    1.4450   18.7470 C.3    80  ASN80       0.1653
     19  C         10.5090    1.6610   20.2570 C.2    80  ASN80       0.2266
     20  O         11.2110    0.9340   20.9820 O.2    80  ASN80      -0.2867
     21  CB         9.0220    1.5180   18.2040 C.3    80  ASN80       0.1155
     22  CG         8.1650    0.3590   18.6760 C.2    80  ASN80       0.2627
     23  OD1        8.2320   -0.0380   19.8320 O.2    80  ASN80      -0.2716
     24  ND2        7.3800   -0.2130   17.7700 N.am   80  ASN80      -0.0877
     25  N          9.7040   -4.4460   16.3120 N.3    85  LEU85      -0.1245
     26  CA         8.7970   -4.6400   15.1950 C.3    85  LEU85       0.1561
     27  C          9.1260   -5.9230   14.4350 C.2    85  LEU85       0.2260
     28  O         10.0940   -6.6300   14.7480 O.2    85  LEU85      -0.2867
     29  CB         8.8570   -3.4300   14.2650 C.3    85  LEU85       0.0270
     30  CG         8.3800   -2.1420   14.9250 C.3    85  LEU85       0.0019
     31  CD1        8.6690   -0.9550   14.0170 C.3    85  LEU85       0.0001
     32  CD2        6.8810   -2.2690   15.1880 C.3    85  LEU85       0.0001
     33  N          9.0750   -3.3020    8.6470 N.3    88  CYS88      -0.1221
     34  CA         8.7790   -1.8810    8.7930 C.3    88  CYS88       0.1808
     35  C          8.9590   -1.2480    7.4230 C.2    88  CYS88       0.2602
     36  O         10.0820   -1.1520    6.9220 O.2    88  CYS88      -0.2717
     37  CB         9.7050   -1.2270    9.8210 C.3    88  CYS88       0.0970
     38  SG         9.3870    0.5610   10.0540 S.3    88  CYS88      -0.0800
     39  N          7.8470   -0.8510    6.8110 N.am   89  GLY89      -0.1942
     40  CA         7.8630   -0.3060    5.4620 C.3    89  GLY89       0.2014
     41  C          8.5530    1.0460    5.3490 C.2    89  GLY89       0.2638
     42  O          9.4370    1.2140    4.5000 O.2    89  GLY89      -0.2714
     43  N          8.1520    2.0060    6.1830 N.am   90  HIS90      -0.1973
     44  CA         8.7690    3.3330    6.1350 C.3    90  HIS90       0.1656
     45  C         10.2480    3.1740    6.4760 C.2    90  HIS90       0.2291
     46  O         11.1080    3.8410    5.8910 O.2    90  HIS90      -0.2864
     47  CB         8.0880    4.3240    7.0940 C.3    90  HIS90       0.0771
     48  CG         8.7460    4.4090    8.4330 C.ar   90  HIS90       0.0820
     49  ND1        8.3780    3.6080    9.4890 N.ar   90  HIS90      -0.2267
     50  CD2        9.7690    5.1800    8.8810 C.ar   90  HIS90       0.1154
     51  CE1        9.1380    3.8820   10.5360 C.ar   90  HIS90       0.1986
     52  NE2       10.0010    4.8200   10.1900 N.ar   90  HIS90      -0.2212
     53  N          3.3890   -6.8100   10.4340 N.3   162  ASN162     -0.1240
     54  CA         3.0490   -6.6850   11.8500 C.3   162  ASN162      0.1653
     55  C          1.5440   -6.9710   11.8990 C.2   162  ASN162      0.2266
     56  O          0.9010   -7.0160   10.8410 O.2   162  ASN162     -0.2867
     57  CB         3.3220   -5.2720   12.3770 C.3   162  ASN162      0.1155
     58  CG         4.7920   -4.8830   12.2930 C.2   162  ASN162      0.2627
     59  OD1        5.6210   -5.3840   13.0710 O.2   162  ASN162     -0.2716
     60  ND2        5.1230   -3.9780   11.3640 N.am  162  ASN162     -0.0877
     61  N         -0.8130   -2.9310   16.5390 N.3   208  HIS208     -0.1241
     62  CA        -1.0040   -1.7200   15.7450 C.3   208  HIS208      0.1621
     63  C         -2.4940   -1.5460   15.4390 C.2   208  HIS208      0.2264
     64  O         -3.1780   -2.5060   15.0790 O.2   208  HIS208     -0.2867
     65  CB        -0.2800   -1.7880   14.4040 C.3   208  HIS208      0.0745
     66  CG         1.2160   -1.8580   14.4690 C.ar  208  HIS208      0.0817
     67  ND1        1.8990   -2.9030   15.0520 N.ar  208  HIS208     -0.2268
     68  CD2        2.1590   -1.0490   13.9280 C.ar  208  HIS208      0.1154
     69  CE1        3.1990   -2.7200   14.8910 C.ar  208  HIS208      0.1986
     70  NE2        3.3800   -1.5970   14.2200 N.ar  208  HIS208     -0.2212
     71  N          0.9160    3.0140   16.8510 N.3   226  CYS226     -0.1235
     72  CA         1.9920    2.0280   16.9000 C.3   226  CYS226      0.1677
     73  C          1.9980    1.3880   18.2960 C.2   226  CYS226      0.2270
     74  O          1.3070    1.8720   19.1940 O.2   226  CYS226     -0.2867
     75  CB         3.3290    2.7110   16.5630 C.3   226  CYS226      0.0956
     76  SG         3.4260    3.3380   14.8400 S.3   226  CYS226     -0.0801
     77  N          2.1350    6.8510   13.6530 N.3   232  ASP232     -0.1239
     78  CA         2.9980    6.8280   12.4830 C.3   232  ASP232      0.1674
     79  C          2.7050    8.0900   11.6960 C.2   232  ASP232      0.2266
     80  O          1.5530    8.3710   11.3750 O.2   232  ASP232     -0.2867
     81  CB         2.6710    5.5990   11.6410 C.3   232  ASP232      0.1410
     82  CG         3.7010    5.3170   10.5490 C.2   232  ASP232      0.3668
     83  OD1        4.5070    6.1900   10.2090 O.co2 232  ASP232     -0.2456
     84  OD2        3.6930    4.2020    9.9910 O.co2 232  ASP232     -0.2456
     85  N          2.3240    4.2090    6.7430 N.3   236  CYS236     -0.1221
     86  CA         2.6370    2.9130    7.3770 C.3   236  CYS236      0.1808
     87  C          2.7150    1.7990    6.3510 C.2   236  CYS236      0.2602
     88  O          1.6930    1.3350    5.8420 O.2   236  CYS236     -0.2717
     89  CB         1.6200    2.5560    8.4630 C.3   236  CYS236      0.0970
     90  SG         2.1030    1.1880    9.4970 S.3   236  CYS236     -0.0800
     91  N          3.9380    1.3830    6.0450 N.am  237  GLY237     -0.1942
     92  CA         4.1650    0.4170    4.9900 C.3   237  GLY237      0.2014
     93  C          3.4900   -0.9090    5.2810 C.2   237  GLY237      0.2639
     94  O          2.7740   -1.4550    4.4270 O.2   237  GLY237     -0.2714
     95  N          3.6990   -1.4370    6.4770 N.am  238  THR238     -0.1950
     96  CA         3.0800   -2.7140    6.8260 C.3   238  THR238      0.1897
     97  C          1.5730   -2.5470    7.0380 C.2   238  THR238      0.2313
     98  O          0.7880   -3.4480    6.7400 O.2   238  THR238     -0.2863
     99  CB         3.7620   -3.3650    8.0610 C.3   238  THR238      0.1794
    100  OG1        3.7860   -2.4450    9.1690 O.3   238  THR238     -0.2208
    101  CG2        5.1860   -3.7770    7.7010 C.3   238  THR238      0.0378
@<TRIPOS>BOND
     1    94    93    2
     2    42    41    2
     3    92    93    1
     4    92    91    1
     5    93    95   am
     6    41    40    1
     7    41    43   am
     8    40    39    1
     9    88    87    2
    10    46    45    2
    11    91    87   am
    12    44    43    1
    13    44    45    1
    14    44    47    1
    15    87    86    1
    16    95    96    1
    17    98    97    2
    18    85    86    1
    19    39    35   am
    20    96    97    1
    21    96    99    1
    22    36    35    2
    23    47    48    1
    24    86    89    1
    25    35    34    1
    26   101    99    1
    27    99   100    1
    28    48    50   ar
    29    48    49   ar
    30    89    90    1
    31    33    34    1
    32    34    37    1
    33    50    52   ar
    34     1     2    1
    35     4     3    2
    36    49    51   ar
    37     5     2    1
    38     5     6    1
    39    37    38    1
    40    84    82   ar
    41     2     3    1
    42    52    51   ar
    43    83    82   ar
    44    53    54    1
    45    82    81    1
    46     6     7    1
    47    56    55    2
    48    60    58   am
    49    80    79    2
    50    81    78    1
    51    79    78    1
    52    54    55    1
    53    54    57    1
    54     7     8   ar
    55     7     9   ar
    56    58    57    1
    57    58    59    2
    58    78    77    1
    59    15    14    1
    60    14    16    1
    61    14    11    1
    62    13    12    2
    63    68    70   ar
    64    68    66   ar
    65    31    30    1
    66    70    69   ar
    67    29    30    1
    68    29    26    1
    69    65    66    1
    70    65    62    1
    71    27    28    2
    72    27    26    1
    73    66    67   ar
    74    12    11    1
    75    76    75    1
    76    69    67   ar
    77    30    32    1
    78    11    10    1
    79    64    63    2
    80    26    25    1
    81    63    62    1
    82    62    61    1
    83    75    72    1
    84    71    72    1
    85    72    73    1
    86    24    22   am
    87    21    22    1
    88    21    18    1
    89    73    74    2
    90    17    18    1
    91    22    23    2
    92    18    19    1
    93    19    20    2
