@<TRIPOS>MOLECULE
tmp/4j9xA00.pdb
 108 101 0 0 0
SMALL
GASTEIGER

@<TRIPOS>ATOM
      1  N        -22.2890    0.9670   21.8410 N.3    14  GLU14      -0.1245
      2  CA       -23.3010   -0.0890   21.9930 C.3    14  GLU14       0.1567
      3  C        -23.6340   -0.6850   20.6320 C.2    14  GLU14       0.2260
      4  O        -24.0670    0.0240   19.7240 O.2    14  GLU14      -0.2867
      5  CB       -24.5600    0.4660   22.6780 C.3    14  GLU14       0.0388
      6  CG       -25.7210   -0.5240   22.7940 C.3    14  GLU14       0.1160
      7  CD       -25.5650   -1.5320   23.9140 C.2    14  GLU14       0.3649
      8  OE1      -24.4760   -1.6260   24.5310 O.co2  14  GLU14      -0.2457
      9  OE2      -26.5630   -2.2510   24.1820 O.co2  14  GLU14      -0.2457
     10  N        -27.0660   -6.2790   20.7130 N.3    60  VAL60      -0.1245
     11  CA       -28.4960   -6.1280   20.4300 C.3    60  VAL60       0.1561
     12  C        -28.7280   -6.3340   18.9410 C.2    60  VAL60       0.2260
     13  O        -28.0220   -5.7500   18.1120 O.2    60  VAL60      -0.2867
     14  CB       -29.0190   -4.7410   20.8590 C.3    60  VAL60       0.0252
     15  CG1      -30.4980   -4.5850   20.5030 C.3    60  VAL60       0.0019
     16  CG2      -28.8050   -4.5430   22.3600 C.3    60  VAL60       0.0019
     17  N        -32.2820   -8.9890   22.2400 N.3    80  ASN80      -0.1240
     18  CA       -31.0100   -9.0500   22.9770 C.3    80  ASN80       0.1653
     19  C        -30.7500  -10.4610   23.4730 C.2    80  ASN80       0.2266
     20  O        -31.3880  -11.4080   23.0080 O.2    80  ASN80      -0.2867
     21  CB       -31.0140   -8.0530   24.1450 C.3    80  ASN80       0.1155
     22  CG       -32.2340   -8.2090   25.0370 C.2    80  ASN80       0.2627
     23  OD1      -32.7030   -9.3200   25.2740 O.2    80  ASN80      -0.2716
     24  ND2      -32.7680   -7.0940   25.5200 N.am   80  ASN80      -0.0877
     25  N        -36.9160   -6.4950   22.7460 N.3    85  LEU85      -0.1245
     26  CA       -37.0870   -5.1310   23.2210 C.3    85  LEU85       0.1561
     27  C        -38.3580   -4.5520   22.6330 C.2    85  LEU85       0.2260
     28  O        -39.0500   -5.2090   21.8420 O.2    85  LEU85      -0.2867
     29  CB       -35.8830   -4.2730   22.8340 C.3    85  LEU85       0.0270
     30  CG       -34.5750   -4.6030   23.5560 C.3    85  LEU85       0.0019
     31  CD1      -33.4000   -3.8970   22.8710 C.3    85  LEU85       0.0001
     32  CD2      -34.6460   -4.2130   25.0320 C.3    85  LEU85       0.0001
     33  N        -35.7600    0.9010   20.5990 N.3    88  CYS88      -0.1221
     34  CA       -34.3350    0.8570   20.8910 C.3    88  CYS88       0.1808
     35  C        -33.7300    2.0830   20.2290 C.2    88  CYS88       0.2602
     36  O        -33.6490    2.1550   19.0020 O.2    88  CYS88      -0.2717
     37  CB       -33.7190   -0.4110   20.3120 C.3    88  CYS88       0.0970
     38  SG       -31.9550   -0.6000   20.6870 S.3    88  CYS88      -0.0800
     39  N        -33.3540    3.0720   21.0350 N.am   89  GLY89      -0.1942
     40  CA       -32.8530    4.3150   20.4850 C.3    89  GLY89       0.2014
     41  C        -31.5010    4.1400   19.8090 C.2    89  GLY89       0.2638
     42  O        -31.2870    4.6870   18.7140 O.2    89  GLY89      -0.2714
     43  N        -30.5970    3.3830   20.4350 N.am   90  HIS90      -0.1973
     44  CA       -29.2620    3.2220   19.8700 C.3    90  HIS90       0.1656
     45  C        -29.3440    2.4030   18.5920 C.2    90  HIS90       0.2291
     46  O        -28.6110    2.6580   17.6380 O.2    90  HIS90      -0.2864
     47  CB       -28.2860    2.5750   20.8660 C.3    90  HIS90       0.0771
     48  CG       -28.1670    1.0890   20.7260 C.ar   90  HIS90       0.0820
     49  ND1      -28.8880    0.2060   21.5020 N.ar   90  HIS90      -0.2267
     50  CD2      -27.4040    0.3260   19.9030 C.ar   90  HIS90       0.1154
     51  CE1      -28.5820   -1.0330   21.1560 C.ar   90  HIS90       0.1986
     52  NE2      -27.6940   -0.9890   20.1820 N.ar   90  HIS90      -0.2212
     53  N        -39.2090    1.3380   26.4830 N.3   162  ASN162     -0.1240
     54  CA       -39.1230    0.1300   27.3100 C.3   162  ASN162      0.1653
     55  C        -39.4220    0.6400   28.7160 C.2   162  ASN162      0.2266
     56  O        -39.4590    1.8520   28.9230 O.2   162  ASN162     -0.2867
     57  CB       -37.7110   -0.4790   27.2690 C.3   162  ASN162      0.1155
     58  CG       -37.3240   -0.9390   25.8880 C.2   162  ASN162      0.2627
     59  OD1      -37.8530   -1.9220   25.3800 O.2   162  ASN162     -0.2716
     60  ND2      -36.4050   -0.2220   25.2610 N.am  162  ASN162     -0.0877
     61  N        -35.3840   -2.7790   32.6530 N.3   208  HIS208     -0.1241
     62  CA       -34.1840   -1.9480   32.5920 C.3   208  HIS208      0.1621
     63  C        -33.9990   -1.1450   33.8800 C.2   208  HIS208      0.2264
     64  O        -34.9460   -0.5500   34.3920 O.2   208  HIS208     -0.2867
     65  CB       -34.2720   -0.9500   31.4450 C.3   208  HIS208      0.0745
     66  CG       -34.1760   -1.5460   30.0740 C.ar  208  HIS208      0.0817
     67  ND1      -35.1910   -2.2830   29.5040 N.ar  208  HIS208     -0.2268
     68  CD2      -33.2060   -1.4470   29.1300 C.ar  208  HIS208      0.1154
     69  CE1      -34.8470   -2.6230   28.2730 C.ar  208  HIS208      0.1986
     70  NE2      -33.6530   -2.1220   28.0190 N.ar  208  HIS208     -0.2212
     71  N        -29.4230   -3.8030   31.2070 N.3   226  CYS226     -0.1221
     72  CA       -30.4160   -4.1950   30.1970 C.3   226  CYS226      0.1794
     73  C        -31.0710   -5.5110   30.6300 C.2   226  CYS226      0.2443
     74  O        -30.6330   -6.1090   31.6050 O.2   226  CYS226     -0.2733
     75  CB       -29.7320   -4.3120   28.8240 C.3   226  CYS226      0.0970
     76  SG       -29.0620   -2.7230   28.1880 S.3   226  CYS226     -0.0800
     77  N        -32.1490   -5.9380   29.9380 N.am  227  PRO227     -0.2729
     78  CA       -32.8960   -7.1140   30.4160 C.3   227  PRO227      0.1401
     79  C        -32.0840   -8.3990   30.6250 C.2   227  PRO227      0.2269
     80  O        -32.3980   -9.1620   31.5550 O.2   227  PRO227     -0.2865
     81  CB       -33.9570   -7.3080   29.3280 C.3   227  PRO227      0.0296
     82  CG       -34.2000   -5.9170   28.8140 C.3   227  PRO227      0.0237
     83  CD       -32.8410   -5.2750   28.8160 C.3   227  PRO227      0.0939
     84  N        -25.6270   -1.1560   28.9220 N.3   232  ASP232     -0.1239
     85  CA       -25.7000   -0.3960   27.6820 C.3   232  ASP232      0.1674
     86  C        -24.4480    0.4600   27.6040 C.2   232  ASP232      0.2266
     87  O        -24.1650    1.2500   28.5120 O.2   232  ASP232     -0.2867
     88  CB       -26.9490    0.4980   27.6990 C.3   232  ASP232      0.1410
     89  CG       -27.3170    1.0500   26.3240 C.2   232  ASP232      0.3668
     90  OD1      -26.4440    1.1870   25.4430 O.co2 232  ASP232     -0.2456
     91  OD2      -28.5000    1.3750   26.1170 O.co2 232  ASP232     -0.2456
     92  N        -28.1930    5.2820   26.1450 N.3   236  CYS236     -0.1221
     93  CA       -29.5100    4.6290   26.1740 C.3   236  CYS236      0.1808
     94  C        -30.6330    5.5610   25.7320 C.2   236  CYS236      0.2602
     95  O        -31.0960    6.4230   26.4940 O.2   236  CYS236     -0.2717
     96  CB       -29.7930    4.0530   27.5620 C.3   236  CYS236      0.0970
     97  SG       -31.1590    2.8900   27.6240 S.3   236  CYS236     -0.0800
     98  N        -31.0720    5.3860   24.4900 N.am  237  GLY237     -0.1942
     99  CA       -32.0830    6.2530   23.9080 C.3   237  GLY237      0.2014
    100  C        -33.4150    6.1550   24.6260 C.2   237  GLY237      0.2639
    101  O        -34.0100    7.1740   24.9990 O.2   237  GLY237     -0.2714
    102  N        -33.9030    4.9370   24.8290 N.am  238  THR238     -0.1950
    103  CA       -35.1790    4.7870   25.5170 C.3   238  THR238      0.1897
    104  C        -35.0480    5.1550   26.9970 C.2   238  THR238      0.2313
    105  O        -35.9650    5.7040   27.6040 O.2   238  THR238     -0.2863
    106  CB       -35.7730    3.3730   25.3300 C.3   238  THR238      0.1794
    107  OG1      -34.8100    2.3700   25.6940 O.3   238  THR238     -0.2208
    108  CG2      -36.1950    3.1820   23.8780 C.3   238  THR238      0.0378
@<TRIPOS>BOND
     1    46    45    2
     2    13    12    2
     3    45    44    1
     4    42    41    2
     5    12    11    1
     6    36    35    2
     7     4     3    2
     8    41    43   am
     9    41    40    1
    10    44    43    1
    11    44    47    1
    12    50    52   ar
    13    50    48   ar
    14    52    51   ar
    15    35    34    1
    16    35    39   am
    17    37    38    1
    18    37    34    1
    19    11    10    1
    20    11    14    1
    21    40    39    1
    22    15    14    1
    23    33    34    1
    24     3     2    1
    25    48    47    1
    26    48    49   ar
    27    14    16    1
    28    51    49   ar
    29     1     2    1
    30    28    27    2
    31     2     5    1
    32    17    18    1
    33    27    26    1
    34     5     6    1
    35    25    26    1
    36     6     7    1
    37    29    26    1
    38    29    30    1
    39    31    30    1
    40    18    19    1
    41    18    21    1
    42    20    19    2
    43    30    32    1
    44   108   106    1
    45    99    98    1
    46    99   100    1
    47     7     9   ar
    48     7     8   ar
    49    21    22    1
    50    98    94   am
    51   100   102   am
    52   100   101    2
    53   102   103    1
    54    22    23    2
    55    22    24   am
    56    60    58   am
    57   106   103    1
    58   106   107    1
    59    59    58    2
    60    90    89   ar
    61   103   104    1
    62    94    93    1
    63    94    95    2
    64    58    57    1
    65    91    89   ar
    66    92    93    1
    67    93    96    1
    68    89    88    1
    69    53    54    1
    70   104   105    2
    71    57    54    1
    72    54    55    1
    73    96    97    1
    74    86    85    1
    75    86    87    2
    76    85    88    1
    77    85    84    1
    78    70    69   ar
    79    70    68   ar
    80    76    75    1
    81    69    67   ar
    82    55    56    2
    83    82    83    1
    84    82    81    1
    85    83    77    1
    86    75    72    1
    87    68    66   ar
    88    81    78    1
    89    67    66   ar
    90    77    78    1
    91    77    73   am
    92    66    65    1
    93    72    73    1
    94    72    71    1
    95    78    79    1
    96    79    80    2
    97    73    74    2
    98    65    62    1
    99    62    61    1
   100    62    63    1
   101    63    64    2
