@<TRIPOS>MOLECULE
tmp/4jaaA00.pdb
 130 122 0 0 0
SMALL
GASTEIGER

@<TRIPOS>ATOM
      1  N        -21.8670   11.3210   -0.1910 N.3   124  TYR124     -0.1241
      2  CA       -21.7170   12.2780   -1.2810 C.3   124  TYR124      0.1605
      3  C        -20.6330   13.3030   -0.9500 C.2   124  TYR124      0.2264
      4  O        -20.8290   14.2090   -0.1370 O.2   124  TYR124     -0.2867
      5  CB       -23.0420   12.9710   -1.5660 C.3   124  TYR124      0.0534
      6  CG       -23.2770   13.3260   -3.0170 C.ar  124  TYR124     -0.0201
      7  CD1      -22.2220   13.5750   -3.8790 C.ar  124  TYR124     -0.0009
      8  CD2      -24.5730   13.4360   -3.5220 C.ar  124  TYR124     -0.0009
      9  CE1      -22.4420   13.9080   -5.2050 C.ar  124  TYR124      0.0417
     10  CE2      -24.8050   13.7760   -4.8440 C.ar  124  TYR124      0.0417
     11  CZ       -23.7410   14.0030   -5.6840 C.ar  124  TYR124      0.1957
     12  OH       -23.9710   14.3340   -6.9960 O.3   124  TYR124     -0.2866
     13  N        -18.7100   16.5350   -1.5220 N.3   126  GLN126     -0.1245
     14  CA       -18.9220   17.8170   -2.1810 C.3   126  GLN126      0.1566
     15  C        -18.0300   18.8390   -1.5520 C.2   126  GLN126      0.2260
     16  O        -18.3020   19.3390   -0.4600 O.2   126  GLN126     -0.2867
     17  CB       -20.3640   18.2770   -2.0510 C.3   126  GLN126      0.0367
     18  CG       -21.3520   17.2100   -2.3980 C.3   126  GLN126      0.0905
     19  CD       -22.7660   17.7340   -2.4570 C.2   126  GLN126      0.2608
     20  OE1      -23.0600   18.8450   -2.0200 O.2   126  GLN126     -0.2717
     21  NE2      -23.6470   16.9310   -3.0050 N.am  126  GLN126     -0.0878
     22  N        -16.9600   23.3510   -7.5120 N.3   165  LEU165     -0.1245
     23  CA       -17.3590   22.3200   -6.5840 C.3   165  LEU165      0.1561
     24  C        -17.0480   20.9380   -7.1710 C.2   165  LEU165      0.2260
     25  O        -17.4530   20.6050   -8.2920 O.2   165  LEU165     -0.2867
     26  CB       -18.8460   22.4400   -6.2710 C.3   165  LEU165      0.0270
     27  CG       -19.3160   21.6070   -5.0790 C.3   165  LEU165      0.0019
     28  CD1      -18.6560   22.1430   -3.8170 C.3   165  LEU165      0.0001
     29  CD2      -20.8740   21.6010   -4.9700 C.3   165  LEU165      0.0001
     30  N        -17.7810   17.0920   -7.0060 N.3   167  LEU167     -0.1245
     31  CA       -18.8700   16.2300   -6.5500 C.3   167  LEU167      0.1561
     32  C        -18.5570   14.7720   -6.8490 C.2   167  LEU167      0.2260
     33  O        -18.3740   14.4060   -8.0070 O.2   167  LEU167     -0.2867
     34  CB       -20.1680   16.6140   -7.2470 C.3   167  LEU167      0.0270
     35  CG       -20.7110   17.9880   -6.8830 C.3   167  LEU167      0.0019
     36  CD1      -20.6280   18.9020   -8.0760 C.3   167  LEU167      0.0001
     37  CD2      -22.1490   17.8900   -6.4010 C.3   167  LEU167      0.0001
     38  N        -29.7240   14.4660   -5.8560 N.3   175  THR175     -0.1218
     39  CA       -29.8110   15.8350   -5.3520 C.3   175  THR175      0.1862
     40  C        -31.2060   16.3530   -5.7200 C.2   175  THR175      0.2287
     41  O        -31.5260   16.4940   -6.9020 O.2   175  THR175     -0.2866
     42  CB       -28.7290   16.7550   -5.9780 C.3   175  THR175      0.1770
     43  OG1      -27.4310   16.2990   -5.5870 O.3   175  THR175     -0.2211
     44  CG2      -28.9020   18.2100   -5.5360 C.3   175  THR175      0.0375
     45  N        -33.8600   21.9230   -6.9170 N.3   178  HIS178     -0.1241
     46  CA       -33.5170   23.1980   -6.3120 C.3   178  HIS178      0.1621
     47  C        -33.0090   24.1340   -7.4050 C.2   178  HIS178      0.2264
     48  O        -32.7490   23.7010   -8.5430 O.2   178  HIS178     -0.2867
     49  CB       -32.4230   23.0280   -5.2600 C.3   178  HIS178      0.0745
     50  CG       -31.0730   22.7360   -5.8390 C.ar  178  HIS178      0.0817
     51  ND1      -30.7330   21.4980   -6.3200 N.ar  178  HIS178     -0.2268
     52  CD2      -29.9850   23.5310   -6.0190 C.ar  178  HIS178      0.1154
     53  CE1      -29.4870   21.5290   -6.7720 C.ar  178  HIS178      0.1986
     54  NE2      -29.0090   22.7430   -6.5930 N.ar  178  HIS178     -0.2212
     55  N        -30.2180   27.6380   -8.0320 N.3   180  ASP180     -0.1239
     56  CA       -29.0200   28.2600   -7.5090 C.3   180  ASP180      0.1674
     57  C        -29.0430   29.6900   -8.0230 C.2   180  ASP180      0.2266
     58  O        -29.5750   29.9420   -9.0930 O.2   180  ASP180     -0.2867
     59  CB       -27.7670   27.5300   -8.0370 C.3   180  ASP180      0.1410
     60  CG       -27.6230   26.1060   -7.4940 C.2   180  ASP180      0.3668
     61  OD1      -27.7740   25.9580   -6.2680 O.co2 180  ASP180     -0.2456
     62  OD2      -27.3500   25.1430   -8.2840 O.co2 180  ASP180     -0.2456
     63  N        -23.9910   28.3010  -13.9520 N.3   184  ASN184     -0.1240
     64  CA       -23.2950   27.0450  -13.7110 C.3   184  ASN184      0.1653
     65  C        -22.9760   26.3050  -15.0240 C.2   184  ASN184      0.2266
     66  O        -23.8720   25.9670  -15.8040 O.2   184  ASN184     -0.2867
     67  CB       -24.1430   26.1630  -12.7930 C.3   184  ASN184      0.1155
     68  CG       -23.4570   24.8630  -12.4130 C.2   184  ASN184      0.2627
     69  OD1      -22.3890   24.5310  -12.9280 O.2   184  ASN184     -0.2716
     70  ND2      -24.0880   24.1020  -11.5190 N.am  184  ASN184     -0.0877
     71  N        -21.5990   22.8450  -15.7410 N.3   186  PHE186     -0.1241
     72  CA       -21.6000   21.5840  -15.0050 C.3   186  PHE186      0.1605
     73  C        -20.8360   20.5520  -15.8440 C.2   186  PHE186      0.2264
     74  O        -21.3500   20.0430  -16.8600 O.2   186  PHE186     -0.2867
     75  CB       -23.0670   21.1650  -14.8370 C.3   186  PHE186      0.0534
     76  CG       -23.3150   20.0010  -13.9190 C.ar  186  PHE186     -0.0203
     77  CD1      -23.4410   18.7260  -14.4170 C.ar  186  PHE186     -0.0042
     78  CD2      -23.5310   20.1980  -12.5770 C.ar  186  PHE186     -0.0042
     79  CE1      -23.7270   17.6700  -13.5900 C.ar  186  PHE186     -0.0003
     80  CE2      -23.8220   19.1410  -11.7420 C.ar  186  PHE186     -0.0003
     81  CZ       -23.9170   17.8800  -12.2590 C.ar  186  PHE186     -0.0000
     82  N        -24.8560   11.1370  -14.9920 N.3   193  LYS193     -0.1245
     83  CA       -25.8800   11.8230  -14.2180 C.3   193  LYS193      0.1561
     84  C        -27.0530   12.2460  -15.0950 C.2   193  LYS193      0.2260
     85  O        -26.8750   12.8800  -16.1470 O.2   193  LYS193     -0.2867
     86  CB       -25.3130   13.0630  -13.5280 C.3   193  LYS193      0.0271
     87  CG       -24.4720   12.7630  -12.3200 C.3   193  LYS193      0.0035
     88  CD       -23.9830   14.0260  -11.6980 C.3   193  LYS193      0.0206
     89  CE       -23.5210   13.7790  -10.3050 C.3   193  LYS193      0.1093
     90  NZ       -22.9240   15.0320   -9.7780 N.3   193  LYS193     -0.1314
     91  N        -33.1640   22.3990  -10.9470 N.3   258  HIS258     -0.1241
     92  CA       -32.5280   21.1760  -11.4090 C.3   258  HIS258      0.1621
     93  C        -32.5730   20.0760  -10.3570 C.2   258  HIS258      0.2264
     94  O        -32.2950   20.2940   -9.1900 O.2   258  HIS258     -0.2867
     95  CB       -31.1050   21.4020  -11.9540 C.3   258  HIS258      0.0745
     96  CG       -30.2290   22.2410  -11.0760 C.ar  258  HIS258      0.0817
     97  ND1      -30.3940   23.5950  -10.9450 N.ar  258  HIS258     -0.2268
     98  CD2      -29.1570   21.9130  -10.3200 C.ar  258  HIS258      0.1154
     99  CE1      -29.4750   24.0710  -10.1180 C.ar  258  HIS258      0.1986
    100  NE2      -28.7010   23.0720   -9.7350 N.ar  258  HIS258     -0.2212
    101  N        -30.9980   16.2140   -9.9030 N.3   260  ILE260     -0.1245
    102  CA       -29.7970   15.5250  -10.4310 C.3   260  ILE260      0.1561
    103  C        -29.5540   14.1640   -9.7890 C.2   260  ILE260      0.2260
    104  O        -29.4350   14.0470   -8.5810 O.2   260  ILE260     -0.2867
    105  CB       -28.5320   16.4050  -10.2870 C.3   260  ILE260      0.0252
    106  CG1      -28.6460   17.6050  -11.2290 C.3   260  ILE260      0.0019
    107  CG2      -27.2510   15.6130  -10.6270 C.3   260  ILE260      0.0019
    108  CD1      -27.6060   18.6300  -11.0090 C.3   260  ILE260      0.0001
    109  N        -18.1750   21.5650  -11.0730 N.3   273  ASN273     -0.1240
    110  CA       -18.9790   22.6440  -11.6270 C.3   273  ASN273      0.1653
    111  C        -18.1920   23.9470  -11.6080 C.2   273  ASN273      0.2266
    112  O        -17.1040   24.0130  -11.0390 O.2   273  ASN273     -0.2867
    113  CB       -20.3660   22.7790  -10.9340 C.3   273  ASN273      0.1155
    114  CG       -20.2830   23.3630   -9.5220 C.2   273  ASN273      0.2627
    115  OD1      -19.2350   23.8570   -9.0920 O.2   273  ASN273     -0.2716
    116  ND2      -21.3900   23.2970   -8.7930 N.am  273  ASN273     -0.0877
    117  N        -19.1750   27.8870  -10.9480 N.3   275  TRP275     -0.1241
    118  CA       -20.2140   28.8260  -10.5340 C.3   275  TRP275      0.1605
    119  C        -19.7760   30.2740  -10.7650 C.2   275  TRP275      0.2264
    120  O        -18.7590   30.7210  -10.2130 O.2   275  TRP275     -0.2867
    121  CB       -20.5740   28.6080   -9.0570 C.3   275  TRP275      0.0550
    122  CG       -21.7520   27.6800   -8.8230 C.ar  275  TRP275      0.0003
    123  CD1      -22.8980   27.6020   -9.5600 C.ar  275  TRP275      0.0946
    124  CD2      -21.8960   26.7110   -7.7730 C.ar  275  TRP275      0.0152
    125  NE1      -23.7420   26.6540   -9.0390 N.ar  275  TRP275     -0.2442
    126  CE2      -23.1490   26.0900   -7.9460 C.ar  275  TRP275      0.0810
    127  CE3      -21.0880   26.3120   -6.7050 C.ar  275  TRP275      0.0012
    128  CZ2      -23.6050   25.0970   -7.1000 C.ar  275  TRP275      0.0191
    129  CZ3      -21.5370   25.3270   -5.8670 C.ar  275  TRP275      0.0001
    130  CH2      -22.7850   24.7310   -6.0620 C.ar  275  TRP275      0.0015
@<TRIPOS>BOND
     1    74    73    2
     2    85    84    2
     3    73    72    1
     4    66    65    2
     5    71    72    1
     6    84    83    1
     7    65    64    1
     8    72    75    1
     9    82    83    1
    10    75    76    1
    11    77    76   ar
    12    77    79   ar
    13    83    86    1
    14    63    64    1
    15    76    78   ar
    16    64    67    1
    17    79    81   ar
    18    86    87    1
    19    69    68    2
    20    67    68    1
    21    78    80   ar
    22    68    70   am
    23    87    88    1
    24    81    80   ar
    25    95    92    1
    26    95    96    1
    27    88    89    1
    28   110   111    1
    29   110   109    1
    30   110   113    1
    31   111   112    2
    32    92    91    1
    33    92    93    1
    34   106   108    1
    35   106   105    1
    36    96    97   ar
    37    96    98   ar
    38   117   118    1
    39    97    99   ar
    40   113   114    1
    41   119   118    1
    42   119   120    2
    43   107   105    1
    44   118   121    1
    45   102   105    1
    46   102   101    1
    47   102   103    1
    48    93    94    2
    49    98   100   ar
    50    89    90    1
    51    99   100   ar
    52   103   104    2
    53   123   125   ar
    54   123   122   ar
    55   114   115    2
    56   114   116   am
    57    58    57    2
    58   121   122    1
    59   125   126   ar
    60   122   124   ar
    61    48    47    2
    62    25    24    2
    63    62    60   ar
    64    36    35    1
    65    59    56    1
    66    59    60    1
    67    55    56    1
    68    57    56    1
    69    33    32    2
    70   126   124   ar
    71   126   128   ar
    72   124   127   ar
    73    22    23    1
    74    60    61   ar
    75    47    46    1
    76    34    35    1
    77    34    31    1
    78    24    23    1
    79   128   130   ar
    80    30    31    1
    81    12    11    1
    82    45    46    1
    83    41    40    2
    84    35    37    1
    85    32    31    1
    86    53    54   ar
    87    53    51   ar
    88   127   129   ar
    89    54    52   ar
    90    23    26    1
    91    51    50   ar
    92    46    49    1
    93    26    27    1
    94   130   129   ar
    95    52    50   ar
    96    42    43    1
    97    42    44    1
    98    42    39    1
    99    38    39    1
   100    50    49    1
   101    40    39    1
   102    11     9   ar
   103    11    10   ar
   104     9     7   ar
   105    27    29    1
   106    27    28    1
   107    10     8   ar
   108     7     6   ar
   109     8     6   ar
   110     6     5    1
   111    21    19   am
   112    19    18    1
   113    19    20    2
   114    18    17    1
   115    14    17    1
   116    14    15    1
   117    14    13    1
   118     5     2    1
   119    15    16    2
   120     2     3    1
   121     2     1    1
   122     3     4    2
