@<TRIPOS>MOLECULE
tmp/4jaeA00.pdb
 157 152 0 0 0
SMALL
GASTEIGER

@<TRIPOS>ATOM
      1  N         57.1790   35.4600   81.1670 N.3   102  GLU102     -0.1245
      2  CA        57.3380   34.6510   79.9620 C.3   102  GLU102      0.1567
      3  C         57.3640   35.5730   78.7510 C.2   102  GLU102      0.2260
      4  O         58.2780   35.5200   77.9220 O.2   102  GLU102     -0.2867
      5  CB        56.1670   33.6690   79.8130 C.3   102  GLU102      0.0388
      6  CG        56.1140   32.5610   80.8570 C.3   102  GLU102      0.1160
      7  CD        57.4620   31.8750   81.0370 C.2   102  GLU102      0.3649
      8  OE1       58.0760   31.4700   80.0170 O.co2 102  GLU102     -0.2457
      9  OE2       57.9090   31.7450   82.2030 O.co2 102  GLU102     -0.2457
     10  N         60.5120   38.2100   79.1250 N.3   105  THR105     -0.1203
     11  CA        61.7880   37.5280   78.9380 C.3   105  THR105      0.1994
     12  C         62.0340   37.1510   77.4860 C.2   105  THR105      0.2618
     13  O         63.1650   37.2160   77.0070 O.2   105  THR105     -0.2717
     14  CB        61.8790   36.2730   79.8230 C.3   105  THR105      0.1784
     15  OG1       62.3090   36.6570   81.1380 O.3   105  THR105     -0.2211
     16  CG2       62.8540   35.2670   79.2390 C.3   105  THR105      0.0376
     17  N         60.9730   36.7630   76.7890 N.am  106  THR106     -0.1952
     18  CA        61.0710   36.3880   75.3810 C.3   106  THR106      0.1897
     19  C         61.4550   37.6080   74.5420 C.2   106  THR106      0.2313
     20  O         62.4710   37.6180   73.8380 O.2   106  THR106     -0.2863
     21  CB        59.7340   35.8390   74.8840 C.3   106  THR106      0.1794
     22  OG1       59.4310   34.6300   75.5950 O.3   106  THR106     -0.2208
     23  CG2       59.7860   35.5580   73.3900 C.3   106  THR106      0.0378
     24  N         62.8480   40.1890   75.2650 N.3   108  THR108     -0.1203
     25  CA        64.2210   40.5630   75.5760 C.3   108  THR108      0.1994
     26  C         65.1980   39.5990   74.9260 C.2   108  THR108      0.2618
     27  O         66.2970   39.9740   74.5420 O.2   108  THR108     -0.2717
     28  CB        64.4600   40.5560   77.1110 C.3   108  THR108      0.1784
     29  OG1       63.6170   41.5350   77.7340 O.3   108  THR108     -0.2211
     30  CG2       65.9160   40.8650   77.4340 C.3   108  THR108      0.0376
     31  N         64.7860   38.3500   74.7980 N.am  109  ARG109     -0.1965
     32  CA        65.6430   37.3380   74.2120 C.3   109  ARG109      0.1729
     33  C         66.0280   37.5740   72.7630 C.2   109  ARG109      0.2616
     34  O         67.1140   37.1830   72.3480 O.2   109  ARG109     -0.2715
     35  CB        64.9830   35.9520   74.3280 C.3   109  ARG109      0.0348
     36  CG        65.2720   35.2300   75.6310 C.3   109  ARG109      0.0492
     37  CD        66.7630   34.9570   75.7290 C.3   109  ARG109      0.2205
     38  NE        67.2930   35.2120   77.0700 N.pl3 109  ARG109     -0.0865
     39  CZ        68.5890   35.1810   77.3710 C.cat 109  ARG109      0.5346
     40  NH1       69.4880   34.9080   76.4230 N.pl3 109  ARG109      0.1354
     41  NH2       68.9840   35.4150   78.6180 N.pl3 109  ARG109      0.1354
     42  N         65.1610   38.2150   71.9860 N.am  110  HIS110     -0.1959
     43  CA        65.4570   38.4020   70.5630 C.3   110  HIS110      0.1787
     44  C         65.4000   39.8370   70.0400 C.2   110  HIS110      0.2621
     45  O         64.8150   40.1110   68.9880 O.2   110  HIS110     -0.2715
     46  CB        64.5290   37.4780   69.7570 C.3   110  HIS110      0.0785
     47  CG        64.5100   36.0710   70.2740 C.ar  110  HIS110      0.0821
     48  ND1       63.7680   35.6920   71.3730 N.ar  110  HIS110     -0.2267
     49  CD2       65.2090   34.9720   69.9010 C.ar  110  HIS110      0.1154
     50  CE1       64.0090   34.4220   71.6530 C.ar  110  HIS110      0.1986
     51  NE2       64.8810   33.9610   70.7740 N.ar  110  HIS110     -0.2212
     52  N         66.0540   40.7370   70.7630 N.am  111  THR111     -0.1937
     53  CA        66.0630   42.1350   70.4020 C.3   111  THR111      0.2028
     54  C         67.0860   42.4990   69.3310 C.2   111  THR111      0.2642
     55  O         66.8530   43.3850   68.5070 O.2   111  THR111     -0.2714
     56  CB        66.3000   43.0000   71.6520 C.3   111  THR111      0.1808
     57  OG1       67.4870   42.5640   72.3140 O.3   111  THR111     -0.2208
     58  CG2       65.1280   42.8770   72.6150 C.3   111  THR111      0.0379
     59  N         68.2190   41.8110   69.3360 N.am  112  MET112     -0.1976
     60  CA        69.2690   42.0840   68.3680 C.3   112  MET112      0.1605
     61  C         68.8190   41.7420   66.9660 C.2   112  MET112      0.2287
     62  O         68.1370   40.7440   66.7790 O.2   112  MET112     -0.2864
     63  CB        70.4940   41.2470   68.6880 C.3   112  MET112      0.0413
     64  CG        71.1490   41.5070   70.0160 C.3   112  MET112      0.0598
     65  SD        72.4320   40.2420   70.2360 S.3   112  MET112     -0.1393
     66  CE        73.8820   41.0500   69.5290 C.3   112  MET112      0.0692
     67  N         69.8740   40.7440   62.9570 N.3   114  HIS114     -0.1241
     68  CA        70.9720   40.0510   62.2580 C.3   114  HIS114      0.1621
     69  C         72.0170   41.0190   61.7170 C.2   114  HIS114      0.2264
     70  O         71.6780   42.0540   61.1440 O.2   114  HIS114     -0.2867
     71  CB        70.4020   39.2070   61.1070 C.3   114  HIS114      0.0745
     72  CG        71.3780   38.2390   60.4930 C.ar  114  HIS114      0.0817
     73  ND1       72.4420   38.6370   59.7080 N.ar  114  HIS114     -0.2268
     74  CD2       71.4080   36.8820   60.4990 C.ar  114  HIS114      0.1154
     75  CE1       73.0800   37.5710   59.2570 C.ar  114  HIS114      0.1986
     76  NE2       72.4730   36.4930   59.7220 N.ar  114  HIS114     -0.2212
     77  N         64.6320   36.4980   57.0440 N.3   145  TYR145     -0.1241
     78  CA        63.8300   35.5890   57.8470 C.3   145  TYR145      0.1605
     79  C         62.9300   34.8250   56.8690 C.2   145  TYR145      0.2264
     80  O         61.7060   34.8120   57.0100 O.2   145  TYR145     -0.2867
     81  CB        63.0120   36.4000   58.8710 C.3   145  TYR145      0.0534
     82  CG        63.8820   37.2250   59.8170 C.ar  145  TYR145     -0.0201
     83  CD1       64.6530   36.6110   60.8100 C.ar  145  TYR145     -0.0009
     84  CD2       63.9970   38.6110   59.6760 C.ar  145  TYR145     -0.0009
     85  CE1       65.5290   37.3570   61.6400 C.ar  145  TYR145      0.0417
     86  CE2       64.8720   39.3710   60.5020 C.ar  145  TYR145      0.0417
     87  CZ        65.6340   38.7320   61.4780 C.ar  145  TYR145      0.1957
     88  OH        66.5110   39.4560   62.2730 O.3   145  TYR145     -0.2866
     89  N         53.0380   33.2640   65.5080 N.3   158  GLU158     -0.1231
     90  CA        53.5890   33.2130   66.8510 C.3   158  GLU158      0.1699
     91  C         54.9780   33.8590   66.9060 C.2   158  GLU158      0.2592
     92  O         55.1720   34.8890   67.5510 O.2   158  GLU158     -0.2718
     93  CB        53.6360   31.7400   67.2660 C.3   158  GLU158      0.0402
     94  CG        54.2320   31.3980   68.6150 C.3   158  GLU158      0.1161
     95  CD        54.4900   29.8940   68.7380 C.2   158  GLU158      0.3649
     96  OE1       55.3070   29.3580   67.9480 O.co2 158  GLU158     -0.2457
     97  OE2       53.8720   29.2440   69.6120 O.co2 158  GLU158     -0.2457
     98  N         55.9370   33.2560   66.2150 N.am  159  ILE159     -0.1980
     99  CA        57.3000   33.7710   66.1840 C.3   159  ILE159      0.1595
    100  C         57.3820   35.1400   65.5170 C.2   159  ILE159      0.2287
    101  O         57.7470   36.1290   66.1580 O.2   159  ILE159     -0.2864
    102  CB        58.2340   32.8260   65.4150 C.3   159  ILE159      0.0276
    103  CG1       58.3140   31.4770   66.1260 C.3   159  ILE159      0.0022
    104  CG2       59.6090   33.4560   65.2780 C.3   159  ILE159      0.0022
    105  CD1       59.2620   30.4970   65.4580 C.3   159  ILE159      0.0001
    106  N         56.6730   38.2990   67.5800 N.3   162  PHE162     -0.1227
    107  CA        57.7160   38.5460   68.5690 C.3   162  PHE162      0.1736
    108  C         58.9620   39.1720   67.9710 C.2   162  PHE162      0.2595
    109  O         59.6040   40.0120   68.6020 O.2   162  PHE162     -0.2718
    110  CB        58.0670   37.2460   69.2820 C.3   162  PHE162      0.0547
    111  CG        57.1780   36.9490   70.4490 C.ar  162  PHE162     -0.0202
    112  CD1       57.3810   37.5870   71.6670 C.ar  162  PHE162     -0.0042
    113  CD2       56.1210   36.0550   70.3300 C.ar  162  PHE162     -0.0042
    114  CE1       56.5420   37.3390   72.7550 C.ar  162  PHE162     -0.0003
    115  CE2       55.2760   35.8010   71.4130 C.ar  162  PHE162     -0.0003
    116  CZ        55.4890   36.4450   72.6260 C.ar  162  PHE162     -0.0000
    117  N         59.3080   38.7560   66.7590 N.am  163  ARG163     -0.1980
    118  CA        60.4610   39.3200   66.0800 C.3   163  ARG163      0.1597
    119  C         60.2450   40.8320   65.9120 C.2   163  ARG163      0.2287
    120  O         61.0820   41.6510   66.3020 O.2   163  ARG163     -0.2864
    121  CB        60.6250   38.6880   64.7050 C.3   163  ARG163      0.0334
    122  CG        61.2760   37.3250   64.6770 C.3   163  ARG163      0.0492
    123  CD        61.7080   37.0530   63.2470 C.3   163  ARG163      0.2205
    124  NE        62.7090   35.9970   63.1270 N.pl3 163  ARG163     -0.0865
    125  CZ        62.4440   34.7420   62.7780 C.cat 163  ARG163      0.5346
    126  NH1       63.4270   33.8500   62.6920 N.pl3 163  ARG163      0.1354
    127  NH2       61.1940   34.3810   62.5070 N.pl3 163  ARG163      0.1354
    128  N         59.9130   42.6640   69.1940 N.3   166  SER166     -0.1202
    129  CA        61.2060   42.7490   69.8600 C.3   166  SER166      0.2020
    130  C         62.2210   43.6520   69.1950 C.2   166  SER166      0.2618
    131  O         62.8530   44.4820   69.8520 O.2   166  SER166     -0.2717
    132  CB        61.8360   41.3600   69.9880 C.3   166  SER166      0.2103
    133  OG        60.9890   40.4510   70.6570 O.3   166  SER166     -0.2182
    134  N         62.3670   43.4920   67.8860 N.am  167  LYS167     -0.1979
    135  CA        63.3730   44.2280   67.1250 C.3   167  LYS167      0.1596
    136  C         63.0340   45.6020   66.5740 C.2   167  LYS167      0.2287
    137  O         63.9340   46.3430   66.1900 O.2   167  LYS167     -0.2864
    138  CB        63.8630   43.3480   65.9810 C.3   167  LYS167      0.0298
    139  CG        64.1970   41.9290   66.4030 C.3   167  LYS167      0.0038
    140  CD        64.4460   41.0510   65.1810 C.3   167  LYS167      0.0206
    141  CE        64.7380   39.6130   65.5830 C.3   167  LYS167      0.1093
    142  NZ        65.9550   39.5170   66.4380 N.3   167  LYS167     -0.1314
    143  N         71.0980   46.3840   72.1570 N.3   187  PRO187     -0.2116
    144  CA        70.1330   46.3470   73.2590 C.3   187  PRO187      0.1372
    145  C         70.8000   45.8540   74.5440 C.2   187  PRO187      0.2244
    146  O         71.7510   45.0690   74.4950 O.2   187  PRO187     -0.2868
    147  CB        69.0780   45.3560   72.7600 C.3   187  PRO187      0.0268
    148  CG        69.1030   45.5480   71.2860 C.3   187  PRO187      0.0207
    149  CD        70.5810   45.6480   70.9840 C.3   187  PRO187      0.0892
    150  N         69.9890   43.9520   78.1190 N.3   189  ASN189     -0.1240
    151  CA        69.0110   43.1180   78.7880 C.3   189  ASN189      0.1653
    152  C         68.5920   43.5050   80.1860 C.2   189  ASN189      0.2266
    153  O         67.6350   42.9420   80.7070 O.2   189  ASN189     -0.2867
    154  CB        69.4860   41.6730   78.7650 C.3   189  ASN189      0.1155
    155  CG        69.5760   41.1250   77.3530 C.2   189  ASN189      0.2627
    156  OD1       69.0950   41.7560   76.4010 O.2   189  ASN189     -0.2716
    157  ND2       70.1830   39.9450   77.2040 N.am  189  ASN189     -0.0877
@<TRIPOS>BOND
     1    79    80    2
     2    79    78    1
     3    77    78    1
     4    78    81    1
     5    81    82    1
     6    75    73   ar
     7    75    76   ar
     8    84    82   ar
     9    84    86   ar
    10    73    72   ar
    11    76    74   ar
    12    82    83   ar
    13    72    74   ar
    14    72    71    1
    15    86    87   ar
    16    83    85   ar
    17    71    68    1
    18    70    69    2
    19    87    85   ar
    20    87    88    1
    21    69    68    1
    22    68    67    1
    23   127   125    1
    24   126   125    1
    25   125   124    2
    26   124   123    1
    27   123   122    1
    28   122   121    1
    29   121   118    1
    30   140   141    1
    31   140   139    1
    32   104   102    1
    33   102   103    1
    34   102    99    1
    35   105   103    1
    36    89    90    1
    37   100   101    2
    38   100    99    1
    39   141   142    1
    40   119   118    1
    41   119   120    2
    42   138   139    1
    43   138   135    1
    44   118   117    1
    45    99    98    1
    46   137   136    2
    47    98    91   am
    48   136   135    1
    49   117   108   am
    50    62    61    2
    51    90    91    1
    52    90    93    1
    53    91    92    2
    54    61    60    1
    55   135   134    1
    56    93    94    1
    57   106   107    1
    58   134   130   am
    59    96    95   ar
    60   108   107    1
    61   108   109    2
    62    60    63    1
    63    60    59    1
    64    55    54    2
    65   107   110    1
    66    94    95    1
    67    63    64    1
    68    95    97   ar
    69    45    44    2
    70   128   129    1
    71   130   131    2
    72   130   129    1
    73   110   111    1
    74    54    59   am
    75    54    53    1
    76    66    65    1
    77    46    47    1
    78    46    43    1
    79   129   132    1
    80    49    47   ar
    81    49    51   ar
    82   132   133    1
    83    64    65    1
    84    44    43    1
    85    44    52   am
    86    47    48   ar
    87   113   111   ar
    88   113   115   ar
    89    53    52    1
    90    53    56    1
    91   111   112   ar
    92    43    42    1
    93    51    50   ar
    94   149   148    1
    95   149   143    1
    96   148   147    1
    97    48    50   ar
    98   115   116   ar
    99    56    57    1
   100    56    58    1
   101   112   114   ar
   102    42    33   am
   103   143   144    1
   104    34    33    2
   105   116   114   ar
   106   147   144    1
   107    33    32    1
   108   144   145    1
   109    23    21    1
   110    20    19    2
   111    32    35    1
   112    32    31    1
   113    35    36    1
   114   146   145    2
   115    19    18    1
   116    27    26    2
   117    31    26   am
   118    21    18    1
   119    21    22    1
   120    26    25    1
   121    24    25    1
   122    18    17    1
   123    25    28    1
   124    36    37    1
   125    37    38    1
   126   156   155    2
   127    40    39    1
   128    17    12   am
   129    13    12    2
   130    38    39    2
   131    28    30    1
   132    28    29    1
   133   157   155   am
   134   155   154    1
   135    39    41    1
   136    12    11    1
   137     4     3    2
   138   150   151    1
   139     3     2    1
   140   154   151    1
   141   151   152    1
   142    11    10    1
   143    11    14    1
   144    16    14    1
   145     5     2    1
   146     5     6    1
   147    14    15    1
   148     2     1    1
   149     8     7   ar
   150   152   153    2
   151     6     7    1
   152     7     9   ar
