@<TRIPOS>MOLECULE
tmp/4jafA00.pdb
 173 169 0 0 0
SMALL
GASTEIGER

@<TRIPOS>ATOM
      1  N         60.7320   36.5310   76.3610 N.3   106  THR106     -0.1218
      2  CA        60.7610   36.1870   74.9450 C.3   106  THR106      0.1862
      3  C         61.1100   37.4270   74.1280 C.2   106  THR106      0.2287
      4  O         61.8950   37.3660   73.1760 O.2   106  THR106     -0.2866
      5  CB        59.4010   35.6410   74.4650 C.3   106  THR106      0.1770
      6  OG1       59.0880   34.4370   75.1800 O.3   106  THR106     -0.2211
      7  CG2       59.4500   35.3350   72.9750 C.3   106  THR106      0.0375
      8  N         62.6900   40.3040   75.2290 N.3   108  THR108     -0.1203
      9  CA        64.0410   40.7030   75.5640 C.3   108  THR108      0.1994
     10  C         65.1290   39.8550   74.9030 C.2   108  THR108      0.2618
     11  O         66.1960   40.3770   74.5650 O.2   108  THR108     -0.2717
     12  CB        64.2440   40.6740   77.1010 C.3   108  THR108      0.1784
     13  OG1       63.2580   41.5060   77.7260 O.3   108  THR108     -0.2211
     14  CG2       65.6370   41.1850   77.4810 C.3   108  THR108      0.0376
     15  N         64.8650   38.5630   74.7090 N.am  109  ARG109     -0.1965
     16  CA        65.8660   37.6710   74.1260 C.3   109  ARG109      0.1729
     17  C         66.1050   37.7970   72.6290 C.2   109  ARG109      0.2616
     18  O         67.0560   37.2140   72.1180 O.2   109  ARG109     -0.2715
     19  CB        65.5360   36.2000   74.4220 C.3   109  ARG109      0.0348
     20  CG        65.4050   35.8210   75.8920 C.3   109  ARG109      0.0492
     21  CD        66.6110   36.2090   76.7510 C.3   109  ARG109      0.2205
     22  NE        67.8630   35.5920   76.3190 N.pl3 109  ARG109     -0.0865
     23  CZ        69.0290   35.7530   76.9450 C.cat 109  ARG109      0.5346
     24  NH1       69.0970   36.5030   78.0370 N.pl3 109  ARG109      0.1354
     25  NH2       70.1310   35.1890   76.4630 N.pl3 109  ARG109      0.1354
     26  N         65.2580   38.5370   71.9220 N.am  110  HIS110     -0.1959
     27  CA        65.4320   38.6740   70.4790 C.3   110  HIS110      0.1787
     28  C         65.5270   40.1030   69.9550 C.2   110  HIS110      0.2621
     29  O         65.2280   40.3640   68.7880 O.2   110  HIS110     -0.2715
     30  CB        64.3130   37.9260   69.7560 C.3   110  HIS110      0.0785
     31  CG        64.3350   36.4510   69.9910 C.ar  110  HIS110      0.0821
     32  ND1       63.7120   35.8560   71.0690 N.ar  110  HIS110     -0.2267
     33  CD2       64.9460   35.4480   69.3120 C.ar  110  HIS110      0.1154
     34  CE1       63.9340   34.5530   71.0400 C.ar  110  HIS110      0.1986
     35  NE2       64.6790   34.2810   69.9840 N.ar  110  HIS110     -0.2212
     36  N         65.9710   41.0170   70.8110 N.am  111  THR111     -0.1937
     37  CA        66.1000   42.4220   70.4490 C.3   111  THR111      0.2028
     38  C         67.2150   42.7130   69.4370 C.2   111  THR111      0.2642
     39  O         67.1080   43.6470   68.6320 O.2   111  THR111     -0.2714
     40  CB        66.3560   43.2810   71.6970 C.3   111  THR111      0.1808
     41  OG1       67.4350   42.7080   72.4480 O.3   111  THR111     -0.2208
     42  CG2       65.0990   43.3690   72.5640 C.3   111  THR111      0.0379
     43  N         68.2810   41.9180   69.4820 N.am  112  MET112     -0.1962
     44  CA        69.4090   42.1080   68.5800 C.3   112  MET112      0.1736
     45  C         69.0820   41.5400   67.1960 C.2   112  MET112      0.2616
     46  O         68.5450   40.4370   67.0880 O.2   112  MET112     -0.2715
     47  CB        70.6500   41.4310   69.1730 C.3   112  MET112      0.0427
     48  CG        71.9530   41.7200   68.4330 C.3   112  MET112      0.0599
     49  SD        73.4020   41.0390   69.2930 S.3   112  MET112     -0.1393
     50  CE        73.0620   39.2420   69.2120 C.3   112  MET112      0.0692
     51  N         69.3820   42.2980   66.1410 N.am  113  ILE113     -0.1963
     52  CA        69.0890   41.8370   64.7850 C.3   113  ILE113      0.1727
     53  C         70.3150   41.2400   64.1020 C.2   113  ILE113      0.2616
     54  O         71.4540   41.5710   64.4380 O.2   113  ILE113     -0.2715
     55  CB        68.5450   42.9740   63.8740 C.3   113  ILE113      0.0290
     56  CG1       69.6970   43.8140   63.3410 C.3   113  ILE113      0.0022
     57  CG2       67.5710   43.8650   64.6490 C.3   113  ILE113      0.0023
     58  CD1       69.2510   44.8760   62.4020 C.3   113  ILE113      0.0001
     59  N         70.0650   40.3610   63.1400 N.am  114  HIS114     -0.1973
     60  CA        71.1270   39.7050   62.3940 C.3   114  HIS114      0.1656
     61  C         72.0950   40.7590   61.8670 C.2   114  HIS114      0.2291
     62  O         71.6810   41.7570   61.2870 O.2   114  HIS114     -0.2864
     63  CB        70.5170   38.9120   61.2340 C.3   114  HIS114      0.0771
     64  CG        71.4850   38.0060   60.5410 C.ar  114  HIS114      0.0820
     65  ND1       71.3940   36.6290   60.6040 N.ar  114  HIS114     -0.2267
     66  CD2       72.5580   38.2760   59.7660 C.ar  114  HIS114      0.1154
     67  CE1       72.3720   36.0940   59.8950 C.ar  114  HIS114      0.1986
     68  NE2       73.0930   37.0710   59.3760 N.ar  114  HIS114     -0.2212
     69  N         65.6730   37.9110   54.9980 N.3   144  PHE144     -0.1227
     70  CA        66.5050   37.3640   56.0700 C.3   144  PHE144      0.1736
     71  C         65.7420   36.4160   56.9950 C.2   144  PHE144      0.2595
     72  O         66.3200   35.5070   57.5940 O.2   144  PHE144     -0.2718
     73  CB        67.0860   38.5000   56.9220 C.3   144  PHE144      0.0547
     74  CG        67.8480   39.5260   56.1370 C.ar  144  PHE144     -0.0202
     75  CD1       67.1810   40.5510   55.4760 C.ar  144  PHE144     -0.0042
     76  CD2       69.2340   39.4600   56.0470 C.ar  144  PHE144     -0.0042
     77  CE1       67.8820   41.5020   54.7310 C.ar  144  PHE144     -0.0003
     78  CE2       69.9520   40.4040   55.3060 C.ar  144  PHE144     -0.0003
     79  CZ        69.2710   41.4260   54.6460 C.ar  144  PHE144     -0.0000
     80  N         64.4440   36.6390   57.1250 N.am  145  TYR145     -0.1976
     81  CA        63.6260   35.8110   57.9940 C.3   145  TYR145      0.1639
     82  C         62.6260   34.9710   57.2000 C.2   145  TYR145      0.2290
     83  O         61.4670   34.8460   57.5840 O.2   145  TYR145     -0.2864
     84  CB        62.8840   36.6950   59.0040 C.3   145  TYR145      0.0560
     85  CG        63.7920   37.5000   59.9110 C.ar  145  TYR145     -0.0198
     86  CD1       64.7950   36.8830   60.6620 C.ar  145  TYR145     -0.0009
     87  CD2       63.6410   38.8790   60.0330 C.ar  145  TYR145     -0.0009
     88  CE1       65.6220   37.6190   61.5120 C.ar  145  TYR145      0.0417
     89  CE2       64.4690   39.6270   60.8830 C.ar  145  TYR145      0.0417
     90  CZ        65.4540   38.9910   61.6130 C.ar  145  TYR145      0.1957
     91  OH        66.2790   39.7310   62.4250 O.3   145  TYR145     -0.2866
     92  N         62.2070   32.1440   57.2270 N.3   147  ASP147     -0.1239
     93  CA        61.8640   30.9940   58.0620 C.3   147  ASP147      0.1674
     94  C         60.5260   31.1170   58.7950 C.2   147  ASP147      0.2266
     95  O         60.0950   30.1730   59.4550 O.2   147  ASP147     -0.2867
     96  CB        62.9780   30.7490   59.0870 C.3   147  ASP147      0.1410
     97  CG        63.3610   32.0120   59.8610 C.2   147  ASP147      0.3668
     98  OD1       64.2590   31.9450   60.7270 O.co2 147  ASP147     -0.2456
     99  OD2       62.7670   33.0750   59.6070 O.co2 147  ASP147     -0.2456
    100  N         52.7240   28.8340   64.1940 N.3   155  ARG155     -0.1245
    101  CA        54.0590   28.9350   64.7700 C.3   155  ARG155      0.1563
    102  C         54.8490   30.0440   64.0550 C.2   155  ARG155      0.2260
    103  O         55.7120   30.6870   64.6580 O.2   155  ARG155     -0.2867
    104  CB        54.7730   27.5810   64.6650 C.3   155  ARG155      0.0307
    105  CG        56.1930   27.5520   65.2090 C.3   155  ARG155      0.0489
    106  CD        56.2640   28.0660   66.6400 C.3   155  ARG155      0.2205
    107  NE        57.6460   28.2430   67.0860 N.pl3 155  ARG155     -0.0865
    108  CZ        58.0060   28.9950   68.1250 C.cat 155  ARG155      0.5346
    109  NH1       59.2880   29.0990   68.4630 N.pl3 155  ARG155      0.1354
    110  NH2       57.0800   29.6500   68.8220 N.pl3 155  ARG155      0.1354
    111  N         53.5750   33.4380   65.3230 N.3   158  GLU158     -0.1231
    112  CA        54.1050   33.6220   66.6600 C.3   158  GLU158      0.1699
    113  C         55.5250   34.2040   66.6330 C.2   158  GLU158      0.2592
    114  O         55.8080   35.2190   67.2680 O.2   158  GLU158     -0.2718
    115  CB        54.0810   32.2650   67.3700 C.3   158  GLU158      0.0402
    116  CG        54.0050   32.3260   68.8770 C.3   158  GLU158      0.1161
    117  CD        55.3540   32.5450   69.5250 C.2   158  GLU158      0.3649
    118  OE1       55.4120   32.6150   70.7740 O.co2 158  GLU158     -0.2457
    119  OE2       56.3590   32.6410   68.7890 O.co2 158  GLU158     -0.2457
    120  N         56.4090   33.5480   65.8900 N.am  159  ILE159     -0.1980
    121  CA        57.7990   33.9670   65.7710 C.3   159  ILE159      0.1595
    122  C         57.9160   35.3390   65.1000 C.2   159  ILE159      0.2287
    123  O         58.6290   36.2230   65.5890 O.2   159  ILE159     -0.2864
    124  CB        58.5990   32.9070   64.9730 C.3   159  ILE159      0.0276
    125  CG1       58.5370   31.5730   65.7280 C.3   159  ILE159      0.0022
    126  CG2       60.0420   33.3550   64.7670 C.3   159  ILE159      0.0022
    127  CD1       59.1690   30.3950   64.9980 C.3   159  ILE159      0.0001
    128  N         56.7840   38.2840   67.5060 N.3   162  PHE162     -0.1227
    129  CA        57.8200   38.5860   68.4870 C.3   162  PHE162      0.1736
    130  C         59.0470   39.2440   67.8590 C.2   162  PHE162      0.2595
    131  O         59.6200   40.1700   68.4320 O.2   162  PHE162     -0.2718
    132  CB        58.2260   37.3150   69.2410 C.3   162  PHE162      0.0547
    133  CG        57.3620   37.0180   70.4400 C.ar  162  PHE162     -0.0202
    134  CD1       57.2940   37.9150   71.5040 C.ar  162  PHE162     -0.0042
    135  CD2       56.6200   35.8420   70.5100 C.ar  162  PHE162     -0.0042
    136  CE1       56.5000   37.6470   72.6230 C.ar  162  PHE162     -0.0003
    137  CE2       55.8210   35.5640   71.6270 C.ar  162  PHE162     -0.0003
    138  CZ        55.7640   36.4690   72.6820 C.ar  162  PHE162     -0.0000
    139  N         59.4580   38.7700   66.6870 N.am  163  ARG163     -0.1980
    140  CA        60.6060   39.3670   66.0040 C.3   163  ARG163      0.1597
    141  C         60.3510   40.8710   65.8200 C.2   163  ARG163      0.2287
    142  O         61.2500   41.7010   66.0000 O.2   163  ARG163     -0.2864
    143  CB        60.8110   38.7070   64.6340 C.3   163  ARG163      0.0334
    144  CG        61.5570   37.3900   64.6930 C.3   163  ARG163      0.0492
    145  CD        61.6650   36.7190   63.3360 C.3   163  ARG163      0.2205
    146  NE        62.6940   35.6750   63.3460 N.pl3 163  ARG163     -0.0865
    147  CZ        62.7740   34.6750   62.4690 C.cat 163  ARG163      0.5346
    148  NH1       63.7560   33.7890   62.5670 N.pl3 163  ARG163      0.1354
    149  NH2       61.8650   34.5440   61.5060 N.pl3 163  ARG163      0.1354
    150  N         62.4270   43.6720   67.6840 N.3   167  LYS167     -0.1245
    151  CA        63.3070   44.3850   66.7820 C.3   167  LYS167      0.1561
    152  C         62.9340   45.7790   66.2880 C.2   167  LYS167      0.2260
    153  O         63.8230   46.5540   65.9500 O.2   167  LYS167     -0.2867
    154  CB        63.6270   43.4530   65.6060 C.3   167  LYS167      0.0271
    155  CG        64.1330   42.0790   66.0660 C.3   167  LYS167      0.0035
    156  CD        64.4060   41.1370   64.8920 C.3   167  LYS167      0.0206
    157  CE        64.5980   39.6910   65.3550 C.3   167  LYS167      0.1093
    158  NZ        65.7630   39.5200   66.2630 N.3   167  LYS167     -0.1314
    159  N         71.2610   46.3020   71.9960 N.3   187  PRO187     -0.2116
    160  CA        70.2340   46.2550   73.0380 C.3   187  PRO187      0.1372
    161  C         70.8980   45.7340   74.3110 C.2   187  PRO187      0.2244
    162  O         71.8850   45.0030   74.2450 O.2   187  PRO187     -0.2868
    163  CB        69.2300   45.2440   72.4900 C.3   187  PRO187      0.0268
    164  CG        69.3760   45.3710   71.0140 C.3   187  PRO187      0.0207
    165  CD        70.8650   45.4910   70.8280 C.3   187  PRO187      0.0892
    166  N         69.9410   43.7880   77.9200 N.3   189  ASN189     -0.1240
    167  CA        68.8770   43.0240   78.5330 C.3   189  ASN189      0.1653
    168  C         68.4550   43.4960   79.9140 C.2   189  ASN189      0.2266
    169  O         67.3140   43.2800   80.3240 O.2   189  ASN189     -0.2867
    170  CB        69.2680   41.5520   78.5430 C.3   189  ASN189      0.1155
    171  CG        69.5590   41.0340   77.1490 C.2   189  ASN189      0.2627
    172  OD1       68.9520   41.4830   76.1750 O.2   189  ASN189     -0.2716
    173  ND2       70.4790   40.0850   77.0430 N.am  189  ASN189     -0.0877
@<TRIPOS>BOND
     1    79    77   ar
     2    79    78   ar
     3    77    75   ar
     4    69    70    1
     5    78    76   ar
     6    75    74   ar
     7    76    74   ar
     8    70    73    1
     9    70    71    1
    10    74    73    1
    11    71    80   am
    12    71    72    2
    13    80    81    1
    14    82    83    2
    15    82    81    1
    16    92    93    1
    17    81    84    1
    18    93    94    1
    19    93    96    1
    20    94    95    2
    21    84    85    1
    22    96    97    1
    23    68    66   ar
    24    68    67   ar
    25    99    97   ar
    26    66    64   ar
    27    97    98   ar
    28    67    65   ar
    29    85    87   ar
    30    85    86   ar
    31    87    89   ar
    32    64    65   ar
    33    64    63    1
    34    86    88   ar
    35    89    90   ar
    36    63    60    1
    37    62    61    2
    38   149   147    1
    39    88    90   ar
    40    90    91    1
    41    61    60    1
    42    60    59    1
    43    58    56    1
    44   147   148    1
    45   147   146    2
    46    59    53   am
    47   145   146    1
    48   145   144    1
    49    56    55    1
    50    55    57    1
    51    55    52    1
    52   102   103    2
    53   102   101    1
    54    53    54    2
    55    53    52    1
    56   100   101    1
    57   143   144    1
    58   143   140    1
    59   104   101    1
    60   104   105    1
    61   126   124    1
    62    52    51    1
    63   156   157    1
    64   156   155    1
    65   124   125    1
    66   124   121    1
    67   127   125    1
    68   122   123    2
    69   122   121    1
    70   105   106    1
    71   111   112    1
    72   157   158    1
    73   154   155    1
    74   154   151    1
    75   121   120    1
    76   141   142    2
    77   141   140    1
    78   120   113   am
    79   153   152    2
    80   140   139    1
    81    51    45   am
    82   152   151    1
    83   113   112    1
    84   113   114    2
    85   106   107    1
    86   112   115    1
    87   139   130   am
    88   151   150    1
    89   107   108    2
    90    46    45    2
    91    45    44    1
    92   115   116    1
    93   128   129    1
    94   130   131    2
    95   130   129    1
    96   108   109    1
    97   108   110    1
    98    48    47    1
    99    48    49    1
   100   129   132    1
   101    44    47    1
   102    44    43    1
   103    39    38    2
   104    29    28    2
   105   119   117   ar
   106   116   117    1
   107    50    49    1
   108   132   133    1
   109    33    35   ar
   110    33    31   ar
   111    38    43   am
   112    38    37    1
   113   117   118   ar
   114    30    31    1
   115    30    27    1
   116    28    27    1
   117    28    36   am
   118    35    34   ar
   119    31    32   ar
   120   133   135   ar
   121   133   134   ar
   122    37    36    1
   123    37    40    1
   124    27    26    1
   125   135   137   ar
   126   165   164    1
   127   165   159    1
   128   164   163    1
   129    34    32   ar
   130   134   136   ar
   131   137   138   ar
   132    40    41    1
   133    40    42    1
   134    26    17   am
   135   159   160    1
   136    18    17    2
   137   163   160    1
   138   136   138   ar
   139    17    16    1
   140     7     5    1
   141   160   161    1
   142     4     3    2
   143    16    19    1
   144    16    15    1
   145     3     2    1
   146   162   161    2
   147    19    20    1
   148     5     2    1
   149     5     6    1
   150    11    10    2
   151    15    10   am
   152    10     9    1
   153     2     1    1
   154     8     9    1
   155     9    12    1
   156    20    21    1
   157   172   171    2
   158    22    21    1
   159    22    23    2
   160    25    23    1
   161    23    24    1
   162   173   171   am
   163    12    14    1
   164    12    13    1
   165   171   170    1
   166   166   167    1
   167   167   170    1
   168   167   168    1
   169   168   169    2
