@<TRIPOS>MOLECULE
tmp/4jagA00.pdb
 122 115 0 0 0
SMALL
GASTEIGER

@<TRIPOS>ATOM
      1  N         36.5360   52.7030   69.9860 N.3    59  ILE59      -0.1245
      2  CA        36.5990   54.1540   69.9750 C.3    59  ILE59       0.1561
      3  C         35.2240   54.7850   69.7710 C.2    59  ILE59       0.2260
      4  O         34.5010   54.4220   68.8390 O.2    59  ILE59      -0.2867
      5  CB        37.4970   54.6690   68.8370 C.3    59  ILE59       0.0252
      6  CG1       38.9580   54.3530   69.1350 C.3    59  ILE59       0.0019
      7  CG2       37.2890   56.1670   68.6440 C.3    59  ILE59       0.0019
      8  CD1       39.9010   54.8610   68.0750 C.3    59  ILE59       0.0001
      9  N         50.4850   55.3370   71.9710 N.3   226  HIS226     -0.1241
     10  CA        50.4840   55.1810   70.5200 C.3   226  HIS226      0.1621
     11  C         50.4310   53.7060   70.1130 C.2   226  HIS226      0.2264
     12  O         50.4320   53.3930   68.9250 O.2   226  HIS226     -0.2867
     13  CB        51.7180   55.8320   69.8860 C.3   226  HIS226      0.0745
     14  CG        51.6340   57.3250   69.7900 C.ar  226  HIS226      0.0817
     15  ND1       51.9910   58.1600   70.8290 N.ar  226  HIS226     -0.2268
     16  CD2       51.2000   58.1310   68.7910 C.ar  226  HIS226      0.1154
     17  CE1       51.7800   59.4150   70.4730 C.ar  226  HIS226      0.1986
     18  NE2       51.2990   59.4250   69.2420 N.ar  226  HIS226     -0.2212
     19  N         45.3570   52.3510   67.6270 N.3   229  HIS229     -0.1241
     20  CA        44.2400   53.2580   67.5090 C.3   229  HIS229      0.1621
     21  C         43.0950   52.7450   66.6310 C.2   229  HIS229      0.2264
     22  O         42.6650   53.4520   65.7100 O.2   229  HIS229     -0.2867
     23  CB        44.6980   54.6320   67.0200 C.3   229  HIS229      0.0745
     24  CG        43.9030   55.7640   67.6000 C.ar  229  HIS229      0.0817
     25  ND1       43.6470   56.9290   66.9090 N.ar  229  HIS229     -0.2268
     26  CD2       43.3060   55.9070   68.8100 C.ar  229  HIS229      0.1154
     27  CE1       42.9270   57.7400   67.6660 C.ar  229  HIS229      0.1986
     28  NE2       42.7060   57.1440   68.8240 N.ar  229  HIS229     -0.2212
     29  N         40.7260   50.9630   63.7860 N.3   231  GLN231     -0.1231
     30  CA        40.8590   50.9920   62.3360 C.3   231  GLN231      0.1698
     31  C         41.1730   52.4080   61.8300 C.2   231  GLN231      0.2592
     32  O         40.6280   53.3900   62.3330 O.2   231  GLN231     -0.2718
     33  CB        39.5490   50.5230   61.6870 C.3   231  GLN231      0.0381
     34  CG        38.9030   49.3000   62.3260 C.3   231  GLN231      0.0905
     35  CD        39.8140   48.1050   62.3090 C.2   231  GLN231      0.2608
     36  OE1       40.5210   47.8760   61.3300 O.2   231  GLN231     -0.2717
     37  NE2       39.8040   47.3270   63.3880 N.am  231  GLN231     -0.0878
     38  N         42.0580   52.4980   60.8410 N.am  232  ASN232     -0.1974
     39  CA        42.4340   53.7600   60.2050 C.3   232  ASN232      0.1688
     40  C         43.2540   53.4540   58.9620 C.2   232  ASN232      0.2292
     41  O         43.3890   52.2900   58.5870 O.2   232  ASN232     -0.2864
     42  CB        43.2070   54.6870   61.1510 C.3   232  ASN232      0.1181
     43  CG        44.4900   54.0900   61.6480 C.2   232  ASN232      0.2629
     44  OD1       44.7940   52.9240   61.4060 O.2   232  ASN232     -0.2716
     45  ND2       45.2590   54.8980   62.3620 N.am  232  ASN232     -0.0877
     46  N         51.5560   55.3330   57.4470 N.3   259  LEU259     -0.1245
     47  CA        51.5800   56.2500   58.5780 C.3   259  LEU259      0.1561
     48  C         52.3770   57.5160   58.2220 C.2   259  LEU259      0.2260
     49  O         52.0420   58.6190   58.6680 O.2   259  LEU259     -0.2867
     50  CB        52.1870   55.5450   59.7970 C.3   259  LEU259      0.0270
     51  CG        51.9730   56.2510   61.1470 C.3   259  LEU259      0.0019
     52  CD1       50.4810   56.2100   61.5810 C.3   259  LEU259      0.0001
     53  CD2       52.8360   55.5490   62.1830 C.3   259  LEU259      0.0001
     54  N         46.5000   68.8520   62.2240 N.3   299  ARG299     -0.1245
     55  CA        46.7390   67.6590   63.0290 C.3   299  ARG299      0.1563
     56  C         48.1980   67.2630   62.9100 C.2   299  ARG299      0.2260
     57  O         48.7580   66.6340   63.8140 O.2   299  ARG299     -0.2867
     58  CB        45.8490   66.4980   62.5820 C.3   299  ARG299      0.0307
     59  CG        45.5010   65.5410   63.7190 C.3   299  ARG299      0.0489
     60  CD        44.8430   64.2700   63.2160 C.3   299  ARG299      0.2205
     61  NE        45.7930   63.1640   63.1640 N.pl3 299  ARG299     -0.0865
     62  CZ        45.6700   62.1070   62.3660 C.cat 299  ARG299      0.5346
     63  NH1       46.5870   61.1490   62.3930 N.pl3 299  ARG299      0.1354
     64  NH2       44.6400   62.0120   61.5320 N.pl3 299  ARG299      0.1354
     65  N         41.5920   66.8490   65.2950 N.3   305  HIS305     -0.1226
     66  CA        41.5870   65.4100   65.0970 C.3   305  HIS305      0.1752
     67  C         40.3890   64.9700   64.2810 C.2   305  HIS305      0.2596
     68  O         39.3080   65.5480   64.3860 O.2   305  HIS305     -0.2718
     69  CB        41.6030   64.6740   66.4300 C.3   305  HIS305      0.0759
     70  CG        41.9740   63.2290   66.3010 C.ar  305  HIS305      0.0818
     71  ND1       41.0400   62.2270   66.1420 N.ar  305  HIS305     -0.2268
     72  CD2       43.1860   62.6270   66.2410 C.ar  305  HIS305      0.1154
     73  CE1       41.6610   61.0690   65.9910 C.ar  305  HIS305      0.1986
     74  NE2       42.9640   61.2840   66.0460 N.ar  305  HIS305     -0.2212
     75  N         40.5850   63.9300   63.4770 N.am  306  ARG306     -0.1966
     76  CA        39.5310   63.4220   62.6050 C.3   306  ARG306      0.1729
     77  C         38.4040   62.6460   63.2910 C.2   306  ARG306      0.2616
     78  O         37.2410   62.7790   62.9090 O.2   306  ARG306     -0.2715
     79  CB        40.1460   62.5460   61.5020 C.3   306  ARG306      0.0348
     80  CG        40.3820   61.0900   61.9000 C.3   306  ARG306      0.0492
     81  CD        40.9290   60.2720   60.7360 C.3   306  ARG306      0.2205
     82  NE        40.8860   58.8260   60.9740 N.pl3 306  ARG306     -0.0865
     83  CZ        39.8010   58.0640   60.8230 C.cat 306  ARG306      0.5346
     84  NH1       38.6560   58.6070   60.4270 N.pl3 306  ARG306      0.1354
     85  NH2       39.8540   56.7570   61.0680 N.pl3 306  ARG306      0.1354
     86  N         38.7390   61.8400   64.2940 N.am  307  VAL307     -0.1977
     87  CA        37.7320   61.0290   64.9810 C.3   307  VAL307      0.1596
     88  C         37.0770   61.6760   66.2000 C.2   307  VAL307      0.2287
     89  O         35.8570   61.7630   66.2760 O.2   307  VAL307     -0.2864
     90  CB        38.3280   59.6650   65.4360 C.3   307  VAL307      0.0276
     91  CG1       37.2300   58.7770   65.9990 C.3   307  VAL307      0.0022
     92  CG2       39.0190   58.9760   64.2720 C.3   307  VAL307      0.0022
     93  N         43.7330   60.6970   74.6760 N.3   314  ARG314     -0.1245
     94  CA        45.1250   60.3590   74.9360 C.3   314  ARG314      0.1563
     95  C         45.9500   61.5790   75.3370 C.2   314  ARG314      0.2260
     96  O         47.0320   61.4420   75.8990 O.2   314  ARG314     -0.2867
     97  CB        45.7350   59.7280   73.6860 C.3   314  ARG314      0.0307
     98  CG        44.9790   58.5140   73.1760 C.3   314  ARG314      0.0489
     99  CD        45.4560   58.1330   71.7860 C.3   314  ARG314      0.2205
    100  NE        45.2450   59.2370   70.8570 N.pl3 314  ARG314     -0.0865
    101  CZ        45.6560   59.2410   69.5940 C.cat 314  ARG314      0.5346
    102  NH1       45.4200   60.2910   68.8110 N.pl3 314  ARG314      0.1354
    103  NH2       46.3090   58.1910   69.1130 N.pl3 314  ARG314      0.1354
    104  N         49.5660   64.2610   69.9260 N.3   362  ASP362     -0.1239
    105  CA        50.8590   64.5320   69.3130 C.3   362  ASP362      0.1674
    106  C         51.4330   65.9160   69.5670 C.2   362  ASP362      0.2266
    107  O         52.6500   66.0950   69.5090 O.2   362  ASP362     -0.2867
    108  CB        50.7940   64.2530   67.8180 C.3   362  ASP362      0.1410
    109  CG        50.6160   62.7910   67.5310 C.2   362  ASP362      0.3668
    110  OD1       51.0800   61.9890   68.3670 O.co2 362  ASP362     -0.2456
    111  OD2       50.0270   62.4350   66.4890 O.co2 362  ASP362     -0.2456
    112  N         53.3560   51.9860   67.3530 N.3   387  ARG387     -0.1245
    113  CA        52.1340   51.4780   66.7380 C.3   387  ARG387      0.1563
    114  C         52.2570   50.0440   66.2100 C.2   387  ARG387      0.2260
    115  O         51.2420   49.3790   65.9610 O.2   387  ARG387     -0.2867
    116  CB        51.7090   52.4230   65.6080 C.3   387  ARG387      0.0307
    117  CG        50.4290   52.0370   64.8720 C.3   387  ARG387      0.0489
    118  CD        49.2220   51.9230   65.8090 C.3   387  ARG387      0.2205
    119  NE        48.9670   53.1330   66.6040 N.pl3 387  ARG387     -0.0865
    120  CZ        48.4380   54.2640   66.1380 C.cat 387  ARG387      0.5346
    121  NH1       48.2490   55.3030   66.9530 N.pl3 387  ARG387      0.1354
    122  NH2       48.0900   54.3610   64.8620 N.pl3 387  ARG387      0.1354
@<TRIPOS>BOND
     1    46    47    1
     2    48    47    1
     3    48    49    2
     4    47    50    1
     5    41    40    2
     6    40    39    1
     7    50    51    1
     8    39    38    1
     9    39    42    1
    10    84    83    1
    11    81    82    1
    12    81    80    1
    13    83    82    2
    14    83    85    1
    15    38    31   am
    16    51    52    1
    17    51    53    1
    18    42    43    1
    19    36    35    2
    20    44    43    2
    21    79    80    1
    22    79    76    1
    23    64    62    1
    24    43    45   am
    25    33    34    1
    26    33    30    1
    27    31    32    2
    28    31    30    1
    29    54    55    1
    30    35    34    1
    31    35    37   am
    32    30    29    1
    33    62    63    1
    34    62    61    2
    35    58    55    1
    36    58    59    1
    37    76    77    1
    38    76    75    1
    39    78    77    2
    40    56    55    1
    41    56    57    2
    42    61    60    1
    43    60    59    1
    44    77    86   am
    45    75    67   am
    46    92    90    1
    47    67    68    2
    48    67    66    1
    49    86    87    1
    50   122   120    1
    51   117   116    1
    52   117   118    1
    53    87    90    1
    54    87    88    1
    55    66    65    1
    56    66    69    1
    57    90    91    1
    58   116   113    1
    59    22    21    2
    60   118   119    1
    61   115   114    2
    62    73    74   ar
    63    73    71   ar
    64    74    72   ar
    65   120   119    2
    66   120   121    1
    67    71    70   ar
    68    88    89    2
    69   114   113    1
    70    72    70   ar
    71    70    69    1
    72   111   109   ar
    73    21    20    1
    74   113   112    1
    75    25    24   ar
    76    25    27   ar
    77    23    20    1
    78    23    24    1
    79    20    19    1
    80   109   108    1
    81   109   110   ar
    82    24    26   ar
    83    27    28   ar
    84   108   105    1
    85     8     6    1
    86     7     5    1
    87    16    18   ar
    88    16    14   ar
    89    26    28   ar
    90   102   101    1
    91     5     6    1
    92     5     2    1
    93     4     3    2
    94    12    11    2
    95   103   101    1
    96    18    17   ar
    97   105   106    1
    98   105   104    1
    99   107   106    2
   100   101   100    2
   101     3     2    1
   102    14    13    1
   103    14    15   ar
   104    13    10    1
   105     2     1    1
   106    11    10    1
   107    17    15   ar
   108    10     9    1
   109   100    99    1
   110    99    98    1
   111    98    97    1
   112    97    94    1
   113    93    94    1
   114    94    95    1
   115    95    96    2
