@<TRIPOS>MOLECULE
tmp/4jaiA00.pdb
 182 170 0 0 0
SMALL
GASTEIGER

@<TRIPOS>ATOM
      1  N         -0.2200  -28.5110    2.6920 N.3    14  LEU14      -0.1231
      2  CA        -1.1670  -29.5200    2.4790 C.3    14  LEU14       0.1693
      3  C         -2.4340  -29.0470    1.8500 C.2    14  LEU14       0.2592
      4  O         -3.2880  -29.8610    1.6290 O.2    14  LEU14      -0.2718
      5  CB        -1.6070  -29.9430    3.8170 C.3    14  LEU14       0.0284
      6  CG        -0.5060  -30.1040    4.8370 C.3    14  LEU14       0.0019
      7  CD1       -0.7980  -30.3600    6.2850 C.3    14  LEU14       0.0001
      8  CD2       -0.1250  -31.3120    4.3430 C.3    14  LEU14       0.0001
      9  N         -2.6130  -27.7320    1.6600 N.am   15  GLY15      -0.1957
     10  CA        -3.8220  -27.2020    1.0110 C.3    15  GLY15       0.1869
     11  C         -3.8550  -25.7050    1.0280 C.2    15  GLY15       0.2309
     12  O         -3.3260  -25.1270    1.9430 O.2    15  GLY15      -0.2863
     13  N         -3.0590  -24.2560    4.8010 N.3    22  VAL22      -0.1245
     14  CA        -2.5450  -25.1530    5.8410 C.3    22  VAL22       0.1561
     15  C         -1.2990  -25.9020    5.5340 C.2    22  VAL22       0.2260
     16  O         -1.0510  -26.3520    4.4620 O.2    22  VAL22      -0.2867
     17  CB        -3.5950  -26.1090    6.4420 C.3    22  VAL22       0.0252
     18  CG1       -4.2930  -27.0230    5.4650 C.3    22  VAL22       0.0019
     19  CG2       -2.9900  -26.9280    7.4600 C.3    22  VAL22       0.0019
     20  N         -0.4490  -29.9420   12.1170 N.3    35  ALA35      -0.1245
     21  CA        -0.8220  -28.9350   11.1680 C.3    35  ALA35       0.1562
     22  C         -1.0990  -27.5060   11.5980 C.2    35  ALA35       0.2260
     23  O         -1.8760  -27.2570   12.5320 O.2    35  ALA35      -0.2867
     24  CB        -2.0930  -29.4120   10.6230 C.3    35  ALA35       0.0290
     25  N         -2.5690  -23.6420   10.3140 N.3    37  LYS37      -0.1245
     26  CA        -3.5130  -23.1650    9.2830 C.3    37  LYS37       0.1561
     27  C         -3.4680  -21.6920    9.3430 C.2    37  LYS37       0.2260
     28  O         -3.5040  -21.1390   10.4360 O.2    37  LYS37      -0.2867
     29  CB        -4.9130  -23.6610    9.5550 C.3    37  LYS37       0.0271
     30  CG        -5.8860  -22.7390    9.1090 C.3    37  LYS37       0.0035
     31  CD        -6.0990  -22.8180    7.6770 C.3    37  LYS37       0.0206
     32  CE        -7.3430  -21.9760    7.3250 C.3    37  LYS37       0.1093
     33  NZ        -7.3340  -21.2310    5.9750 N.3    37  LYS37      -0.1314
     34  N         -4.4010  -17.7520    8.3430 N.3    39  LEU39      -0.1301
     35  CA        -5.4420  -16.8220    7.8960 C.3    39  LEU39       0.1247
     36  C         -4.9160  -15.4410    7.8330 C.3    39  LEU39       0.2009
     37  O         -3.8730  -15.0260    8.4790 O.3    39  LEU39      -0.2188
     38  CB        -6.5820  -16.8700    8.8580 C.3    39  LEU39       0.0217
     39  CG        -6.8920  -18.3450    8.7900 C.3    39  LEU39       0.0015
     40  CD1       -7.5230  -18.9250   10.0450 C.3    39  LEU39       0.0000
     41  CD2       -7.7330  -18.5700    7.5730 C.3    39  LEU39       0.0000
     42  N        -15.5280  -17.2750   12.8800 N.3    53  LEU53      -0.1245
     43  CA       -14.3590  -17.8110   13.4720 C.3    53  LEU53       0.1561
     44  C        -14.4950  -17.8520   14.9550 C.2    53  LEU53       0.2260
     45  O        -15.0520  -18.7800   15.5300 O.2    53  LEU53      -0.2867
     46  CB       -13.2480  -16.8600   13.1700 C.3    53  LEU53       0.0270
     47  CG       -11.9880  -17.4620   13.6650 C.3    53  LEU53       0.0019
     48  CD1      -12.0600  -18.7850   13.1280 C.3    53  LEU53       0.0001
     49  CD2      -10.8120  -16.7660   13.1190 C.3    53  LEU53       0.0001
     50  N        -16.4800  -20.6410   16.2340 N.3    56  GLU56      -0.1231
     51  CA       -16.1470  -22.0550   15.9800 C.3    56  GLU56       0.1699
     52  C        -14.8470  -22.3960   16.6840 C.2    56  GLU56       0.2592
     53  O        -14.7330  -23.4570   17.2410 O.2    56  GLU56      -0.2718
     54  CB       -16.1220  -22.4550   14.4670 C.3    56  GLU56       0.0402
     55  CG       -17.3600  -22.0440   13.6350 C.3    56  GLU56       0.1161
     56  CD       -17.6250  -22.9630   12.4420 C.2    56  GLU56       0.3649
     57  OE1      -16.6820  -23.6220   11.9610 O.co2  56  GLU56      -0.2457
     58  OE2      -18.7850  -23.0240   11.9820 O.co2  56  GLU56      -0.2457
     59  N        -13.8850  -21.4890   16.7020 N.am   57  VAL57      -0.1980
     60  CA       -12.6560  -21.7640   17.3880 C.3    57  VAL57       0.1595
     61  C        -12.9250  -22.1950   18.7730 C.2    57  VAL57       0.2287
     62  O        -12.6190  -23.2920   19.1740 O.2    57  VAL57      -0.2864
     63  CB       -11.8770  -20.5640   17.5890 C.3    57  VAL57       0.0276
     64  CG1      -10.9550  -20.7990   18.6960 C.3    57  VAL57       0.0022
     65  CG2      -11.1470  -20.2730   16.4040 C.3    57  VAL57       0.0022
     66  N        -14.7180  -25.4800   18.9440 N.3    60  GLN60      -0.1245
     67  CA       -13.7690  -26.5320   18.6980 C.3    60  GLN60       0.1566
     68  C        -12.9520  -26.6500   19.8730 C.2    60  GLN60       0.2260
     69  O        -13.0640  -27.6310   20.5140 O.2    60  GLN60      -0.2867
     70  CB       -12.8660  -26.2520   17.5330 C.3    60  GLN60       0.0367
     71  CG       -13.5980  -26.3340   16.1660 C.3    60  GLN60       0.0905
     72  CD       -13.8270  -27.7250   15.6570 C.2    60  GLN60       0.2608
     73  OE1      -14.7210  -27.9260   14.8740 O.2    60  GLN60      -0.2717
     74  NE2      -13.0160  -28.6770   16.0760 N.am   60  GLN60      -0.0878
     75  N        -11.4620  -33.7510   14.3680 N.3    69  LEU69      -0.1245
     76  CA       -10.1280  -33.2540   14.4590 C.3    69  LEU69       0.1561
     77  C         -9.8650  -32.2160   15.5260 C.2    69  LEU69       0.2260
     78  O        -10.4330  -31.1760   15.5020 O.2    69  LEU69      -0.2867
     79  CB        -9.7560  -32.5510   13.1550 C.3    69  LEU69       0.0270
     80  CG        -8.3270  -32.2060   12.8460 C.3    69  LEU69       0.0019
     81  CD1       -7.9480  -33.4260   12.1070 C.3    69  LEU69       0.0001
     82  CD2       -8.0740  -30.9220   12.0790 C.3    69  LEU69       0.0001
     83  N         -8.4310  -29.1850   17.7700 N.3    71  LEU71      -0.1245
     84  CA        -7.8030  -27.9250   17.6910 C.3    71  LEU71       0.1561
     85  C         -7.1260  -27.5580   18.9210 C.2    71  LEU71       0.2260
     86  O         -7.6690  -27.3140   19.9220 O.2    71  LEU71      -0.2867
     87  CB        -8.7600  -26.8660   17.4300 C.3    71  LEU71       0.0270
     88  CG        -8.2630  -25.4090   17.5340 C.3    71  LEU71       0.0019
     89  CD1       -7.2420  -24.8800   16.5320 C.3    71  LEU71       0.0001
     90  CD2       -9.5910  -24.7080   17.2520 C.3    71  LEU71       0.0001
     91  N         -3.8190  -21.1870   13.2300 N.3    83  LEU83      -0.1245
     92  CA        -4.5160  -22.2000   13.9490 C.3    83  LEU83       0.1561
     93  C         -3.7830  -23.4710   14.0340 C.2    83  LEU83       0.2260
     94  O         -3.7250  -24.1770   13.0540 O.2    83  LEU83      -0.2867
     95  CB        -5.7160  -22.6290   13.1860 C.3    83  LEU83       0.0270
     96  CG        -6.6640  -21.5570   12.7910 C.3    83  LEU83       0.0019
     97  CD1       -8.0520  -22.2010   12.5580 C.3    83  LEU83       0.0001
     98  CD2       -6.7050  -20.6530   13.8970 C.3    83  LEU83       0.0001
     99  N         -3.3900  -27.3230   14.5480 N.3    85  LEU85      -0.1231
    100  CA        -4.2890  -28.3590   14.6000 C.3    85  LEU85       0.1693
    101  C         -3.6760  -29.7480   14.5010 C.2    85  LEU85       0.2592
    102  O         -2.6750  -29.9190   13.8740 O.2    85  LEU85      -0.2718
    103  CB        -4.9890  -28.1530   13.3360 C.3    85  LEU85       0.0284
    104  CG        -5.8720  -26.9340   13.1540 C.3    85  LEU85       0.0019
    105  CD1       -5.7020  -26.4170   11.7300 C.3    85  LEU85       0.0001
    106  CD2       -7.3390  -27.2530   13.4340 C.3    85  LEU85       0.0001
    107  N         -4.3330  -30.7510   15.0560 N.am   86  GLU86      -0.1966
    108  CA        -4.0350  -32.1750   14.7930 C.3    86  GLU86       0.1733
    109  C         -3.5320  -32.4180   13.4230 C.2    86  GLU86       0.2616
    110  O         -4.1120  -31.8060   12.6170 O.2    86  GLU86      -0.2715
    111  CB        -5.3450  -32.9760   14.8450 C.3    86  GLU86       0.0429
    112  CG        -5.0450  -34.4560   14.9810 C.3    86  GLU86       0.1163
    113  CD        -6.1630  -35.3740   15.4680 C.2    86  GLU86       0.3649
    114  OE1       -6.2100  -36.5040   14.9520 O.co2  86  GLU86      -0.2457
    115  OE2       -6.9970  -35.0380   16.3170 O.co2  86  GLU86      -0.2457
    116  N         -2.5440  -33.2960   13.0950 N.am   87  TYR87      -0.1960
    117  CA        -2.2980  -33.5450   11.6430 C.3    87  TYR87       0.1771
    118  C         -2.9590  -34.8590   11.2620 C.2    87  TYR87       0.2619
    119  O         -3.1660  -35.6830   12.0830 O.2    87  TYR87      -0.2715
    120  CB        -0.8470  -33.3020   11.2780 C.3    87  TYR87       0.0574
    121  CG        -0.4230  -34.0530   10.1350 C.ar   87  TYR87      -0.0198
    122  CD1       -0.9570  -33.8690    8.9550 C.ar   87  TYR87      -0.0009
    123  CD2        0.5610  -34.9300   10.2090 C.ar   87  TYR87      -0.0009
    124  CE1       -0.5620  -34.5860    7.8950 C.ar   87  TYR87       0.0417
    125  CE2        0.9590  -35.6490    9.1620 C.ar   87  TYR87       0.0417
    126  CZ         0.4000  -35.4930    8.0390 C.ar   87  TYR87       0.1957
    127  OH         0.8740  -36.3020    7.0540 O.3    87  TYR87      -0.2866
    128  N         -3.5480  -34.9430   10.0930 N.am   88  ALA88      -0.1964
    129  CA        -4.2380  -36.1590    9.6550 C.3    88  ALA88       0.1713
    130  C         -3.4410  -36.5870    8.4650 C.2    88  ALA88       0.2458
    131  O         -3.6300  -36.1060    7.3320 O.2    88  ALA88      -0.2730
    132  CB        -5.7150  -35.8740    9.2530 C.3    88  ALA88       0.0333
    133  N         -2.4250  -37.3800    8.7120 N.am   89  PRO89      -0.2727
    134  CA        -1.5860  -38.0820    7.7550 C.3    89  PRO89       0.1402
    135  C         -2.1740  -38.6830    6.5620 C.2    89  PRO89       0.2269
    136  O         -1.4900  -38.7970    5.5640 O.2    89  PRO89      -0.2865
    137  CB        -1.2360  -39.2980    8.5110 C.3    89  PRO89       0.0296
    138  CG        -1.9850  -39.2300    9.7470 C.3    89  PRO89       0.0237
    139  CD        -2.0330  -37.7860   10.0470 C.3    89  PRO89       0.0939
    140  N         -4.8320  -37.8380    4.8250 N.3    91  GLY91      -0.1210
    141  CA        -5.5190  -36.8160    3.9820 C.3    91  GLY91       0.1956
    142  C         -7.0560  -36.8610    4.0240 C.2    91  GLY91       0.2612
    143  O         -7.6130  -37.2360    5.0490 O.2    91  GLY91      -0.2717
    144  N         -7.7710  -36.5950    2.9280 N.am   92  THR92      -0.1952
    145  CA        -9.2070  -36.3110    3.0220 C.3    92  THR92       0.1897
    146  C         -9.9000  -37.3930    2.3940 C.2    92  THR92       0.2313
    147  O         -9.3610  -37.9910    1.5220 O.2    92  THR92      -0.2863
    148  CB        -9.5850  -35.1360    2.1700 C.3    92  THR92       0.1794
    149  OG1       -9.4890  -35.5080    0.7880 O.3    92  THR92      -0.2208
    150  CG2       -8.7340  -34.0340    2.4690 C.3    92  THR92       0.0378
    151  N        -11.0510  -35.5620    7.0420 N.3   138  LEU138     -0.1245
    152  CA        -9.8220  -36.1680    7.0250 C.3   138  LEU138      0.1561
    153  C         -9.6640  -37.6110    7.5570 C.2   138  LEU138      0.2260
    154  O        -10.5210  -38.1620    8.2340 O.2   138  LEU138     -0.2867
    155  CB        -9.0380  -35.2730    7.8700 C.3   138  LEU138      0.0270
    156  CG        -9.0230  -33.8590    7.2800 C.3   138  LEU138      0.0019
    157  CD1       -8.3190  -32.6570    8.1160 C.3   138  LEU138      0.0001
    158  CD2       -8.1190  -33.9060    6.0530 C.3   138  LEU138      0.0001
    159  N        -13.4550  -32.2750   10.4870 N.3   148  ALA148     -0.1231
    160  CA       -12.9020  -31.0310   10.5710 C.3   148  ALA148      0.1694
    161  C        -13.6230  -30.0450    9.7920 C.2   148  ALA148      0.2592
    162  O        -13.1650  -29.8200    8.7370 O.2   148  ALA148     -0.2718
    163  CB       -11.7460  -31.1100    9.8860 C.3   148  ALA148      0.0304
    164  N        -14.6600  -29.3550   10.2470 N.am  149  ASP149     -0.1960
    165  CA       -15.3760  -28.4380    9.3520 C.3   149  ASP149      0.1840
    166  C        -15.5450  -27.0400   10.0010 C.2   149  ASP149      0.2622
    167  O        -15.8110  -26.9610   11.1970 O.2   149  ASP149     -0.2715
    168  CB       -16.7070  -29.0710    9.0400 C.3   149  ASP149      0.1450
    169  CG       -17.6270  -29.1690   10.2880 C.2   149  ASP149      0.3671
    170  OD1      -17.6690  -30.2070   10.9990 O.co2 149  ASP149     -0.2456
    171  OD2      -18.3560  -28.1800   10.5900 O.co2 149  ASP149     -0.2456
    172  N        -15.4120  -25.9310    9.2790 N.am  150  PHE150     -0.1974
    173  CA       -15.1320  -24.7630   10.0660 C.3   150  PHE150      0.1639
    174  C        -16.1110  -23.5490   10.0290 C.2   150  PHE150      0.2290
    175  O        -16.7410  -23.1720    9.0090 O.2   150  PHE150     -0.2864
    176  CB       -13.7190  -24.3610    9.7480 C.3   150  PHE150      0.0560
    177  CG       -13.4420  -24.3360    8.2880 C.ar  150  PHE150     -0.0200
    178  CD1      -13.2400  -23.1020    7.6450 C.ar  150  PHE150     -0.0042
    179  CD2      -13.4290  -25.5090    7.5500 C.ar  150  PHE150     -0.0042
    180  CE1      -13.0340  -23.0080    6.2870 C.ar  150  PHE150     -0.0003
    181  CE2      -13.2030  -25.4460    6.1720 C.ar  150  PHE150     -0.0003
    182  CZ       -13.0110  -24.1690    5.5270 C.ar  150  PHE150     -0.0000
@<TRIPOS>BOND
     1   149   148    1
     2    10    11    1
     3    10     9    1
     4    11    12    2
     5   147   146    2
     6     4     3    2
     7     9     3   am
     8     3     2    1
     9   148   150    1
    10   148   145    1
    11   146   145    1
    12     2     1    1
    13     2     5    1
    14   144   145    1
    15   144   142   am
    16     5     6    1
    17   141   142    1
    18   141   140    1
    19   142   143    2
    20     8     6    1
    21    16    15    2
    22    13    14    1
    23     6     7    1
    24    18    17    1
    25   182   181   ar
    26   182   180   ar
    27    15    14    1
    28   136   135    2
    29    14    17    1
    30    33    32    1
    31   158   156    1
    32   181   179   ar
    33   180   178   ar
    34    17    19    1
    35   135   134    1
    36   152   151    1
    37   152   153    1
    38   152   155    1
    39   127   126    1
    40   156   155    1
    41   156   157    1
    42    32    31    1
    43   131   130    2
    44   179   177   ar
    45   153   154    2
    46    41    39    1
    47   178   177   ar
    48    31    30    1
    49   134   137    1
    50   134   133    1
    51    36    35    1
    52    36    37    1
    53   124   126   ar
    54   124   122   ar
    55    35    34    1
    56    35    38    1
    57   126   125   ar
    58   177   176    1
    59   130   133   am
    60   130   129    1
    61   137   138    1
    62   133   139    1
    63   162   161    2
    64    39    38    1
    65    39    40    1
    66   122   121   ar
    67   175   174    2
    68   168   165    1
    69   168   169    1
    70    30    29    1
    71   125   123   ar
    72   132   129    1
    73   172   166   am
    74   172   173    1
    75    26    27    1
    76    26    29    1
    77    26    25    1
    78    27    28    2
    79   165   166    1
    80   165   164    1
    81   129   128    1
    82   138   139    1
    83   176   173    1
    84   161   164   am
    85   161   160    1
    86   163   160    1
    87   166   167    2
    88   174   173    1
    89   128   118   am
    90   121   123   ar
    91   121   120    1
    92   169   171   ar
    93   169   170   ar
    94   159   160    1
    95    24    21    1
    96    21    22    1
    97    21    20    1
    98   118   117    1
    99   118   119    2
   100   120   117    1
   101    22    23    2
   102   117   116    1
   103   105   104    1
   104    57    56   ar
   105    58    56   ar
   106    82    80    1
   107    81    80    1
   108    56    55    1
   109    97    96    1
   110   110   109    2
   111    96    95    1
   112    96    98    1
   113    80    79    1
   114    42    43    1
   115    94    93    2
   116   116   109   am
   117    49    47    1
   118    48    47    1
   119   104   103    1
   120   104   106    1
   121    79    76    1
   122    46    43    1
   123    46    47    1
   124    95    92    1
   125    91    92    1
   126   103   100    1
   127   109   108    1
   128    43    44    1
   129    55    54    1
   130   102   101    2
   131    92    93    1
   132    75    76    1
   133    76    77    1
   134    54    51    1
   135   101   100    1
   136   101   107   am
   137    99   100    1
   138   108   111    1
   139   108   107    1
   140   111   112    1
   141    73    72    2
   142   114   113   ar
   143    44    45    2
   144   112   113    1
   145   113   115   ar
   146    78    77    2
   147    72    74   am
   148    72    71    1
   149    51    50    1
   150    51    52    1
   151    71    70    1
   152    65    63    1
   153    89    88    1
   154    52    59   am
   155    52    53    2
   156    59    60    1
   157    90    88    1
   158    60    63    1
   159    60    61    1
   160    87    88    1
   161    87    84    1
   162    70    67    1
   163    63    64    1
   164    84    83    1
   165    84    85    1
   166    67    66    1
   167    67    68    1
   168    61    62    2
   169    85    86    2
   170    68    69    2
