@<TRIPOS>MOLECULE
tmp/4jajA00.pdb
 123 116 0 0 0
SMALL
GASTEIGER

@<TRIPOS>ATOM
      1  N          5.5860  -27.6000    4.7100 N.3    13  ARG13      -0.1245
      2  CA         5.0110  -27.6680    3.4260 C.3    13  ARG13       0.1563
      3  C          3.5930  -27.3310    3.6240 C.2    13  ARG13       0.2260
      4  O          3.0320  -27.6280    4.6730 O.2    13  ARG13      -0.2867
      5  CB         5.1360  -29.0830    2.8510 C.3    13  ARG13       0.0307
      6  CG         4.2820  -30.0840    3.4840 C.3    13  ARG13       0.0489
      7  CD         4.1820  -31.3470    2.6160 C.3    13  ARG13       0.2205
      8  NE         2.8300  -31.5060    2.1900 N.pl3  13  ARG13      -0.0865
      9  CZ         1.9750  -32.3870    2.6600 C.cat  13  ARG13       0.5346
     10  NH1        2.3330  -33.2650    3.5430 N.pl3  13  ARG13       0.1354
     11  NH2        0.7430  -32.3740    2.2260 N.pl3  13  ARG13       0.1354
     12  N         -0.1190  -27.6490    3.3360 N.3    15  LEU15      -0.1231
     13  CA        -0.9600  -28.7940    3.3430 C.3    15  LEU15       0.1693
     14  C         -2.1080  -28.6150    2.4080 C.2    15  LEU15       0.2593
     15  O         -2.5350  -29.5580    1.7500 O.2    15  LEU15      -0.2718
     16  CB        -1.5370  -29.0600    4.7020 C.3    15  LEU15       0.0284
     17  CG        -0.4750  -29.5330    5.6880 C.3    15  LEU15       0.0019
     18  CD1       -0.9780  -29.6340    7.0900 C.3    15  LEU15       0.0001
     19  CD2        0.0370  -30.8920    5.2550 C.3    15  LEU15       0.0001
     20  N         -2.6460  -27.4000    2.3850 N.am   16  GLY16      -0.1942
     21  CA        -3.6510  -27.0150    1.3780 C.3    16  GLY16       0.2014
     22  C         -4.1630  -25.5720    1.5110 C.2    16  GLY16       0.2638
     23  O         -3.6650  -24.7280    2.3100 O.2    16  GLY16      -0.2714
     24  N         -5.1770  -25.2910    0.6930 N.am   17  LYS17      -0.1977
     25  CA        -5.8090  -23.9650    0.6560 C.3    17  LYS17       0.1596
     26  C         -7.2510  -24.0450    1.1430 C.2    17  LYS17       0.2287
     27  O         -7.9300  -25.0340    0.9890 O.2    17  LYS17      -0.2864
     28  CB        -5.8430  -23.3630   -0.7640 C.3    17  LYS17       0.0298
     29  CG        -6.4090  -21.9200   -0.7870 C.3    17  LYS17       0.0038
     30  CD        -6.4230  -21.4260   -2.1970 C.3    17  LYS17       0.0206
     31  CE        -7.0250  -20.0370   -2.2780 C.3    17  LYS17       0.1093
     32  NZ        -7.0040  -19.5000   -3.6600 N.3    17  LYS17      -0.1314
     33  N         -3.5160  -23.9570    5.1050 N.3    23  VAL23      -0.1245
     34  CA        -3.1440  -24.6640    6.2940 C.3    23  VAL23       0.1561
     35  C         -1.6860  -25.1350    6.0740 C.2    23  VAL23       0.2260
     36  O         -1.2400  -25.5270    5.0120 O.2    23  VAL23      -0.2867
     37  CB        -4.1120  -25.7930    6.5840 C.3    23  VAL23       0.0252
     38  CG1       -3.7270  -26.4790    7.8990 C.3    23  VAL23       0.0019
     39  CG2       -5.5830  -25.2340    6.6550 C.3    23  VAL23       0.0019
     40  N         -0.7380  -28.7220   12.7010 N.3    36  ALA36      -0.1245
     41  CA        -1.0790  -27.9300   11.5020 C.3    36  ALA36       0.1562
     42  C         -1.4330  -26.4840   11.9460 C.2    36  ALA36       0.2260
     43  O         -2.0330  -26.2560   13.0100 O.2    36  ALA36      -0.2867
     44  CB        -2.2360  -28.5740   10.8780 C.3    36  ALA36       0.0290
     45  N        -11.3470  -33.4920   15.0790 N.3    70  LEU70      -0.1245
     46  CA       -10.0090  -32.8880   15.0750 C.3    70  LEU70       0.1561
     47  C         -9.8480  -31.8720   16.1380 C.2    70  LEU70       0.2260
     48  O        -10.6030  -30.9220   16.2140 O.2    70  LEU70      -0.2867
     49  CB        -9.7690  -32.1750   13.7530 C.3    70  LEU70       0.0270
     50  CG        -8.3150  -31.7910   13.5100 C.3    70  LEU70       0.0019
     51  CD1       -7.5470  -33.0410   13.0510 C.3    70  LEU70       0.0001
     52  CD2       -8.1580  -30.7470   12.4380 C.3    70  LEU70       0.0001
     53  N         -3.9070  -26.5130   15.0410 N.3    86  LEU86      -0.1231
     54  CA        -4.6800  -27.7210   14.9340 C.3    86  LEU86       0.1693
     55  C         -3.8820  -29.0430   15.0460 C.2    86  LEU86       0.2592
     56  O         -2.7650  -29.2080   14.5650 O.2    86  LEU86      -0.2718
     57  CB        -5.3600  -27.7370   13.5610 C.3    86  LEU86       0.0284
     58  CG        -6.2510  -26.5720   13.1450 C.3    86  LEU86       0.0019
     59  CD1       -6.7820  -26.7810   11.7520 C.3    86  LEU86       0.0001
     60  CD2       -7.3710  -26.4440   14.0770 C.3    86  LEU86       0.0001
     61  N         -4.5480  -30.0640   15.5530 N.am   87  GLU87      -0.1966
     62  CA        -4.0670  -31.3970   15.3960 C.3    87  GLU87       0.1733
     63  C         -3.7430  -31.6940   13.8930 C.2    87  GLU87       0.2616
     64  O         -4.4990  -31.3440   13.0200 O.2    87  GLU87      -0.2715
     65  CB        -5.1120  -32.3950   15.9320 C.3    87  GLU87       0.0429
     66  CG        -4.7460  -33.8930   15.6740 C.3    87  GLU87       0.1163
     67  CD        -5.8590  -34.7970   16.0120 C.2    87  GLU87       0.3649
     68  OE1       -5.7530  -35.9860   15.6000 O.co2  87  GLU87      -0.2457
     69  OE2       -6.8320  -34.3290   16.6830 O.co2  87  GLU87      -0.2457
     70  N         -2.5960  -32.3060   13.6330 N.am   88  TYR88      -0.1960
     71  CA        -2.1580  -32.6400   12.2910 C.3    88  TYR88       0.1771
     72  C         -2.6850  -33.9830   11.9460 C.2    88  TYR88       0.2619
     73  O         -2.5780  -34.8820   12.7700 O.2    88  TYR88      -0.2715
     74  CB        -0.6310  -32.5880   12.2090 C.3    88  TYR88       0.0574
     75  CG        -0.0450  -33.3330   11.0750 C.ar   88  TYR88      -0.0198
     76  CD1        0.9180  -34.3280   11.2750 C.ar   88  TYR88      -0.0009
     77  CD2       -0.4280  -33.0590    9.8110 C.ar   88  TYR88      -0.0009
     78  CE1        1.4570  -35.0130   10.2240 C.ar   88  TYR88       0.0417
     79  CE2        0.1200  -33.7690    8.7060 C.ar   88  TYR88       0.0417
     80  CZ         1.0330  -34.7380    8.9230 C.ar   88  TYR88       0.1957
     81  OH         1.5120  -35.4210    7.8210 O.3    88  TYR88      -0.2866
     82  N         -3.3660  -34.0690   10.7830 N.am   89  ALA89      -0.1964
     83  CA        -4.0110  -35.2950   10.3100 C.3    89  ALA89       0.1713
     84  C         -3.1700  -35.8410    9.1430 C.2    89  ALA89       0.2458
     85  O         -3.3110  -35.4870    8.0290 O.2    89  ALA89      -0.2730
     86  CB        -5.4680  -35.0930    9.8760 C.3    89  ALA89       0.0333
     87  N         -2.3290  -36.7890    9.4190 N.am   90  PRO90      -0.2727
     88  CA        -1.2980  -37.1690    8.4980 C.3    90  PRO90       0.1402
     89  C         -1.7130  -37.9150    7.2550 C.2    90  PRO90       0.2269
     90  O         -0.9270  -37.9920    6.3280 O.2    90  PRO90      -0.2865
     91  CB        -0.4020  -38.0920    9.3200 C.3    90  PRO90       0.0296
     92  CG        -0.9890  -38.1360   10.7200 C.3    90  PRO90       0.0237
     93  CD        -2.3090  -37.5370   10.6790 C.3    90  PRO90       0.0939
     94  N         -4.3260  -37.1080    5.3550 N.3    92  GLY92      -0.1210
     95  CA        -5.0830  -36.2200    4.4750 C.3    92  GLY92       0.1956
     96  C         -6.5980  -36.3370    4.5870 C.2    92  GLY92       0.2612
     97  O         -7.1260  -36.9500    5.5200 O.2    92  GLY92      -0.2717
     98  N         -7.2710  -35.8170    3.5700 N.am   93  THR93      -0.1952
     99  CA        -8.6920  -35.7210    3.5550 C.3    93  THR93       0.1897
    100  C         -9.3260  -36.9130    2.9060 C.2    93  THR93       0.2313
    101  O         -8.7060  -37.6050    2.1130 O.2    93  THR93      -0.2863
    102  CB        -9.1690  -34.5370    2.7750 C.3    93  THR93       0.1794
    103  OG1       -8.8250  -34.6840    1.4240 O.3    93  THR93      -0.2208
    104  CG2       -8.6070  -33.2370    3.2970 C.3    93  THR93       0.0378
    105  N         -9.4610  -36.3450   -0.8900 N.3    96  ARG96      -0.1245
    106  CA        -8.3300  -36.8320   -1.6500 C.3    96  ARG96       0.1563
    107  C         -8.3630  -38.3420   -1.7790 C.2    96  ARG96       0.2260
    108  O         -8.0160  -38.9310   -2.7890 O.2    96  ARG96      -0.2867
    109  CB        -6.9990  -36.4270   -1.0250 C.3    96  ARG96       0.0307
    110  CG        -5.9210  -36.0920   -2.0690 C.3    96  ARG96       0.0489
    111  CD        -4.5790  -35.6500   -1.3900 C.3    96  ARG96       0.2205
    112  NE        -3.8230  -36.8160   -0.8920 N.pl3  96  ARG96      -0.0865
    113  CZ        -3.3090  -36.9310    0.3390 C.cat  96  ARG96       0.5346
    114  NH1       -2.6610  -38.0380    0.6680 N.pl3  96  ARG96       0.1354
    115  NH2       -3.4320  -35.9420    1.2410 N.pl3  96  ARG96       0.1354
    116  N        -10.9090  -35.5130    7.8170 N.3   139  LEU139     -0.1245
    117  CA        -9.4840  -35.7580    7.7540 C.3   139  LEU139      0.1561
    118  C         -9.1810  -37.1930    8.2470 C.2   139  LEU139      0.2260
    119  O        -10.0180  -37.8760    8.8220 O.2   139  LEU139     -0.2867
    120  CB        -8.6930  -34.7630    8.5600 C.3   139  LEU139      0.0270
    121  CG        -9.0050  -33.3070    8.3230 C.3   139  LEU139      0.0019
    122  CD1       -8.0190  -32.3670    9.0950 C.3   139  LEU139      0.0001
    123  CD2       -8.9450  -32.9850    6.9630 C.3   139  LEU139      0.0001
@<TRIPOS>BOND
     1    32    31    1
     2   108   107    2
     3    31    30    1
     4    30    29    1
     5   110   111    1
     6   110   109    1
     7   107   106    1
     8   106   109    1
     9   106   105    1
    10   111   112    1
    11   112   113    2
    12    29    28    1
    13    28    25    1
    14   113   114    1
    15   113   115    1
    16    25    24    1
    17    25    26    1
    18    24    22   am
    19    27    26    2
    20    21    22    1
    21    21    20    1
    22   103   102    1
    23    22    23    2
    24    15    14    2
    25   101   100    2
    26     8     7    1
    27     8     9    2
    28    11     9    1
    29    20    14   am
    30    14    13    1
    31     7     6    1
    32     9    10    1
    33   102   104    1
    34   102    99    1
    35     5     2    1
    36     5     6    1
    37   100    99    1
    38    12    13    1
    39    13    16    1
    40     2     3    1
    41     2     1    1
    42    99    98    1
    43    98    96   am
    44     3     4    2
    45    95    96    1
    46    95    94    1
    47    96    97    2
    48    16    17    1
    49    36    35    2
    50    33    34    1
    51    19    17    1
    52    17    18    1
    53    35    34    1
    54    34    37    1
    55    90    89    2
    56    37    39    1
    57    37    38    1
    58   123   121    1
    59    89    88    1
    60   117   116    1
    61   117   118    1
    62   117   120    1
    63    81    80    1
    64    85    84    2
    65   118   119    2
    66   121   120    1
    67   121   122    1
    68    88    91    1
    69    88    87    1
    70    79    80   ar
    71    79    77   ar
    72    80    78   ar
    73    84    87   am
    74    84    83    1
    75    91    92    1
    76    87    93    1
    77    77    75   ar
    78    86    83    1
    79    78    76   ar
    80    83    82    1
    81    93    92    1
    82    82    72   am
    83    44    41    1
    84    75    76   ar
    85    75    74    1
    86    41    42    1
    87    41    40    1
    88    59    58    1
    89    72    71    1
    90    72    73    2
    91    42    43    2
    92    74    71    1
    93    71    70    1
    94    52    50    1
    95    64    63    2
    96    51    50    1
    97    58    57    1
    98    58    60    1
    99    50    49    1
   100    57    54    1
   101    70    63   am
   102    49    46    1
   103    63    62    1
   104    56    55    2
   105    54    53    1
   106    54    55    1
   107    55    61   am
   108    46    45    1
   109    46    47    1
   110    62    61    1
   111    62    65    1
   112    68    67   ar
   113    66    65    1
   114    66    67    1
   115    67    69   ar
   116    47    48    2
