@<TRIPOS>MOLECULE
tmp/4jalA01.pdb
 106 103 0 0 0
SMALL
GASTEIGER

@<TRIPOS>ATOM
      1  N         10.3500    2.3950   19.4900 N.3    79  LEU79      -0.1231
      2  CA         9.7910    2.9050   18.2450 C.3    79  LEU79       0.1693
      3  C         10.1750    4.3670   18.1020 C.2    79  LEU79       0.2593
      4  O          9.8220    5.2050   18.9440 O.2    79  LEU79      -0.2718
      5  CB         8.2630    2.7630   18.2550 C.3    79  LEU79       0.0284
      6  CG         7.7250    1.4190   17.7650 C.3    79  LEU79       0.0019
      7  CD1        7.8950    1.2520   16.2370 C.3    79  LEU79       0.0001
      8  CD2        8.3420    0.2420   18.5180 C.3    79  LEU79       0.0001
      9  N         10.9060    4.6750   17.0400 N.am   80  THR80      -0.1939
     10  CA        11.3650    6.0360   16.8200 C.3    80  THR80       0.2028
     11  C         11.5310    6.3370   15.3410 C.2    80  THR80       0.2643
     12  O         11.9540    5.4750   14.5710 O.2    80  THR80      -0.2714
     13  CB        12.7140    6.3000   17.5520 C.3    80  THR80       0.1808
     14  OG1       13.3050    7.4990   17.0350 O.3    80  THR80      -0.2208
     15  CG2       13.6830    5.1330   17.3430 C.3    80  THR80       0.0379
     16  N         11.2080    7.5640   14.9380 N.am   81  THR81      -0.1936
     17  CA        11.3900    7.9590   13.5450 C.3    81  THR81       0.2028
     18  C         12.8780    7.9190   13.1940 C.2    81  THR81       0.2642
     19  O         13.2480    7.9490   12.0210 O.2    81  THR81      -0.2714
     20  CB        10.8830    9.3880   13.2870 C.3    81  THR81       0.1808
     21  OG1       11.5400   10.2810   14.1930 O.3    81  THR81      -0.2208
     22  CG2        9.3730    9.4810   13.5100 C.3    81  THR81       0.0379
     23  N         13.7230    7.8650   14.2180 N.am   82  LYS82      -0.1977
     24  CA        15.1730    7.8200   14.0170 C.3    82  LYS82       0.1596
     25  C         15.7050    6.3860   13.9450 C.2    82  LYS82       0.2287
     26  O         16.9140    6.1610   13.9830 O.2    82  LYS82      -0.2864
     27  CB        15.8880    8.6160   15.1200 C.3    82  LYS82       0.0298
     28  CG        15.5860   10.1090   15.0540 C.3    82  LYS82       0.0038
     29  CD        16.2070   10.8780   16.2050 C.3    82  LYS82       0.0206
     30  CE        15.5800   10.5060   17.5360 C.3    82  LYS82       0.1093
     31  NZ        16.1550   11.3150   18.6580 N.3    82  LYS82      -0.1314
     32  N          7.3710    6.9030   22.6020 N.3   101  GLY101     -0.1210
     33  CA         7.6280    8.1440   23.3210 C.3   101  GLY101      0.1940
     34  C          6.4210    9.0630   23.4390 C.2   101  GLY101      0.2454
     35  O          5.3820    8.7890   22.8430 O.2   101  GLY101     -0.2732
     36  N          6.5530   10.1650   24.2070 N.am  102  PRO102     -0.2717
     37  CA         5.4470   11.1160   24.3880 C.3   102  PRO102      0.1535
     38  C          5.2090   11.9850   23.1560 C.2   102  PRO102      0.2598
     39  O          6.1070   12.1810   22.3340 O.2   102  PRO102     -0.2715
     40  CB         5.9060   11.9690   25.5740 C.3   102  PRO102      0.0310
     41  CG         7.3810   11.8870   25.5390 C.3   102  PRO102      0.0237
     42  CD         7.7100   10.5070   25.0500 C.3   102  PRO102      0.0939
     43  N          3.9970   12.5150   23.0540 N.am  103  GLU103     -0.1964
     44  CA         3.5080   13.1170   21.8210 C.3   103  GLU103      0.1733
     45  C          4.3110   14.3350   21.3850 C.2   103  GLU103      0.2617
     46  O          4.5920   14.5200   20.2130 O.2   103  GLU103     -0.2715
     47  CB         2.0190   13.4800   21.9670 C.3   103  GLU103      0.0429
     48  CG         1.0930   12.2700   21.9980 C.3   103  GLU103      0.1163
     49  CD         0.8780   11.6920   23.3800 C.2   103  GLU103      0.3649
     50  OE1       -0.2370   11.1760   23.6130 O.co2 103  GLU103     -0.2457
     51  OE2        1.8050   11.7310   24.2320 O.co2 103  GLU103     -0.2457
     52  N          4.6860   15.1860   22.3240 N.am  104  THR104     -0.1937
     53  CA         5.3490   16.4170   21.9200 C.3   104  THR104      0.2028
     54  C          6.8640   16.2740   21.8950 C.2   104  THR104      0.2642
     55  O          7.5530   16.9610   21.1440 O.2   104  THR104     -0.2714
     56  CB         4.9170   17.6260   22.7820 C.3   104  THR104      0.1808
     57  OG1        5.1870   17.3650   24.1580 O.3   104  THR104     -0.2208
     58  CG2        3.4250   17.8950   22.6240 C.3   104  THR104      0.0379
     59  N          7.3750   15.3370   22.6730 N.am  105  ARG105     -0.1963
     60  CA         8.8130   15.2340   22.8780 C.3   105  ARG105      0.1729
     61  C          9.5110   14.0690   22.1580 C.2   105  ARG105      0.2617
     62  O         10.6340   14.2210   21.6730 O.2   105  ARG105     -0.2715
     63  CB         9.0920   15.1390   24.3730 C.3   105  ARG105      0.0348
     64  CG         8.7860   16.4190   25.1260 C.3   105  ARG105      0.0492
     65  CD         8.7810   16.1840   26.6320 C.3   105  ARG105      0.2205
     66  NE         7.5470   15.5380   27.0850 N.pl3 105  ARG105     -0.0865
     67  CZ         7.5030   14.4700   27.8820 C.cat 105  ARG105      0.5346
     68  NH1        8.6420   13.9220   28.2950 N.pl3 105  ARG105      0.1354
     69  NH2        6.3240   13.9480   28.2540 N.pl3 105  ARG105      0.1354
     70  N          8.8580   12.9150   22.0900 N.am  106  GLY106     -0.1940
     71  CA         9.5190   11.7210   21.6030 C.3   106  GLY106      0.2014
     72  C         10.4330   11.1800   22.6840 C.2   106  GLY106      0.2638
     73  O         10.5960   11.8030   23.7200 O.2   106  GLY106     -0.2714
     74  N         11.0430   10.0310   22.4360 N.am  107  LEU107     -0.1977
     75  CA        11.8820    9.3890   23.4350 C.3   107  LEU107      0.1596
     76  C         13.1810   10.1690   23.6620 C.2   107  LEU107      0.2287
     77  O         13.8100   10.6280   22.7040 O.2   107  LEU107     -0.2864
     78  CB        12.1840    7.9460   23.0150 C.3   107  LEU107      0.0297
     79  CG        10.9760    7.0100   23.0700 C.3   107  LEU107      0.0022
     80  CD1       11.2460    5.7200   22.2940 C.3   107  LEU107      0.0001
     81  CD2       10.6010    6.7110   24.5070 C.3   107  LEU107      0.0001
     82  N         17.5280    6.2280   24.0290 N.3   112  LEU112     -0.1245
     83  CA        17.8370    5.7780   22.6830 C.3   112  LEU112      0.1561
     84  C         19.2880    5.3260   22.5610 C.2   112  LEU112      0.2260
     85  O         19.5710    4.2630   22.0130 O.2   112  LEU112     -0.2867
     86  CB        17.5460    6.8930   21.6770 C.3   112  LEU112      0.0270
     87  CG        16.2750    6.7800   20.8220 C.3   112  LEU112      0.0019
     88  CD1       15.2890    5.7350   21.3620 C.3   112  LEU112      0.0001
     89  CD2       15.6110    8.1350   20.6870 C.3   112  LEU112      0.0001
     90  N          5.6580   14.1550    8.5320 N.3   130  ARG130     -0.1231
     91  CA         5.5700   14.4940    9.9470 C.3   130  ARG130      0.1694
     92  C          5.2210   13.2370   10.7370 C.2   130  ARG130      0.2592
     93  O          4.5990   12.3160   10.2040 O.2   130  ARG130     -0.2718
     94  CB         4.5260   15.5880   10.1890 C.3   130  ARG130      0.0321
     95  CG         3.6340   15.9130    8.9890 C.3   130  ARG130      0.0489
     96  CD         4.2510   16.9580    8.0610 C.3   130  ARG130      0.2205
     97  NE         4.7880   18.1050    8.7910 N.pl3 130  ARG130     -0.0865
     98  CZ         4.0480   19.0750    9.3260 C.cat 130  ARG130      0.5346
     99  NH1        2.7240   19.0400    9.2230 N.pl3 130  ARG130      0.1354
    100  NH2        4.6320   20.0800    9.9720 N.pl3 130  ARG130      0.1354
    101  N          5.6230   13.1900   12.0030 N.am  131  SER131     -0.1952
    102  CA         5.3530   12.0170   12.8370 C.3   131  SER131      0.1924
    103  C          3.9090   11.5080   12.7380 C.2   131  SER131      0.2314
    104  O          2.9610   12.2500   12.4660 O.2   131  SER131     -0.2863
    105  CB         5.6900   12.3020   14.3070 C.3   131  SER131      0.2116
    106  OG         4.8580   13.3330   14.8330 O.3   131  SER131     -0.2180
@<TRIPOS>BOND
     1    96    97    1
     2    96    95    1
     3    90    91    1
     4    97    98    2
     5    95    94    1
     6    99    98    1
     7    98   100    1
     8    91    94    1
     9    91    92    1
    10    93    92    2
    11    92   101   am
    12   101   102    1
    13    19    18    2
    14   104   103    2
    15   103   102    1
    16   102   105    1
    17    18    17    1
    18    18    23   am
    19    20    22    1
    20    20    17    1
    21    20    21    1
    22    17    16    1
    23    25    26    2
    24    25    24    1
    25    24    23    1
    26    24    27    1
    27   105   106    1
    28    12    11    2
    29    16    11   am
    30    28    27    1
    31    28    29    1
    32    11    10    1
    33    29    30    1
    34     7     6    1
    35    10     9    1
    36    10    13    1
    37    14    13    1
    38     9     3   am
    39    15    13    1
    40    30    31    1
    41     6     5    1
    42     6     8    1
    43     3     2    1
    44     3     4    2
    45     2     5    1
    46     2     1    1
    47    46    45    2
    48    89    87    1
    49    87    88    1
    50    87    86    1
    51    55    54    2
    52    45    44    1
    53    45    52   am
    54    71    70    1
    55    71    72    1
    56    62    61    2
    57    86    83    1
    58    44    47    1
    59    44    43    1
    60    54    53    1
    61    54    59   am
    62    53    52    1
    63    53    56    1
    64    47    48    1
    65    48    49    1
    66    85    84    2
    67    70    61   am
    68    61    60    1
    69    80    79    1
    70    39    38    2
    71    74    72   am
    72    74    75    1
    73    84    83    1
    74    32    33    1
    75    58    56    1
    76    59    60    1
    77    83    82    1
    78    72    73    2
    79    77    76    2
    80    56    57    1
    81    35    34    2
    82    60    63    1
    83    78    79    1
    84    78    75    1
    85    43    38   am
    86    79    81    1
    87    38    37    1
    88    33    34    1
    89    49    50   ar
    90    49    51   ar
    91    75    76    1
    92    34    36   am
    93    36    37    1
    94    36    42    1
    95    63    64    1
    96    37    40    1
    97    42    41    1
    98    64    65    1
    99    41    40    1
   100    65    66    1
   101    66    67    2
   102    67    69    1
   103    67    68    1
