@<TRIPOS>MOLECULE
tmp/4jalA00.pdb
 151 144 0 0 0
SMALL
GASTEIGER

@<TRIPOS>ATOM
      1  N         -1.4820   12.8810   26.0690 N.3    12  ILE12      -0.1245
      2  CA        -2.7890   13.2180   25.5020 C.3    12  ILE12       0.1561
      3  C         -3.7930   12.1170   25.7970 C.2    12  ILE12       0.2260
      4  O         -3.6700   11.0130   25.2720 O.2    12  ILE12      -0.2867
      5  CB        -2.6760   13.4190   23.9700 C.3    12  ILE12       0.0252
      6  CG1       -1.6290   14.4930   23.6740 C.3    12  ILE12       0.0019
      7  CG2       -4.0210   13.8130   23.3560 C.3    12  ILE12       0.0019
      8  CD1       -1.5500   14.8890   22.2260 C.3    12  ILE12       0.0001
      9  N         -5.3170    9.5900   23.1290 N.3    15  ASN15      -0.1240
     10  CA        -4.3460    8.6420   22.5810 C.3    15  ASN15       0.1653
     11  C         -4.2320    7.4090   23.4500 C.2    15  ASN15       0.2266
     12  O         -4.2110    6.2810   22.9540 O.2    15  ASN15      -0.2867
     13  CB        -2.9620    9.2720   22.4570 C.3    15  ASN15       0.1155
     14  CG        -2.8440   10.1810   21.2580 C.2    15  ASN15       0.2627
     15  OD1       -3.5320    9.9940   20.2500 O.2    15  ASN15      -0.2716
     16  ND2       -1.9600   11.1700   21.3530 N.am   15  ASN15      -0.0877
     17  N         10.3500    2.3950   19.4900 N.3    79  LEU79      -0.1231
     18  CA         9.7910    2.9050   18.2450 C.3    79  LEU79       0.1693
     19  C         10.1750    4.3670   18.1020 C.2    79  LEU79       0.2593
     20  O          9.8220    5.2050   18.9440 O.2    79  LEU79      -0.2718
     21  CB         8.2630    2.7630   18.2550 C.3    79  LEU79       0.0284
     22  CG         7.7250    1.4190   17.7650 C.3    79  LEU79       0.0019
     23  CD1        7.8950    1.2520   16.2370 C.3    79  LEU79       0.0001
     24  CD2        8.3420    0.2420   18.5180 C.3    79  LEU79       0.0001
     25  N         10.9060    4.6750   17.0400 N.am   80  THR80      -0.1939
     26  CA        11.3650    6.0360   16.8200 C.3    80  THR80       0.2028
     27  C         11.5310    6.3370   15.3410 C.2    80  THR80       0.2642
     28  O         11.9540    5.4750   14.5710 O.2    80  THR80      -0.2714
     29  CB        12.7140    6.3000   17.5520 C.3    80  THR80       0.1808
     30  OG1       13.3050    7.4990   17.0350 O.3    80  THR80      -0.2208
     31  CG2       13.6830    5.1330   17.3430 C.3    80  THR80       0.0379
     32  N         11.2080    7.5640   14.9380 N.am   81  THR81      -0.1950
     33  CA        11.3900    7.9590   13.5450 C.3    81  THR81       0.1897
     34  C         12.8780    7.9190   13.1940 C.2    81  THR81       0.2313
     35  O         13.2480    7.9490   12.0210 O.2    81  THR81      -0.2863
     36  CB        10.8830    9.3880   13.2870 C.3    81  THR81       0.1794
     37  OG1       11.5400   10.2810   14.1930 O.3    81  THR81      -0.2208
     38  CG2        9.3730    9.4810   13.5100 C.3    81  THR81       0.0378
     39  N          7.1660    3.3320   23.2040 N.3   100  PHE100     -0.1227
     40  CA         6.8130    4.5200   22.4350 C.3   100  PHE100      0.1736
     41  C          7.0110    5.7950   23.2540 C.2   100  PHE100      0.2596
     42  O          6.8190    5.7810   24.4650 O.2   100  PHE100     -0.2718
     43  CB         5.3500    4.4250   21.9920 C.3   100  PHE100      0.0547
     44  CG         5.0700    3.2650   21.0770 C.ar  100  PHE100     -0.0202
     45  CD1        4.9720    1.9750   21.5790 C.ar  100  PHE100     -0.0042
     46  CD2        4.9110    3.4640   19.7110 C.ar  100  PHE100     -0.0042
     47  CE1        4.7080    0.9020   20.7350 C.ar  100  PHE100     -0.0003
     48  CE2        4.6600    2.3940   18.8680 C.ar  100  PHE100     -0.0003
     49  CZ         4.5490    1.1220   19.3830 C.ar  100  PHE100     -0.0000
     50  N          7.3710    6.9030   22.6020 N.am  101  GLY101     -0.1943
     51  CA         7.6280    8.1440   23.3210 C.3   101  GLY101      0.1998
     52  C          6.4210    9.0630   23.4390 C.2   101  GLY101      0.2481
     53  O          5.3820    8.7890   22.8430 O.2   101  GLY101     -0.2729
     54  N          6.5530   10.1650   24.2070 N.am  102  PRO102     -0.2715
     55  CA         5.4470   11.1160   24.3880 C.3   102  PRO102      0.1536
     56  C          5.2090   11.9850   23.1560 C.2   102  PRO102      0.2598
     57  O          6.1070   12.1810   22.3340 O.2   102  PRO102     -0.2715
     58  CB         5.9060   11.9690   25.5740 C.3   102  PRO102      0.0310
     59  CG         7.3810   11.8870   25.5390 C.3   102  PRO102      0.0237
     60  CD         7.7100   10.5070   25.0500 C.3   102  PRO102      0.0939
     61  N          3.9970   12.5150   23.0540 N.am  103  GLU103     -0.1978
     62  CA         3.5080   13.1170   21.8210 C.3   103  GLU103      0.1602
     63  C          4.3110   14.3350   21.3850 C.2   103  GLU103      0.2287
     64  O          4.5920   14.5200   20.2130 O.2   103  GLU103     -0.2864
     65  CB         2.0190   13.4800   21.9670 C.3   103  GLU103      0.0415
     66  CG         1.0930   12.2700   21.9980 C.3   103  GLU103      0.1163
     67  CD         0.8780   11.6920   23.3800 C.2   103  GLU103      0.3649
     68  OE1       -0.2370   11.1760   23.6130 O.co2 103  GLU103     -0.2457
     69  OE2        1.8050   11.7310   24.2320 O.co2 103  GLU103     -0.2457
     70  N          8.8580   12.9150   22.0900 N.3   106  GLY106     -0.1210
     71  CA         9.5190   11.7210   21.6030 C.3   106  GLY106      0.1956
     72  C         10.4330   11.1800   22.6840 C.2   106  GLY106      0.2611
     73  O         10.5960   11.8030   23.7200 O.2   106  GLY106     -0.2717
     74  N         11.0430   10.0310   22.4360 N.am  107  LEU107     -0.1979
     75  CA        11.8820    9.3890   23.4350 C.3   107  LEU107      0.1596
     76  C         13.1810   10.1690   23.6620 C.2   107  LEU107      0.2287
     77  O         13.8100   10.6280   22.7040 O.2   107  LEU107     -0.2864
     78  CB        12.1840    7.9460   23.0150 C.3   107  LEU107      0.0297
     79  CG        10.9760    7.0100   23.0700 C.3   107  LEU107      0.0022
     80  CD1       11.2460    5.7200   22.2940 C.3   107  LEU107      0.0001
     81  CD2       10.6010    6.7110   24.5070 C.3   107  LEU107      0.0001
     82  N         13.2910    0.8930   16.0870 N.3   121  ILE121     -0.1231
     83  CA        12.4270    0.5510   14.9580 C.3   121  ILE121      0.1692
     84  C         11.7160    1.7700   14.3930 C.2   121  ILE121      0.2592
     85  O         11.1360    2.5600   15.1420 O.2   121  ILE121     -0.2718
     86  CB        11.3490   -0.4530   15.4150 C.3   121  ILE121      0.0266
     87  CG1       12.0050   -1.7000   16.0070 C.3   121  ILE121      0.0019
     88  CG2       10.4290   -0.8090   14.2600 C.3   121  ILE121      0.0020
     89  CD1       11.0090   -2.6430   16.6320 C.3   121  ILE121      0.0001
     90  N         11.7440    1.9070   13.0710 N.am  122  ARG122     -0.1966
     91  CA        11.0860    3.0150   12.4000 C.3   122  ARG122      0.1729
     92  C          9.9330    2.4880   11.5580 C.2   122  ARG122      0.2616
     93  O         10.1150    1.5800   10.7430 O.2   122  ARG122     -0.2715
     94  CB        12.0810    3.7730   11.5070 C.3   122  ARG122      0.0348
     95  CG        11.4230    4.7110   10.4860 C.3   122  ARG122      0.0492
     96  CD        12.4460    5.6170    9.7740 C.3   122  ARG122      0.2205
     97  NE        11.8520    6.2900    8.6150 N.pl3 122  ARG122     -0.0865
     98  CZ        11.4240    7.5480    8.6120 C.cat 122  ARG122      0.5346
     99  NH1       11.5340    8.2890    9.7010 N.pl3 122  ARG122      0.1354
    100  NH2       10.8990    8.0680    7.5100 N.pl3 122  ARG122      0.1354
    101  N          8.7390    3.0410   11.7660 N.am  123  ILE123     -0.1977
    102  CA         7.6070    2.7320   10.8990 C.3   123  ILE123      0.1596
    103  C          7.7900    3.5560    9.6230 C.2   123  ILE123      0.2287
    104  O          7.9450    4.7720    9.6960 O.2   123  ILE123     -0.2864
    105  CB         6.2730    3.1200   11.5720 C.3   123  ILE123      0.0276
    106  CG1        6.0380    2.2610   12.8140 C.3   123  ILE123      0.0022
    107  CG2        5.1170    2.9320   10.5970 C.3   123  ILE123      0.0022
    108  CD1        5.0290    2.8400   13.7560 C.3   123  ILE123      0.0001
    109  N          7.7170    5.8820    6.3420 N.3   125  MET125     -0.1245
    110  CA         6.9660    7.0700    5.9610 C.3   125  MET125      0.1570
    111  C          7.6700    7.6620    4.7460 C.2   125  MET125      0.2261
    112  O          8.8820    7.5030    4.5820 O.2   125  MET125     -0.2867
    113  CB         6.9690    8.1190    7.0700 C.3   125  MET125      0.0387
    114  CG         6.4030    7.6880    8.4110 C.3   125  MET125      0.0595
    115  SD         6.2820    9.0680    9.5490 S.3   125  MET125     -0.1393
    116  CE         8.0010    9.4150    9.8890 C.3   125  MET125      0.0692
    117  N          5.6230   13.1900   12.0030 N.3   131  SER131     -0.1202
    118  CA         5.3530   12.0170   12.8370 C.3   131  SER131      0.2020
    119  C          3.9090   11.5080   12.7380 C.2   131  SER131      0.2619
    120  O          2.9610   12.2500   12.4660 O.2   131  SER131     -0.2717
    121  CB         5.6900   12.3020   14.3070 C.3   131  SER131      0.2103
    122  OG         4.8580   13.3330   14.8330 O.3   131  SER131     -0.2182
    123  N          3.7740   10.2150   12.9680 N.am  132  MET132     -0.1965
    124  CA         2.4930    9.5430   13.0840 C.3   132  MET132      0.1736
    125  C          1.7660    9.9760   14.3730 C.2   132  MET132      0.2616
    126  O          2.4130   10.3990   15.3170 O.2   132  MET132     -0.2715
    127  CB         2.8200    8.0640   13.1860 C.3   132  MET132      0.0427
    128  CG         1.8420    7.1680   12.5930 C.3   132  MET132      0.0599
    129  SD         2.7330    5.7310   12.0490 S.3   132  MET132     -0.1393
    130  CE         1.3220    4.6760   11.7730 C.3   132  MET132      0.0692
    131  N          0.4360    9.8650   14.4170 N.am  133  ASN133     -0.1958
    132  CA        -0.2890    9.9640   15.6800 C.3   133  ASN133      0.1819
    133  C          0.1260    8.7890   16.5760 C.2   133  ASN133      0.2621
    134  O          0.2800    7.6800   16.1070 O.2   133  ASN133     -0.2715
    135  CB        -1.8050    9.9650   15.4390 C.3   133  ASN133      0.1195
    136  CG        -2.6090    9.6400   16.7010 C.2   133  ASN133      0.2630
    137  OD1       -2.9270    8.4830   16.9650 O.2   133  ASN133     -0.2716
    138  ND2       -2.9400   10.6590   17.4740 N.am  133  ASN133     -0.0877
    139  N          0.3410    9.0400   17.8620 N.am  134  LEU134     -0.1977
    140  CA         0.8200    7.9830   18.7440 C.3   134  LEU134      0.1596
    141  C         -0.0200    6.6790   18.7450 C.2   134  LEU134      0.2287
    142  O          0.5340    5.5830   18.6210 O.2   134  LEU134     -0.2864
    143  CB         0.9880    8.5180   20.1720 C.3   134  LEU134      0.0297
    144  CG         1.3220    7.4650   21.2410 C.3   134  LEU134      0.0022
    145  CD1        2.6900    6.8120   20.9780 C.3   134  LEU134      0.0001
    146  CD2        1.2790    8.0940   22.6410 C.3   134  LEU134      0.0001
    147  N          0.4650    4.7630   15.5510 N.3   137  ALA137     -0.1245
    148  CA         1.7510    4.0630   15.5410 C.3   137  ALA137      0.1562
    149  C          1.6850    2.7850   16.3770 C.2   137  ALA137      0.2260
    150  O          2.1590    1.7320   15.9550 O.2   137  ALA137     -0.2867
    151  CB         2.8610    4.9630   16.0720 C.3   137  ALA137      0.0290
@<TRIPOS>BOND
     1   112   111    2
     2   111   110    1
     3   110   109    1
     4   110   113    1
     5   113   114    1
     6   100    98    1
     7   114   115    1
     8    98    97    2
     9    98    99    1
    10    97    96    1
    11   115   116    1
    12   103   104    2
    13   103   102    1
    14    96    95    1
    15    95    94    1
    16   107   105    1
    17    93    92    2
    18   102   105    1
    19   102   101    1
    20    94    91    1
    21    92   101   am
    22    92    91    1
    23   105   106    1
    24   130   129    1
    25   117   118    1
    26    35    34    2
    27   129   128    1
    28    91    90    1
    29   120   119    2
    30   128   127    1
    31   119   118    1
    32   119   123   am
    33   106   108    1
    34   118   121    1
    35   123   124    1
    36    90    84   am
    37   124   127    1
    38   124   125    1
    39    34    33    1
    40    36    38    1
    41    36    33    1
    42    36    37    1
    43    33    32    1
    44    88    86    1
    45   121   122    1
    46   125   131   am
    47   125   126    2
    48    84    83    1
    49    84    85    2
    50   131   132    1
    51    28    27    2
    52    32    27   am
    53    83    86    1
    54    83    82    1
    55    27    26    1
    56    86    87    1
    57   135   132    1
    58   135   136    1
    59   148   147    1
    60   148   151    1
    61   148   149    1
    62   132   133    1
    63   150   149    2
    64    87    89    1
    65   134   133    2
    66    23    22    1
    67   133   139   am
    68   136   137    2
    69   136   138   am
    70    26    25    1
    71    26    29    1
    72    30    29    1
    73    25    19   am
    74    31    29    1
    75    22    21    1
    76    22    24    1
    77   139   140    1
    78    19    18    1
    79    19    20    2
    80    18    21    1
    81    18    17    1
    82   142   141    2
    83   140   141    1
    84   140   143    1
    85    48    49   ar
    86    48    46   ar
    87    49    47   ar
    88    46    44   ar
    89   143   144    1
    90    64    63    2
    91    15    14    2
    92    47    45   ar
    93   145   144    1
    94    44    45   ar
    95    44    43    1
    96   144   146    1
    97    14    16   am
    98    14    13    1
    99    63    62    1
   100    71    70    1
   101    71    72    1
   102    62    65    1
   103    62    61    1
   104    65    66    1
   105    43    40    1
   106    66    67    1
   107     8     6    1
   108    80    79    1
   109    57    56    2
   110    40    39    1
   111    40    41    1
   112    74    72   am
   113    74    75    1
   114    13    10    1
   115    10     9    1
   116    10    11    1
   117    50    41   am
   118    50    51    1
   119    72    73    2
   120    77    76    2
   121    53    52    2
   122    12    11    2
   123    78    79    1
   124    78    75    1
   125    61    56   am
   126    79    81    1
   127    56    55    1
   128    41    42    2
   129    51    52    1
   130     7     5    1
   131    67    68   ar
   132    67    69   ar
   133    75    76    1
   134    52    54   am
   135     6     5    1
   136     5     2    1
   137    54    55    1
   138    54    60    1
   139    55    58    1
   140    60    59    1
   141     4     3    2
   142     2     3    1
   143     2     1    1
   144    59    58    1
