@<TRIPOS>MOLECULE
tmp/4janA00.pdb
 82 79 0 0 0
SMALL
GASTEIGER

@<TRIPOS>ATOM
      1  N         25.9780  -49.6700   33.9200 N.3     7  LEU7       -0.1231
      2  CA        25.0390  -50.6230   34.5020 C.3     7  LEU7        0.1693
      3  C         25.5100  -52.0600   34.2850 C.2     7  LEU7        0.2592
      4  O         25.8020  -52.4630   33.1580 O.2     7  LEU7       -0.2718
      5  CB        23.6490  -50.4380   33.8840 C.3     7  LEU7        0.0284
      6  CG        23.1030  -49.0100   33.7890 C.3     7  LEU7        0.0019
      7  CD1       21.7500  -49.0270   33.0890 C.3     7  LEU7        0.0001
      8  CD2       22.9960  -48.3490   35.1570 C.3     7  LEU7        0.0001
      9  N         25.5860  -52.8260   35.3710 N.am    8  ASN8       -0.1974
     10  CA        25.9560  -54.2380   35.3070 C.3     8  ASN8        0.1688
     11  C         27.3680  -54.4360   34.7670 C.2     8  ASN8        0.2292
     12  O         27.6280  -55.3810   34.0210 O.2     8  ASN8       -0.2864
     13  CB        24.9700  -55.0180   34.4300 C.3     8  ASN8        0.1181
     14  CG        23.5240  -54.8280   34.8530 C.2     8  ASN8        0.2629
     15  OD1       23.2400  -54.3870   35.9660 O.2     8  ASN8       -0.2716
     16  ND2       22.5990  -55.1690   33.9570 N.am    8  ASN8       -0.0877
     17  N         18.8490  -45.8630   28.7640 N.3    97  PHE97      -0.1227
     18  CA        19.1060  -47.2970   28.8310 C.3    97  PHE97       0.1736
     19  C         17.9110  -48.1050   28.3300 C.2    97  PHE97       0.2595
     20  O         16.7650  -47.6650   28.4330 O.2    97  PHE97      -0.2718
     21  CB        19.4370  -47.7070   30.2670 C.3    97  PHE97       0.0547
     22  CG        18.3870  -47.3110   31.2670 C.ar   97  PHE97      -0.0202
     23  CD1       18.4670  -46.0980   31.9320 C.ar   97  PHE97      -0.0042
     24  CD2       17.3190  -48.1480   31.5400 C.ar   97  PHE97      -0.0042
     25  CE1       17.5040  -45.7300   32.8490 C.ar   97  PHE97      -0.0003
     26  CE2       16.3520  -47.7830   32.4580 C.ar   97  PHE97      -0.0003
     27  CZ        16.4460  -46.5730   33.1120 C.ar   97  PHE97      -0.0000
     28  N         18.1900  -49.2880   27.7900 N.am   98  ASN98      -0.1974
     29  CA        17.1470  -50.1860   27.3050 C.3    98  ASN98       0.1688
     30  C         16.6600  -51.1020   28.4240 C.2    98  ASN98       0.2292
     31  O         17.3440  -52.0520   28.8030 O.2    98  ASN98      -0.2864
     32  CB        17.6730  -51.0190   26.1310 C.3    98  ASN98       0.1181
     33  CG        16.6290  -51.9670   25.5680 C.2    98  ASN98       0.2629
     34  OD1       16.5870  -53.1460   25.9230 O.2    98  ASN98      -0.2716
     35  ND2       15.7840  -51.4570   24.6820 N.am   98  ASN98      -0.0877
     36  N         13.9300  -53.6950   29.4960 N.3   100  ARG100     -0.1245
     37  CA        12.8600  -54.6380   29.1860 C.3   100  ARG100      0.1563
     38  C         11.9740  -54.1540   28.0400 C.2   100  ARG100      0.2260
     39  O         10.7650  -53.9910   28.2030 O.2   100  ARG100     -0.2867
     40  CB        12.0120  -54.9000   30.4320 C.3   100  ARG100      0.0307
     41  CG        12.8000  -55.4640   31.6050 C.3   100  ARG100      0.0489
     42  CD        11.8870  -55.8240   32.7640 C.3   100  ARG100      0.2205
     43  NE        11.0300  -56.9660   32.4480 N.pl3 100  ARG100     -0.0865
     44  CZ         9.7350  -57.0540   32.7460 C.cat 100  ARG100      0.5346
     45  NH1        9.1080  -56.0690   33.3750 N.pl3 100  ARG100      0.1354
     46  NH2        9.0560  -58.1400   32.4080 N.pl3 100  ARG100      0.1354
     47  N         10.2040  -52.8730   35.5000 N.3   132  THR132     -0.1203
     48  CA        11.1930  -52.6200   36.5400 C.3   132  THR132      0.1994
     49  C         12.5580  -53.1840   36.1640 C.2   132  THR132      0.2618
     50  O         12.7070  -54.3880   35.9560 O.2   132  THR132     -0.2717
     51  CB        10.7590  -53.2410   37.8830 C.3   132  THR132      0.1784
     52  OG1        9.5270  -52.6480   38.3140 O.3   132  THR132     -0.2211
     53  CG2       11.8240  -53.0200   38.9490 C.3   132  THR132      0.0376
     54  N         13.5520  -52.3060   36.0780 N.am  133  CYS133     -0.1955
     55  CA        14.9270  -52.7210   35.8290 C.3   133  CYS133      0.1843
     56  C         15.7550  -52.5680   37.0960 C.2   133  CYS133      0.2625
     57  O         15.6860  -51.5420   37.7710 O.2   133  CYS133     -0.2714
     58  CB        15.5440  -51.8970   34.6980 C.3   133  CYS133      0.0997
     59  SG        15.1280  -52.4850   33.0410 S.3   133  CYS133     -0.0797
     60  N         16.5390  -53.5940   37.4120 N.am  134  LYS134     -0.1963
     61  CA        17.3370  -53.6040   38.6320 C.3   134  LYS134      0.1728
     62  C         18.8260  -53.7210   38.3280 C.2   134  LYS134      0.2617
     63  O         19.4120  -54.7980   38.4410 O.2   134  LYS134     -0.2715
     64  CB        16.8970  -54.7520   39.5430 C.3   134  LYS134      0.0311
     65  CG        15.5770  -54.5020   40.2540 C.3   134  LYS134      0.0038
     66  CD        15.1150  -55.7260   41.0260 C.3   134  LYS134      0.0206
     67  CE        13.9390  -55.4040   41.9340 C.3   134  LYS134      0.1093
     68  NZ        14.3310  -54.5370   43.0810 N.3   134  LYS134     -0.1314
     69  N         19.4320  -52.6000   37.9520 N.am  135  SER135     -0.1936
     70  CA        20.8550  -52.5580   37.6440 C.3   135  SER135      0.2055
     71  C         21.6350  -51.9460   38.7980 C.2   135  SER135      0.2642
     72  O         21.0500  -51.4300   39.7490 O.2   135  SER135     -0.2714
     73  CB        21.0900  -51.7330   36.3830 C.3   135  SER135      0.2130
     74  OG        20.4930  -50.4530   36.5000 O.3   135  SER135     -0.2179
     75  N         22.9600  -52.0010   38.7060 N.am  136  ILE136     -0.1977
     76  CA        23.8230  -51.4040   39.7200 C.3   136  ILE136      0.1596
     77  C         24.9750  -50.6340   39.0800 C.2   136  ILE136      0.2287
     78  O         25.6440  -51.1320   38.1720 O.2   136  ILE136     -0.2864
     79  CB        24.3830  -52.4670   40.6870 C.3   136  ILE136      0.0276
     80  CG1       24.8850  -53.6860   39.9090 C.3   136  ILE136      0.0022
     81  CG2       23.3180  -52.8780   41.6920 C.3   136  ILE136      0.0022
     82  CD1       25.4660  -54.7780   40.7850 C.3   136  ILE136      0.0001
@<TRIPOS>BOND
     1    35    33   am
     2    33    34    2
     3    33    32    1
     4    32    29    1
     5    29    28    1
     6    29    30    1
     7    28    19   am
     8    38    39    2
     9    38    37    1
    10    19    20    2
    11    19    18    1
    12    30    31    2
    13    17    18    1
    14    18    21    1
    15    37    36    1
    16    37    40    1
    17    21    22    1
    18    40    41    1
    19    22    24   ar
    20    22    23   ar
    21    24    26   ar
    22    41    42    1
    23    23    25   ar
    24    46    44    1
    25    43    44    2
    26    43    42    1
    27    26    27   ar
    28    44    45    1
    29    25    27   ar
    30    59    58    1
    31     7     6    1
    32     4     3    2
    33     6     5    1
    34     6     8    1
    35     5     2    1
    36     1     2    1
    37    16    14   am
    38    12    11    2
    39     3     2    1
    40     3     9   am
    41    13    14    1
    42    13    10    1
    43    58    55    1
    44    11    10    1
    45    14    15    2
    46    10     9    1
    47    47    48    1
    48    55    54    1
    49    55    56    1
    50    50    49    2
    51    54    49   am
    52    49    48    1
    53    73    74    1
    54    73    70    1
    55    48    51    1
    56    56    60   am
    57    56    57    2
    58    60    61    1
    59    70    69    1
    60    70    71    1
    61    51    52    1
    62    51    53    1
    63    69    62   am
    64    78    77    2
    65    62    63    2
    66    62    61    1
    67    61    64    1
    68    75    71   am
    69    75    76    1
    70    71    72    2
    71    77    76    1
    72    64    65    1
    73    76    79    1
    74    80    79    1
    75    80    82    1
    76    65    66    1
    77    79    81    1
    78    66    67    1
    79    67    68    1
