@<TRIPOS>MOLECULE
tmp/4jaoC00.pdb
 222 209 0 0 0
SMALL
GASTEIGER

@<TRIPOS>ATOM
      1  N        -17.8450   13.7010    2.9190 N.3    20  ILE20      -0.1245
      2  CA       -16.5520   13.0520    2.7910 C.3    20  ILE20       0.1561
      3  C        -16.6190   11.8790    1.8250 C.2    20  ILE20       0.2260
      4  O        -15.7700   11.7630    0.9280 O.2    20  ILE20      -0.2867
      5  CB       -16.0480   12.5550    4.1360 C.3    20  ILE20       0.0252
      6  CG1      -15.7700   13.7500    5.0410 C.3    20  ILE20       0.0019
      7  CG2      -14.7740   11.7230    3.9570 C.3    20  ILE20       0.0019
      8  CD1      -15.5840   13.3690    6.4840 C.3    20  ILE20       0.0001
      9  N        -14.7780   11.5150   -1.5950 N.3    24  PHE24      -0.1241
     10  CA       -13.7320   10.4780   -1.6000 C.3    24  PHE24       0.1605
     11  C        -13.9630    9.4780   -2.7260 C.2    24  PHE24       0.2264
     12  O        -13.0500    9.1150   -3.4750 O.2    24  PHE24      -0.2867
     13  CB       -13.7010    9.7820   -0.2280 C.3    24  PHE24       0.0534
     14  CG       -12.5630    8.8200   -0.0480 C.ar   24  PHE24      -0.0203
     15  CD1      -11.2510    9.2490   -0.1160 C.ar   24  PHE24      -0.0042
     16  CD2      -12.8110    7.4770    0.2020 C.ar   24  PHE24      -0.0042
     17  CE1      -10.2130    8.3500    0.0500 C.ar   24  PHE24      -0.0003
     18  CE2      -11.7790    6.5710    0.3600 C.ar   24  PHE24      -0.0003
     19  CZ       -10.4800    7.0010    0.2880 C.ar   24  PHE24      -0.0000
     20  N        -12.5060   10.5650   -5.8220 N.3    27  PHE27      -0.1241
     21  CA       -11.0500   10.8230   -5.8120 C.3    27  PHE27       0.1605
     22  C        -10.3370    9.9100   -6.8040 C.2    27  PHE27       0.2264
     23  O        -10.8070    8.8110   -7.0530 O.2    27  PHE27      -0.2867
     24  CB       -10.4400   10.6320   -4.4110 C.3    27  PHE27       0.0534
     25  CG       -10.7780   11.7310   -3.4390 C.ar   27  PHE27      -0.0203
     26  CD1      -11.6700   12.7430   -3.7930 C.ar   27  PHE27      -0.0042
     27  CD2      -10.2090   11.7520   -2.1810 C.ar   27  PHE27      -0.0042
     28  CE1      -12.0020   13.7560   -2.9080 C.ar   27  PHE27      -0.0003
     29  CE2      -10.5360   12.7600   -1.2750 C.ar   27  PHE27      -0.0003
     30  CZ       -11.4400   13.7670   -1.6500 C.ar   27  PHE27      -0.0000
     31  N        -16.2890   14.4970   10.2810 N.3    49  ARG49      -0.1245
     32  CA       -14.9100   14.5970   10.7410 C.3    49  ARG49       0.1563
     33  C        -14.3670   15.9510   10.3560 C.2    49  ARG49       0.2260
     34  O        -14.8180   16.5390    9.3710 O.2    49  ARG49      -0.2867
     35  CB       -14.0420   13.5110   10.1020 C.3    49  ARG49       0.0307
     36  CG       -14.2320   12.1340   10.7070 C.3    49  ARG49       0.0489
     37  CD       -13.5060   11.0670    9.9030 C.3    49  ARG49       0.2205
     38  NE       -14.2730   10.6660    8.7260 N.pl3  49  ARG49      -0.0865
     39  CZ       -13.7800    9.9350    7.7310 C.cat  49  ARG49       0.5346
     40  NH1      -12.5100    9.5370    7.7740 N.pl3  49  ARG49       0.1354
     41  NH2      -14.5420    9.6240    6.6910 N.pl3  49  ARG49       0.1354
     42  N        -11.1410   18.0440    9.0340 N.3    51  LEU51      -0.1245
     43  CA        -9.9450   17.7750    8.2620 C.3    51  LEU51       0.1561
     44  C         -9.0720   19.0290    8.2590 C.2    51  LEU51       0.2260
     45  O         -9.5650   20.1650    8.2590 O.2    51  LEU51      -0.2867
     46  CB       -10.2890   17.2740    6.8430 C.3    51  LEU51       0.0270
     47  CG       -11.2660   16.0860    6.7670 C.3    51  LEU51       0.0019
     48  CD1      -11.6260   15.7600    5.3160 C.3    51  LEU51       0.0001
     49  CD2      -10.7300   14.8330    7.4720 C.3    51  LEU51       0.0001
     50  N        -11.3420   19.4230    2.1390 N.3    55  LEU55      -0.1245
     51  CA       -11.6390   18.0960    1.5870 C.3    55  LEU55       0.1561
     52  C        -11.1170   17.8300    0.1750 C.2    55  LEU55       0.2260
     53  O        -10.5920   16.7490   -0.0760 O.2    55  LEU55      -0.2867
     54  CB       -13.1560   17.8150    1.6150 C.3    55  LEU55       0.0270
     55  CG       -13.6670   16.4830    1.0460 C.3    55  LEU55       0.0019
     56  CD1      -12.9110   15.3340    1.6790 C.3    55  LEU55       0.0001
     57  CD2      -15.1380   16.3440    1.3510 C.3    55  LEU55       0.0001
     58  N         -7.2690   16.8520   -0.7400 N.3    58  TYR58      -0.1241
     59  CA        -6.6560   15.5320   -0.5860 C.3    58  TYR58       0.1605
     60  C         -6.2040   14.8090   -1.8520 C.2    58  TYR58       0.2264
     61  O         -5.1370   14.1850   -1.8200 O.2    58  TYR58      -0.2867
     62  CB        -7.4840   14.6300    0.3250 C.3    58  TYR58       0.0534
     63  CG        -7.3910   15.1740    1.7140 C.ar   58  TYR58      -0.0201
     64  CD1       -6.3870   14.7600    2.5620 C.ar   58  TYR58      -0.0009
     65  CD2       -8.2500   16.1690    2.1440 C.ar   58  TYR58      -0.0009
     66  CE1       -6.2690   15.2920    3.8400 C.ar   58  TYR58       0.0417
     67  CE2       -8.1450   16.7080    3.4170 C.ar   58  TYR58       0.0417
     68  CZ        -7.1500   16.2730    4.2600 C.ar   58  TYR58       0.1957
     69  OH        -7.0450   16.8120    5.5390 O.3    58  TYR58      -0.2866
     70  N          1.1630    9.7880   15.9340 N.3   105  VAL105     -0.1231
     71  CA         1.5710    8.6370   15.1680 C.3   105  VAL105      0.1692
     72  C          1.4360    8.9160   13.6830 C.2   105  VAL105      0.2592
     73  O          1.7910    8.0820   12.8630 O.2   105  VAL105     -0.2718
     74  CB         0.8080    7.3530   15.5890 C.3   105  VAL105      0.0266
     75  CG1       -0.6260    7.3490   15.0470 C.3   105  VAL105      0.0020
     76  CG2        1.5610    6.1240   15.1200 C.3   105  VAL105      0.0020
     77  N          0.9470   10.1020   13.3290 N.am  106  THR106     -0.1953
     78  CA         0.5720   10.3490   11.9350 C.3   106  THR106      0.1897
     79  C          1.5260   11.3180   11.2590 C.2   106  THR106      0.2313
     80  O          1.2030   11.9220   10.2450 O.2   106  THR106     -0.2863
     81  CB        -0.8670   10.8700   11.8420 C.3   106  THR106      0.1794
     82  OG1       -1.0090   11.9800   12.7270 O.3   106  THR106     -0.2208
     83  CG2       -1.8510    9.8160   12.3080 C.3   106  THR106      0.0378
     84  N          0.7610    5.1510   18.9240 N.3   136  GLY136     -0.1210
     85  CA        -0.4950    5.1500   18.1880 C.3   136  GLY136      0.1956
     86  C         -1.6750    5.4320   19.0920 C.2   136  GLY136      0.2612
     87  O         -1.5580    6.2310   20.0330 O.2   136  GLY136     -0.2717
     88  N         -2.7940    4.7490   18.8490 N.am  137  CYS137     -0.1970
     89  CA        -4.0500    5.0610   19.5350 C.3   137  CYS137      0.1712
     90  C         -3.9930    4.8100   21.0390 C.2   137  CYS137      0.2296
     91  O         -4.9280    5.1590   21.7640 O.2   137  CYS137     -0.2864
     92  CB        -5.2170    4.2610   18.9700 C.3   137  CYS137      0.0983
     93  SG        -5.4030    4.2330   17.2040 S.3   137  CYS137     -0.0798
     94  N         -4.6350   12.3610   10.8220 N.3   167  CYS167     -0.1221
     95  CA        -4.6280   11.1000   10.0820 C.3   167  CYS167      0.1808
     96  C         -4.9080   11.3370    8.6160 C.2   167  CYS167      0.2601
     97  O         -4.4210   10.5820    7.7670 O.2   167  CYS167     -0.2717
     98  CB        -5.6550   10.1070   10.6550 C.3   167  CYS167      0.0970
     99  SG        -5.6280    9.9630   12.4700 S.3   167  CYS167     -0.0800
    100  N         -5.6770   12.3840    8.3020 N.am  168  SER168     -0.1952
    101  CA        -6.0060   12.6370    6.8970 C.3   168  SER168      0.1924
    102  C         -4.7190   12.8140    6.0860 C.2   168  SER168      0.2314
    103  O         -4.6610   12.4810    4.8960 O.2   168  SER168     -0.2863
    104  CB        -6.9440   13.8380    6.7530 C.3   168  SER168      0.2116
    105  OG        -6.2910   15.0590    7.0970 O.3   168  SER168     -0.2180
    106  N         -1.9700   11.1690    6.2030 N.3   170  THR170     -0.1203
    107  CA        -1.2420    9.9660    5.8360 C.3   170  THR170      0.1994
    108  C         -1.7810    9.5290    4.4920 C.2   170  THR170      0.2617
    109  O         -1.4660    8.4400    3.9990 O.2   170  THR170     -0.2717
    110  CB        -1.4720    8.8340    6.8250 C.3   170  THR170      0.1784
    111  OG1       -2.8550    8.4980    6.7940 O.3   170  THR170     -0.2211
    112  CG2       -1.0820    9.2580    8.2390 C.3   170  THR170      0.0376
    113  N         -2.6060   10.3880    3.9060 N.am  171  TYR171     -0.1975
    114  CA        -3.2450   10.1090    2.6340 C.3   171  TYR171      0.1639
    115  C         -2.3290    9.6200    1.5070 C.2   171  TYR171      0.2290
    116  O         -2.7370    8.7440    0.7460 O.2   171  TYR171     -0.2864
    117  CB        -4.0760   11.2990    2.1590 C.3   171  TYR171      0.0560
    118  CG        -4.9220   10.9190    0.9800 C.ar  171  TYR171     -0.0198
    119  CD1       -6.0370   10.1200    1.1540 C.ar  171  TYR171     -0.0009
    120  CD2       -4.5830   11.3110   -0.3060 C.ar  171  TYR171     -0.0009
    121  CE1       -6.8260    9.7430    0.0850 C.ar  171  TYR171      0.0417
    122  CE2       -5.3650   10.9300   -1.4020 C.ar  171  TYR171      0.0417
    123  CZ        -6.4850   10.1410   -1.1940 C.ar  171  TYR171      0.1957
    124  OH        -7.2830    9.7300   -2.2460 O.3   171  TYR171     -0.2866
    125  N         -2.3370    5.9440    1.2570 N.3   174  VAL174     -0.1245
    126  CA        -3.5740    5.1810    1.1420 C.3   174  VAL174      0.1561
    127  C         -3.8690    4.7080   -0.2850 C.2   174  VAL174      0.2260
    128  O         -3.7780    5.4530   -1.2640 O.2   174  VAL174     -0.2867
    129  CB        -4.8170    5.8670    1.7880 C.3   174  VAL174      0.0252
    130  CG1       -4.4650    6.5580    3.0600 C.3   174  VAL174      0.0019
    131  CG2       -5.4860    6.8030    0.8440 C.3   174  VAL174      0.0019
    132  N         -6.8640    0.1320    4.3720 N.3   180  SER180     -0.1217
    133  CA        -6.7500    1.5820    4.2830 C.3   180  SER180      0.1889
    134  C         -8.1110    2.2080    4.0500 C.2   180  SER180      0.2288
    135  O         -8.3700    3.3450    4.4630 O.2   180  SER180     -0.2866
    136  CB        -5.8120    1.9860    3.1570 C.3   180  SER180      0.2089
    137  OG        -4.4770    1.6340    3.4650 O.3   180  SER180     -0.2183
    138  N         -9.6840    2.7450    7.4540 N.3   183  GLY183     -0.1210
    139  CA        -9.1880    3.9190    8.1480 C.3   183  GLY183      0.1956
    140  C         -9.7290    5.2130    7.5690 C.2   183  GLY183      0.2612
    141  O         -9.8780    6.2070    8.2880 O.2   183  GLY183     -0.2717
    142  N        -10.0410    5.2050    6.2780 N.am  184  THR184     -0.1952
    143  CA       -10.5810    6.4090    5.6560 C.3   184  THR184      0.1897
    144  C        -12.0470    6.6120    6.0160 C.2   184  THR184      0.2313
    145  O        -12.5750    7.7200    5.8890 O.2   184  THR184     -0.2863
    146  CB       -10.4280    6.4220    4.1300 C.3   184  THR184      0.1794
    147  OG1      -10.9040    7.6840    3.6490 O.3   184  THR184     -0.2208
    148  CG2      -11.2770    5.3600    3.4830 C.3   184  THR184      0.0378
    149  N        -10.9300    7.5070   10.4910 N.3   187  PHE187     -0.1241
    150  CA        -9.9540    8.4380   11.0820 C.3   187  PHE187      0.1605
    151  C        -10.1270    9.9170   10.6920 C.2   187  PHE187      0.2264
    152  O        -10.3390   10.2440    9.5320 O.2   187  PHE187     -0.2867
    153  CB        -8.5140    7.9540   10.8100 C.3   187  PHE187      0.0534
    154  CG        -8.1320    6.7430   11.6050 C.ar  187  PHE187     -0.0203
    155  CD1       -7.6610    6.8710   12.8990 C.ar  187  PHE187     -0.0042
    156  CD2       -8.2800    5.4740   11.0780 C.ar  187  PHE187     -0.0042
    157  CE1       -7.3240    5.7520   13.6480 C.ar  187  PHE187     -0.0003
    158  CE2       -7.9390    4.3400   11.8200 C.ar  187  PHE187     -0.0003
    159  CZ        -7.4640    4.4800   13.1040 C.ar  187  PHE187     -0.0000
    160  N         -1.6440   -4.1840   14.3990 N.3   227  MET227     -0.1230
    161  CA        -1.9360   -2.7570   14.3870 C.3   227  MET227      0.1702
    162  C         -0.6210   -1.9820   14.2520 C.2   227  MET227      0.2593
    163  O          0.3540   -2.2890   14.9400 O.2   227  MET227     -0.2718
    164  CB        -2.6070   -2.4170   15.7320 C.3   227  MET227      0.0401
    165  CG        -2.9760   -0.9720   15.9600 C.3   227  MET227      0.0596
    166  SD        -4.7630   -0.7750   16.1020 S.3   227  MET227     -0.1393
    167  CE        -4.9560   -0.7500   17.8490 C.3   227  MET227      0.0692
    168  N         -0.5810   -0.9870   13.3760 N.am  228  GLY228     -0.1942
    169  CA         0.6340   -0.2120   13.2130 C.3   228  GLY228      0.2014
    170  C          0.8140    0.3820   11.8310 C.2   228  GLY228      0.2638
    171  O         -0.0900    0.3260   10.9860 O.2   228  GLY228     -0.2714
    172  N          1.9890    0.9550   11.5900 N.am  229  TRP229     -0.1973
    173  CA         2.2910    1.4730   10.2590 C.3   229  TRP229      0.1640
    174  C          3.1520    0.5050    9.4710 C.2   229  TRP229      0.2290
    175  O          4.0870   -0.1020   10.0090 O.2   229  TRP229     -0.2864
    176  CB         3.0670    2.7850   10.3380 C.3   229  TRP229      0.0576
    177  CG         2.3110    3.9920   10.8350 C.ar  229  TRP229      0.0006
    178  CD1        2.7400    4.8910   11.7740 C.ar  229  TRP229      0.0946
    179  CD2        1.0200    4.4470   10.4060 C.ar  229  TRP229      0.0152
    180  NE1        1.7960    5.8790   11.9530 N.ar  229  TRP229     -0.2442
    181  CE2        0.7340    5.6300   11.1310 C.ar  229  TRP229      0.0810
    182  CE3        0.0880    3.9880    9.4760 C.ar  229  TRP229      0.0012
    183  CZ2       -0.4560    6.3330   10.9630 C.ar  229  TRP229      0.0191
    184  CZ3       -1.0840    4.6880    9.3100 C.ar  229  TRP229      0.0001
    185  CH2       -1.3420    5.8540   10.0410 C.ar  229  TRP229      0.0015
    186  N          2.9100    6.6950    5.5410 N.3   236  LEU236     -0.1245
    187  CA         2.4940    5.8830    6.6590 C.3   236  LEU236      0.1561
    188  C          1.2570    5.0880    6.2730 C.2   236  LEU236      0.2260
    189  O          0.1730    5.6500    6.1940 O.2   236  LEU236     -0.2867
    190  CB         2.1960    6.8110    7.8410 C.3   236  LEU236      0.0270
    191  CG         3.3290    7.2300    8.7590 C.3   236  LEU236      0.0019
    192  CD1        4.6890    7.0440    8.1090 C.3   236  LEU236      0.0001
    193  CD2        3.1390    8.6650    9.2410 C.3   236  LEU236      0.0001
    194  N         -1.5590    2.1860    6.8890 N.3   238  LEU238     -0.1245
    195  CA        -2.1560    1.5150    8.0280 C.3   238  LEU238      0.1561
    196  C         -2.1000   -0.0070    7.9130 C.2   238  LEU238      0.2260
    197  O         -2.3530   -0.5690    6.8460 O.2   238  LEU238     -0.2867
    198  CB        -3.6080    1.9650    8.1930 C.3   238  LEU238      0.0270
    199  CG        -4.3860    1.3460    9.3510 C.3   238  LEU238      0.0019
    200  CD1       -3.8590    1.8460   10.6880 C.3   238  LEU238      0.0001
    201  CD2       -5.8650    1.6620    9.1850 C.3   238  LEU238      0.0001
    202  N         -3.9520   -3.1840    9.8460 N.3   240  LEU240     -0.1245
    203  CA        -5.1200   -3.3470   10.7200 C.3   240  LEU240      0.1561
    204  C         -5.6950   -4.7300   10.5170 C.2   240  LEU240      0.2260
    205  O         -6.4730   -4.9410    9.5870 O.2   240  LEU240     -0.2867
    206  CB        -6.1790   -2.3020   10.3430 C.3   240  LEU240      0.0270
    207  CG        -7.0980   -1.6730   11.3910 C.3   240  LEU240      0.0019
    208  CD1       -8.3740   -2.4800   11.5530 C.3   240  LEU240      0.0001
    209  CD2       -6.3620   -1.5300   12.7210 C.3   240  LEU240      0.0001
    210  N         -7.1800    8.8730   16.5170 N.3   311  SER311     -0.1217
    211  CA        -6.0920    8.1220   17.0920 C.3   311  SER311      0.1889
    212  C         -5.9160    8.4670   18.5410 C.2   311  SER311      0.2288
    213  O         -6.8390    8.4690   19.2740 O.2   311  SER311     -0.2866
    214  CB        -4.8180    8.3650   16.3460 C.3   311  SER311      0.2089
    215  OG        -3.9180    7.3810   16.6430 O.3   311  SER311     -0.2183
    216  N         -0.9110    0.0390   18.5920 N.3   340  PRO340     -0.2116
    217  CA         0.1630   -0.7920   18.0420 C.3   340  PRO340      0.1372
    218  C          0.9790   -1.4430   19.1400 C.2   340  PRO340      0.2244
    219  O          1.2190   -0.8270   20.1800 O.2   340  PRO340     -0.2868
    220  CB         1.0080    0.2230   17.2790 C.3   340  PRO340      0.0268
    221  CG        -0.0110    1.1780   16.7650 C.3   340  PRO340      0.0207
    222  CD        -1.0220    1.3280   17.8740 C.3   340  PRO340      0.0892
@<TRIPOS>BOND
     1    23    22    2
     2    22    21    1
     3    20    21    1
     4    21    24    1
     5    24    25    1
     6    26    25   ar
     7    26    28   ar
     8    12    11    2
     9    25    27   ar
    10    28    30   ar
    11    11    10    1
    12   124   123    1
    13    27    29   ar
    14    60    61    2
    15    60    59    1
    16    30    29   ar
    17    10     9    1
    18    10    13    1
    19   122   123   ar
    20   122   120   ar
    21   128   127    2
    22   123   121   ar
    23    58    59    1
    24    59    62    1
    25   120   118   ar
    26   127   126    1
    27    13    14    1
    28    15    14   ar
    29    15    17   ar
    30    53    52    2
    31    14    16   ar
    32    17    19   ar
    33   121   119   ar
    34    52    51    1
    35    16    18   ar
    36    19    18   ar
    37    62    63    1
    38   116   115    2
    39   131   129    1
    40     4     3    2
    41   118   119   ar
    42   118   117    1
    43    55    57    1
    44    55    54    1
    45    55    56    1
    46   126   125    1
    47   126   129    1
    48   115   114    1
    49    51    54    1
    50    51    50    1
    51    63    65   ar
    52    63    64   ar
    53   129   130    1
    54     3     2    1
    55    65    67   ar
    56   117   114    1
    57    64    66   ar
    58   114   113    1
    59     2     1    1
    60     2     5    1
    61   136   137    1
    62   136   133    1
    63    67    68   ar
    64   148   146    1
    65   147   146    1
    66    66    68   ar
    67   113   108   am
    68     7     5    1
    69   109   108    2
    70   134   133    1
    71   134   135    2
    72   146   143    1
    73     5     6    1
    74    68    69    1
    75   133   132    1
    76   108   107    1
    77   103   102    2
    78     6     8    1
    79    48    47    1
    80   186   187    1
    81   143   144    1
    82   143   142    1
    83   107   106    1
    84   107   110    1
    85   145   144    2
    86   102   101    1
    87   189   188    2
    88   188   187    1
    89   142   140   am
    90   187   190    1
    91    41    39    1
    92   104   101    1
    93   104   105    1
    94    47    46    1
    95    47    49    1
    96   111   110    1
    97   110   112    1
    98    46    43    1
    99   197   196    2
   100   194   195    1
   101   101   100    1
   102   138   139    1
   103   140   139    1
   104   140   141    2
   105    39    40    1
   106    39    38    2
   107    97    96    2
   108   190   191    1
   109   196   195    1
   110   195   198    1
   111   192   191    1
   112   198   199    1
   113    45    44    2
   114    44    43    1
   115    43    42    1
   116   100    96   am
   117    96    95    1
   118    38    37    1
   119   191   193    1
   120   201   199    1
   121   184   182   ar
   122   184   185   ar
   123   199   200    1
   124    34    33    2
   125   174   175    2
   126   174   173    1
   127   182   179   ar
   128   152   151    2
   129   205   204    2
   130   202   203    1
   131    37    36    1
   132   185   183   ar
   133    95    98    1
   134    95    94    1
   135    35    36    1
   136    35    32    1
   137    80    79    2
   138   173   176    1
   139   173   172    1
   140    31    32    1
   141   176   177    1
   142   206   203    1
   143   206   207    1
   144    33    32    1
   145   179   177   ar
   146   179   181   ar
   147   149   150    1
   148   204   203    1
   149    98    99    1
   150   151   150    1
   151   153   150    1
   152   153   154    1
   153   177   178   ar
   154   183   181   ar
   155   171   170    2
   156   156   154   ar
   157   156   158   ar
   158   181   180   ar
   159    79    78    1
   160   207   208    1
   161   207   209    1
   162   172   170   am
   163   154   155   ar
   164   178   180   ar
   165   158   159   ar
   166   170   169    1
   167    81    78    1
   168    81    83    1
   169    81    82    1
   170    78    77    1
   171    73    72    2
   172   155   157   ar
   173   159   157   ar
   174   169   168    1
   175    77    72   am
   176   168   162   am
   177    72    71    1
   178   162   161    1
   179   162   163    2
   180   161   160    1
   181   161   164    1
   182    75    74    1
   183    76    74    1
   184    71    74    1
   185    71    70    1
   186   164   165    1
   187   165   166    1
   188   166   167    1
   189   214   215    1
   190   214   211    1
   191   210   211    1
   192   221   220    1
   193   221   222    1
   194   211   212    1
   195    93    92    1
   196   220   217    1
   197   222   216    1
   198   217   216    1
   199   217   218    1
   200    85    84    1
   201    85    86    1
   202   212   213    2
   203    88    86   am
   204    88    89    1
   205    92    89    1
   206    86    87    2
   207   218   219    2
   208    89    90    1
   209    90    91    2
