@<TRIPOS>MOLECULE
tmp/4japB01.pdb
 188 178 0 0 0
SMALL
GASTEIGER

@<TRIPOS>ATOM
      1  N         40.3670  -19.5500  101.2840 N.3    37  ILE37      -0.1245
      2  CA        40.1110  -19.9040   99.8880 C.3    37  ILE37       0.1561
      3  C         39.9880  -18.6380   99.0240 C.2    37  ILE37       0.2260
      4  O         40.3590  -18.6460   97.8400 O.2    37  ILE37      -0.2867
      5  CB        38.8620  -20.8180   99.7350 C.3    37  ILE37       0.0252
      6  CG1       38.7850  -21.3950   98.3160 C.3    37  ILE37       0.0019
      7  CG2       37.5710  -20.0590  100.1060 C.3    37  ILE37       0.0019
      8  CD1       37.7410  -22.4930   98.1480 C.3    37  ILE37       0.0001
      9  N         43.4570  -17.4760   98.2180 N.3    40  ARG40      -0.1231
     10  CA        44.0600  -18.4130   97.2600 C.3    40  ARG40       0.1694
     11  C         43.5940  -18.1480   95.8250 C.2    40  ARG40       0.2591
     12  O         44.4150  -17.9750   94.9040 O.2    40  ARG40      -0.2718
     13  CB        43.7340  -19.8670   97.6580 C.3    40  ARG40       0.0321
     14  CG        44.4670  -20.9230   96.8480 C.3    40  ARG40       0.0489
     15  CD        43.9740  -22.3340   97.1840 C.3    40  ARG40       0.2205
     16  NE        43.8720  -22.5700   98.6310 N.pl3  40  ARG40      -0.0865
     17  CZ        42.8250  -23.1410   99.2260 C.cat  40  ARG40       0.5346
     18  NH1       42.8230  -23.3100  100.5440 N.pl3  40  ARG40       0.1354
     19  NH2       41.7820  -23.5430   98.5020 N.pl3  40  ARG40       0.1354
     20  N         42.2680  -18.1210   95.6610 N.am   41  LEU41      -0.1980
     21  CA        41.6090  -17.8290   94.3840 C.3    41  LEU41       0.1596
     22  C         42.0010  -16.4650   93.7950 C.2    41  LEU41       0.2287
     23  O         42.2470  -16.3420   92.5900 O.2    41  LEU41      -0.2864
     24  CB        40.0760  -17.9140   94.5410 C.3    41  LEU41       0.0297
     25  CG        39.3620  -19.2390   94.2280 C.3    41  LEU41       0.0022
     26  CD1       40.3180  -20.4290   94.2980 C.3    41  LEU41       0.0001
     27  CD2       38.1570  -19.4620   95.1620 C.3    41  LEU41       0.0001
     28  N         45.5450  -16.6180   92.6690 N.3    44  ALA44      -0.1231
     29  CA        45.6920  -17.5210   91.5250 C.3    44  ALA44       0.1694
     30  C         45.0880  -16.9530   90.2470 C.2    44  ALA44       0.2591
     31  O         45.3310  -17.4850   89.1500 O.2    44  ALA44      -0.2718
     32  CB        45.0910  -18.8830   91.8350 C.3    44  ALA44       0.0304
     33  N         44.3110  -15.8740   90.4020 N.am   45  ALA45      -0.1980
     34  CA        43.5560  -15.2520   89.3130 C.3    45  ALA45       0.1597
     35  C         44.4350  -14.5150   88.2890 C.2    45  ALA45       0.2287
     36  O         43.9970  -14.2660   87.1580 O.2    45  ALA45      -0.2864
     37  CB        42.5090  -14.3090   89.8770 C.3    45  ALA45       0.0319
     38  N         30.4370  -13.5710   77.6600 N.3   138  CYS138     -0.1235
     39  CA        31.8620  -13.3540   77.3630 C.3   138  CYS138      0.1677
     40  C         32.2060  -13.3910   75.8650 C.2   138  CYS138      0.2270
     41  O         33.3050  -12.9910   75.4630 O.2   138  CYS138     -0.2867
     42  CB        32.7110  -14.4060   78.0810 C.3   138  CYS138      0.0956
     43  SG        32.6740  -14.3700   79.8840 S.3   138  CYS138     -0.0801
     44  N         32.0690  -21.9540   96.0150 N.3   179  VAL179     -0.1231
     45  CA        33.2780  -21.8970   95.1820 C.3   179  VAL179      0.1692
     46  C         33.1130  -21.1150   93.8670 C.2   179  VAL179      0.2592
     47  O         33.8280  -20.1300   93.6510 O.2   179  VAL179     -0.2718
     48  CB        33.9390  -23.2750   94.9720 C.3   179  VAL179      0.0266
     49  CG1       35.2030  -23.1420   94.1290 C.3   179  VAL179      0.0020
     50  CG2       34.2790  -23.8800   96.3220 C.3   179  VAL179      0.0020
     51  N         32.1520  -21.4950   93.0300 N.am  180  SER180     -0.1952
     52  CA        31.9810  -20.8290   91.7340 C.3   180  SER180      0.1924
     53  C         31.8020  -19.3130   91.8090 C.2   180  SER180      0.2314
     54  O         32.4640  -18.5670   91.0670 O.2   180  SER180     -0.2863
     55  CB        30.8560  -21.4670   90.9360 C.3   180  SER180      0.2116
     56  OG        31.4150  -22.2040   89.8670 O.3   180  SER180     -0.2180
     57  N         35.1080  -17.8810   92.7960 N.3   183  VAL183     -0.1245
     58  CA        35.9580  -17.8200   91.6200 C.3   183  VAL183      0.1561
     59  C         35.6720  -16.4960   90.9260 C.2   183  VAL183      0.2260
     60  O         36.5920  -15.7450   90.5930 O.2   183  VAL183     -0.2867
     61  CB        35.7240  -19.0030   90.6580 C.3   183  VAL183      0.0252
     62  CG1       36.1090  -18.6110   89.2380 C.3   183  VAL183      0.0019
     63  CG2       36.5210  -20.2210   91.1110 C.3   183  VAL183      0.0019
     64  N         37.1950  -13.3550   92.0450 N.3   186  ALA186     -0.1231
     65  CA        38.6490  -13.3190   91.8050 C.3   186  ALA186      0.1694
     66  C         39.0240  -12.7360   90.4350 C.2   186  ALA186      0.2592
     67  O         40.1070  -12.1620   90.2600 O.2   186  ALA186     -0.2718
     68  CB        39.2720  -14.7120   91.9780 C.3   186  ALA186      0.0304
     69  N         38.1220  -12.8710   89.4710 N.am  187  LEU187     -0.1966
     70  CA        38.4390  -12.5430   88.0860 C.3   187  LEU187      0.1728
     71  C         37.7640  -11.2760   87.5450 C.2   187  LEU187      0.2616
     72  O         38.4000  -10.4610   86.8700 O.2   187  LEU187     -0.2715
     73  CB        38.0450  -13.7280   87.1990 C.3   187  LEU187      0.0311
     74  CG        38.8750  -14.9730   87.4740 C.3   187  LEU187      0.0022
     75  CD1       38.3030  -16.1970   86.7440 C.3   187  LEU187      0.0001
     76  CD2       40.3300  -14.7010   87.0670 C.3   187  LEU187      0.0001
     77  N         36.4760  -11.1190   87.8390 N.am  188  PHE188     -0.1974
     78  CA        35.6540  -10.1340   87.1530 C.3   188  PHE188      0.1639
     79  C         35.7350   -8.7060   87.6750 C.2   188  PHE188      0.2290
     80  O         35.6500   -8.4700   88.8840 O.2   188  PHE188     -0.2864
     81  CB        34.2060  -10.6340   87.0860 C.3   188  PHE188      0.0560
     82  CG        34.0510  -11.8250   86.1940 C.ar  188  PHE188     -0.0200
     83  CD1       34.0490  -11.6640   84.8020 C.ar  188  PHE188     -0.0042
     84  CD2       34.0090  -13.1130   86.7270 C.ar  188  PHE188     -0.0042
     85  CE1       33.9520  -12.7810   83.9390 C.ar  188  PHE188     -0.0003
     86  CE2       33.9080  -14.2420   85.8890 C.ar  188  PHE188     -0.0003
     87  CZ        33.8830  -14.0770   84.4900 C.ar  188  PHE188     -0.0000
     88  N         28.3850  -22.7530   81.3600 N.3   228  MET228     -0.1245
     89  CA        28.4310  -21.3510   81.7990 C.3   228  MET228      0.1570
     90  C         27.0840  -20.6280   81.6540 C.2   228  MET228      0.2261
     91  O         26.2400  -21.0480   80.8740 O.2   228  MET228     -0.2867
     92  CB        29.5110  -20.5920   81.0300 C.3   228  MET228      0.0387
     93  CG        30.2870  -19.5910   81.8750 C.3   228  MET228      0.0595
     94  SD        31.4350  -18.6030   80.8880 S.3   228  MET228     -0.1393
     95  CE        31.8420  -19.7550   79.5750 C.3   228  MET228      0.0692
     96  N         29.4120  -21.7360   86.7260 N.3   241  LEU241     -0.1231
     97  CA        30.7060  -21.9490   86.0860 C.3   241  LEU241      0.1693
     98  C         31.2610  -23.3170   86.4620 C.2   241  LEU241      0.2593
     99  O         31.8450  -23.4880   87.5340 O.2   241  LEU241     -0.2718
    100  CB        31.7060  -20.8710   86.5080 C.3   241  LEU241      0.0284
    101  CG        32.7870  -20.4260   85.5160 C.3   241  LEU241      0.0019
    102  CD1       34.0920  -20.0800   86.2420 C.3   241  LEU241      0.0001
    103  CD2       33.0220  -21.4510   84.3950 C.3   241  LEU241      0.0001
    104  N         31.0770  -24.2800   85.5690 N.am  242  SER242     -0.1939
    105  CA        31.6340  -25.6130   85.7320 C.3   242  SER242      0.2040
    106  C         33.1650  -25.6140   85.5920 C.2   242  SER242      0.2485
    107  O         33.7320  -24.8460   84.8000 O.2   242  SER242     -0.2729
    108  CB        31.0070  -26.5500   84.6930 C.3   242  SER242      0.2129
    109  OG        31.6080  -27.8250   84.7190 O.3   242  SER242     -0.2179
    110  N         33.8400  -26.4550   86.3950 N.am  243  PRO243     -0.2726
    111  CA        35.2740  -26.7380   86.2250 C.3   243  PRO243      0.1402
    112  C         35.5800  -27.4300   84.8820 C.2   243  PRO243      0.2269
    113  O         36.6850  -27.2870   84.3450 O.2   243  PRO243     -0.2865
    114  CB        35.5840  -27.6980   87.3850 C.3   243  PRO243      0.0296
    115  CG        34.5170  -27.4250   88.4180 C.3   243  PRO243      0.0237
    116  CD        33.2880  -27.0450   87.6330 C.3   243  PRO243      0.0939
    117  N         34.8700  -26.8080   81.9440 N.3   245  LEU245     -0.1231
    118  CA        35.0570  -25.8820   80.8230 C.3   245  LEU245      0.1693
    119  C         36.3850  -26.0490   80.0690 C.2   245  LEU245      0.2592
    120  O         36.4000  -26.1570   78.8390 O.2   245  LEU245     -0.2718
    121  CB        34.9290  -24.4360   81.3150 C.3   245  LEU245      0.0284
    122  CG        34.9440  -23.3190   80.2610 C.3   245  LEU245      0.0019
    123  CD1       34.0220  -22.2010   80.7140 C.3   245  LEU245      0.0001
    124  CD2       36.3440  -22.7640   80.0180 C.3   245  LEU245      0.0001
    125  N         37.4900  -26.0590   80.8160 N.am  246  THR246     -0.1953
    126  CA        38.8330  -26.1260   80.2370 C.3   246  THR246      0.1897
    127  C         39.0030  -27.3610   79.3460 C.2   246  THR246      0.2313
    128  O         39.6050  -27.2820   78.2660 O.2   246  THR246     -0.2863
    129  CB        39.9380  -26.0730   81.3440 C.3   246  THR246      0.1794
    130  OG1       39.6690  -24.9870   82.2500 O.3   246  THR246     -0.2208
    131  CG2       41.3280  -25.8990   80.7330 C.3   246  THR246      0.0378
    132  N         40.0260  -13.6960   74.2010 N.3   277  HIS277     -0.1241
    133  CA        39.3250  -13.3280   75.4250 C.3   277  HIS277      0.1621
    134  C         40.0300  -13.9410   76.6340 C.2   277  HIS277      0.2264
    135  O         40.3250  -15.1470   76.6350 O.2   277  HIS277     -0.2867
    136  CB        37.8600  -13.7690   75.4070 C.3   277  HIS277      0.0745
    137  CG        37.1970  -13.6640   76.7470 C.ar  277  HIS277      0.0817
    138  ND1       36.7490  -12.4630   77.2660 N.ar  277  HIS277     -0.2268
    139  CD2       36.9330  -14.6040   77.6900 C.ar  277  HIS277      0.1154
    140  CE1       36.2330  -12.6720   78.4670 C.ar  277  HIS277      0.1986
    141  NE2       36.3270  -13.9610   78.7460 N.ar  277  HIS277     -0.2212
    142  N         39.5710  -15.1790   79.7790 N.3   279  GLY279     -0.1210
    143  CA        38.6600  -15.7690   80.7440 C.3   279  GLY279      0.1956
    144  C         39.2750  -16.0780   82.1000 C.2   279  GLY279      0.2612
    145  O         38.6050  -15.9990   83.1320 O.2   279  GLY279     -0.2717
    146  N         40.5560  -16.4260   82.0940 N.am  280  GLY280     -0.1942
    147  CA        41.2560  -16.8450   83.2920 C.3   280  GLY280      0.1998
    148  C         42.4840  -17.6560   82.9150 C.2   280  GLY280      0.2481
    149  O         42.5690  -18.1660   81.7950 O.2   280  GLY280     -0.2729
    150  N         43.4430  -17.7820   83.8480 N.am  281  PRO281     -0.2715
    151  CA        44.7320  -18.4340   83.5570 C.3   281  PRO281      0.1536
    152  C         44.5850  -19.8250   82.9250 C.2   281  PRO281      0.2598
    153  O         45.2080  -20.0850   81.8890 O.2   281  PRO281     -0.2715
    154  CB        45.3960  -18.5130   84.9330 C.3   281  PRO281      0.0310
    155  CG        44.8250  -17.3330   85.6700 C.3   281  PRO281      0.0237
    156  CD        43.3830  -17.2680   85.2300 C.3   281  PRO281      0.0939
    157  N         43.7560  -20.6860   83.5120 N.am  282  LYS282     -0.1964
    158  CA        43.5480  -22.0360   82.9740 C.3   282  LYS282      0.1728
    159  C         42.9940  -22.0180   81.5460 C.2   282  LYS282      0.2616
    160  O         43.4090  -22.8240   80.7010 O.2   282  LYS282     -0.2715
    161  CB        42.6360  -22.8560   83.8920 C.3   282  LYS282      0.0311
    162  CG        43.0560  -22.8270   85.3580 C.3   282  LYS282      0.0038
    163  CD        42.5390  -24.0640   86.0850 C.3   282  LYS282      0.0206
    164  CE        43.6650  -25.0560   86.3920 C.3   282  LYS282      0.1093
    165  NZ        43.1610  -26.4690   86.4380 N.3   282  LYS282     -0.1314
    166  N         42.0640  -21.0950   81.2940 N.am  283  VAL283     -0.1977
    167  CA        41.4970  -20.8870   79.9630 C.3   283  VAL283      0.1596
    168  C         42.5460  -20.3930   78.9540 C.2   283  VAL283      0.2287
    169  O         42.7310  -21.0150   77.9010 O.2   283  VAL283     -0.2864
    170  CB        40.2830  -19.9060   79.9920 C.3   283  VAL283      0.0276
    171  CG1       39.7640  -19.6450   78.5930 C.3   283  VAL283      0.0022
    172  CG2       39.1780  -20.4570   80.8700 C.3   283  VAL283      0.0022
    173  N         39.0420   -9.6490   84.2530 N.3   310  ASN310     -0.1240
    174  CA        38.1160  -10.1030   83.2230 C.3   310  ASN310      0.1653
    175  C         36.9090   -9.1560   83.1260 C.2   310  ASN310      0.2266
    176  O         36.2010   -8.9550   84.1190 O.2   310  ASN310     -0.2867
    177  CB        37.6500  -11.5150   83.5870 C.3   310  ASN310      0.1155
    178  CG        36.8030  -12.1660   82.5010 C.2   310  ASN310      0.2627
    179  OD1       36.0890  -11.4930   81.7330 O.2   310  ASN310     -0.2716
    180  ND2       36.8590  -13.4960   82.4490 N.am  310  ASN310     -0.0877
    181  N         35.0340  -16.8700   73.8800 N.3   339  MET339     -0.1245
    182  CA        34.1680  -17.9960   74.2500 C.3   339  MET339      0.1570
    183  C         33.2690  -17.6580   75.4530 C.2   339  MET339      0.2261
    184  O         33.6210  -16.8100   76.2810 O.2   339  MET339     -0.2867
    185  CB        34.9990  -19.2590   74.4920 C.3   339  MET339      0.0387
    186  CG        35.7560  -19.3070   75.8260 C.3   339  MET339      0.0595
    187  SD        37.0920  -18.0970   76.0560 S.3   339  MET339     -0.1393
    188  CE        38.3040  -18.6530   74.8450 C.3   339  MET339      0.0692
@<TRIPOS>BOND
     1   181   182    1
     2   132   133    1
     3   182   185    1
     4   182   183    1
     5   185   186    1
     6   188   187    1
     7   136   133    1
     8   136   137    1
     9   133   134    1
    10   183   184    2
    11    41    40    2
    12   186   187    1
    13    40    39    1
    14   134   135    2
    15   137   138   ar
    16   137   139   ar
    17   138   140   ar
    18    39    38    1
    19    39    42    1
    20   139   141   ar
    21   169   168    2
    22    42    43    1
    23   128   127    2
    24   140   141   ar
    25   171   170    1
    26   120   119    2
    27   168   167    1
    28   127   126    1
    29    95    94    1
    30   142   143    1
    31   167   170    1
    32   167   166    1
    33   170   172    1
    34   124   122    1
    35   119   125   am
    36   119   118    1
    37   126   125    1
    38   126   129    1
    39   122   123    1
    40   122   121    1
    41   160   159    2
    42   131   129    1
    43   143   144    1
    44   118   121    1
    45   118   117    1
    46    91    90    2
    47    94    93    1
    48    92    89    1
    49    92    93    1
    50   166   159   am
    51   129   130    1
    52    88    89    1
    53   159   158    1
    54    90    89    1
    55   179   178    2
    56   149   148    2
    57   153   152    2
    58   146   144   am
    59   146   147    1
    60   144   145    2
    61   180   178   am
    62   178   177    1
    63   148   147    1
    64   148   150   am
    65   152   157   am
    66   152   151    1
    67   158   157    1
    68   158   161    1
    69   175   174    1
    70   175   176    2
    71   174   177    1
    72   174   173    1
    73   151   150    1
    74   151   154    1
    75   150   156    1
    76   161   162    1
    77    85    87   ar
    78    85    83   ar
    79   113   112    2
    80   103   101    1
    81    87    86   ar
    82   108   109    1
    83   108   105    1
    84   107   106    2
    85    83    82   ar
    86   112   111    1
    87   154   155    1
    88   156   155    1
    89   162   163    1
    90   101   102    1
    91   101   100    1
    92   104   105    1
    93   104    98   am
    94   106   105    1
    95   106   110   am
    96    86    84   ar
    97   163   164    1
    98    97    98    1
    99    97   100    1
   100    97    96    1
   101    82    84   ar
   102    82    81    1
   103   111   110    1
   104   111   114    1
   105   164   165    1
   106   110   116    1
   107    98    99    2
   108    75    74    1
   109    72    71    2
   110    76    74    1
   111    81    78    1
   112    78    79    1
   113    78    77    1
   114    36    35    2
   115    73    74    1
   116    73    70    1
   117   114   115    1
   118    71    77   am
   119    71    70    1
   120   116   115    1
   121    79    80    2
   122    70    69    1
   123    35    34    1
   124    31    30    2
   125    62    61    1
   126    34    37    1
   127    34    33    1
   128    69    66   am
   129    56    55    1
   130    30    33   am
   131    30    29    1
   132    67    66    2
   133    66    65    1
   134    60    59    2
   135    61    63    1
   136    61    58    1
   137    59    58    1
   138    55    52    1
   139    54    53    2
   140    29    32    1
   141    29    28    1
   142    58    57    1
   143    52    53    1
   144    52    51    1
   145    65    68    1
   146    65    64    1
   147    23    22    2
   148    51    46   am
   149    47    46    2
   150    22    21    1
   151    46    45    1
   152    49    48    1
   153    25    26    1
   154    25    24    1
   155    25    27    1
   156    21    24    1
   157    21    20    1
   158    12    11    2
   159    48    45    1
   160    48    50    1
   161    45    44    1
   162    20    11   am
   163    11    10    1
   164    14    15    1
   165    14    13    1
   166    15    16    1
   167    10    13    1
   168    10     9    1
   169     4     3    2
   170     8     6    1
   171     6     5    1
   172    19    17    1
   173    16    17    2
   174     3     2    1
   175    17    18    1
   176     5     2    1
   177     5     7    1
   178     2     1    1
