@<TRIPOS>MOLECULE
tmp/4japC00.pdb
 206 195 0 0 0
SMALL
GASTEIGER

@<TRIPOS>ATOM
      1  N        -18.0960   13.7510    3.1960 N.3    20  ILE20      -0.1245
      2  CA       -16.8040   13.0460    3.0790 C.3    20  ILE20       0.1561
      3  C        -16.8990   11.8590    2.0950 C.2    20  ILE20       0.2260
      4  O        -16.1780   11.8200    1.0850 O.2    20  ILE20      -0.2867
      5  CB       -16.2850   12.5930    4.4580 C.3    20  ILE20       0.0252
      6  CG1      -15.9840   13.8100    5.3420 C.3    20  ILE20       0.0019
      7  CG2      -15.0020   11.8150    4.3370 C.3    20  ILE20       0.0019
      8  CD1      -15.5600   13.4440    6.7360 C.3    20  ILE20       0.0001
      9  N        -15.1780   11.4190   -1.4420 N.3    24  PHE24      -0.1241
     10  CA       -14.1570   10.3670   -1.4750 C.3    24  PHE24       0.1605
     11  C        -14.3150    9.3610   -2.6320 C.2    24  PHE24       0.2264
     12  O        -13.3370    9.0150   -3.3030 O.2    24  PHE24      -0.2867
     13  CB       -14.1420    9.6360   -0.1430 C.3    24  PHE24       0.0534
     14  CG       -12.9410    8.7730    0.0620 C.ar   24  PHE24      -0.0203
     15  CD1      -11.6730    9.2570   -0.2030 C.ar   24  PHE24      -0.0042
     16  CD2      -13.0800    7.4750    0.5340 C.ar   24  PHE24      -0.0042
     17  CE1      -10.5670    8.4570   -0.0060 C.ar   24  PHE24      -0.0003
     18  CE2      -11.9870    6.6690    0.7230 C.ar   24  PHE24      -0.0003
     19  CZ       -10.7200    7.1540    0.4650 C.ar   24  PHE24      -0.0000
     20  N        -12.7830   10.4390   -5.8570 N.3    27  PHE27      -0.1241
     21  CA       -11.3250   10.6660   -5.9540 C.3    27  PHE27       0.1605
     22  C        -10.7110    9.7680   -7.0330 C.2    27  PHE27       0.2264
     23  O        -11.2870    8.7330   -7.3630 O.2    27  PHE27      -0.2867
     24  CB       -10.6180   10.3980   -4.6120 C.3    27  PHE27       0.0534
     25  CG       -10.8540   11.4620   -3.5700 C.ar   27  PHE27      -0.0203
     26  CD1      -11.7890   12.4720   -3.7770 C.ar   27  PHE27      -0.0042
     27  CD2      -10.1470   11.4440   -2.3880 C.ar   27  PHE27      -0.0042
     28  CE1      -12.0120   13.4550   -2.8090 C.ar   27  PHE27      -0.0003
     29  CE2      -10.3620   12.4180   -1.4010 C.ar   27  PHE27      -0.0003
     30  CZ       -11.3010   13.4200   -1.6210 C.ar   27  PHE27      -0.0000
     31  N        -16.5010   14.8530   10.7820 N.3    49  ARG49      -0.1245
     32  CA       -15.0650   14.8500   11.0670 C.3    49  ARG49       0.1563
     33  C        -14.4830   16.1700   10.6510 C.2    49  ARG49       0.2260
     34  O        -14.9380   16.7790    9.6830 O.2    49  ARG49      -0.2867
     35  CB       -14.3480   13.7280   10.2930 C.3    49  ARG49       0.0307
     36  CG       -14.3210   12.3610   11.0070 C.3    49  ARG49       0.0489
     37  CD       -13.5890   11.2940   10.1740 C.3    49  ARG49       0.2205
     38  NE       -14.3660   10.7780    9.0440 N.pl3  49  ARG49      -0.0865
     39  CZ       -13.8740    9.9840    8.0860 C.cat  49  ARG49       0.5346
     40  NH1      -12.5960    9.6380    8.0950 N.pl3  49  ARG49       0.1354
     41  NH2      -14.6570    9.5370    7.1140 N.pl3  49  ARG49       0.1354
     42  N        -11.1760   18.1150    9.2070 N.3    51  LEU51      -0.1245
     43  CA        -9.9830   17.8360    8.4190 C.3    51  LEU51       0.1561
     44  C         -9.0800   19.0570    8.4100 C.2    51  LEU51       0.2260
     45  O         -9.5490   20.1940    8.3990 O.2    51  LEU51      -0.2867
     46  CB       -10.3600   17.4520    6.9770 C.3    51  LEU51       0.0270
     47  CG       -11.3410   16.2950    6.8010 C.3    51  LEU51       0.0019
     48  CD1      -11.5960   16.1040    5.3170 C.3    51  LEU51       0.0001
     49  CD2      -10.7970   15.0110    7.4250 C.3    51  LEU51       0.0001
     50  N        -11.4850   19.3980    2.0350 N.3    55  LEU55      -0.1245
     51  CA       -11.7410   18.0250    1.6090 C.3    55  LEU55       0.1561
     52  C        -11.2640   17.7110    0.1920 C.2    55  LEU55       0.2260
     53  O        -10.7510   16.6280   -0.0600 O.2    55  LEU55      -0.2867
     54  CB       -13.2580   17.7320    1.7030 C.3    55  LEU55       0.0270
     55  CG       -13.8790   16.4350    1.1630 C.3    55  LEU55       0.0019
     56  CD1      -13.3940   15.2350    1.9200 C.3    55  LEU55       0.0001
     57  CD2      -15.3770   16.5600    1.3620 C.3    55  LEU55       0.0001
     58  N         -7.2920   16.7690   -0.8300 N.3    58  TYR58      -0.1241
     59  CA        -6.6440   15.4740   -0.6400 C.3    58  TYR58       0.1605
     60  C         -6.2020   14.7380   -1.9290 C.2    58  TYR58       0.2264
     61  O         -5.1190   14.1520   -1.9440 O.2    58  TYR58      -0.2867
     62  CB        -7.4510   14.5730    0.3190 C.3    58  TYR58       0.0534
     63  CG        -7.3600   15.1270    1.7030 C.ar   58  TYR58      -0.0201
     64  CD1       -6.3370   14.7430    2.5500 C.ar   58  TYR58      -0.0009
     65  CD2       -8.2540   16.1020    2.1400 C.ar   58  TYR58      -0.0009
     66  CE1       -6.2080   15.3050    3.8260 C.ar   58  TYR58       0.0417
     67  CE2       -8.1470   16.6670    3.4150 C.ar   58  TYR58       0.0417
     68  CZ        -7.1400   16.2700    4.2540 C.ar   58  TYR58       0.1957
     69  OH        -7.0320   16.8480    5.5260 O.3    58  TYR58      -0.2866
     70  N          1.3060    9.9700   16.2710 N.3   105  VAL105     -0.1231
     71  CA         1.6210    8.8020   15.4810 C.3   105  VAL105      0.1692
     72  C          1.5630    9.0680   13.9750 C.2   105  VAL105      0.2592
     73  O          1.8680    8.1800   13.1930 O.2   105  VAL105     -0.2718
     74  CB         0.7450    7.5740   15.8960 C.3   105  VAL105      0.0266
     75  CG1       -0.6770    7.6790   15.3450 C.3   105  VAL105      0.0020
     76  CG2        1.4040    6.2640   15.4850 C.3   105  VAL105      0.0020
     77  N          1.1830   10.2830   13.5740 N.am  106  THR106     -0.1953
     78  CA         0.7890   10.5490   12.1890 C.3   106  THR106      0.1897
     79  C          1.7140   11.4700   11.3970 C.2   106  THR106      0.2313
     80  O          1.3660   11.8870   10.2930 O.2   106  THR106     -0.2863
     81  CB        -0.6310   11.1640   12.1140 C.3   106  THR106      0.1794
     82  OG1       -0.8100   12.0600   13.2160 O.3   106  THR106     -0.2208
     83  CG2       -1.6960   10.0940   12.2070 C.3   106  THR106      0.0378
     84  N          0.7430    5.3720   19.4200 N.3   136  GLY136     -0.1210
     85  CA        -0.5030    5.3160   18.6790 C.3   136  GLY136      0.1956
     86  C         -1.7270    5.6170   19.5300 C.2   136  GLY136      0.2612
     87  O         -1.6680    6.4750   20.4270 O.2   136  GLY136     -0.2717
     88  N         -2.8210    4.8900   19.2840 N.am  137  CYS137     -0.1970
     89  CA        -4.1080    5.1670   19.9520 C.3   137  CYS137      0.1712
     90  C         -4.0820    4.9860   21.4700 C.2   137  CYS137      0.2296
     91  O         -5.0460    5.3430   22.1540 O.2   137  CYS137     -0.2864
     92  CB        -5.2250    4.2820   19.3930 C.3   137  CYS137      0.0983
     93  SG        -5.5610    4.5010   17.6630 S.3   137  CYS137     -0.0798
     94  N         -4.5230   12.4060   11.1890 N.3   167  CYS167     -0.1221
     95  CA        -4.6480   11.1840   10.4090 C.3   167  CYS167      0.1808
     96  C         -4.8270   11.4200    8.9150 C.2   167  CYS167      0.2601
     97  O         -4.3010   10.6430    8.1220 O.2   167  CYS167     -0.2717
     98  CB        -5.7980   10.3220   10.9380 C.3   167  CYS167      0.0970
     99  SG        -5.6250    9.9020   12.6920 S.3   167  CYS167     -0.0800
    100  N         -5.5440   12.4760    8.5220 N.am  168  SER168     -0.1952
    101  CA        -5.8520   12.6750    7.0960 C.3   168  SER168      0.1924
    102  C         -4.6090   12.9180    6.2500 C.2   168  SER168      0.2314
    103  O         -4.5800   12.5840    5.0610 O.2   168  SER168     -0.2863
    104  CB        -6.8720   13.7770    6.8610 C.3   168  SER168      0.2116
    105  OG        -6.2900   15.0510    7.0610 O.3   168  SER168     -0.2180
    106  N         -1.9600   11.2960    6.2680 N.3   170  THR170     -0.1203
    107  CA        -1.2580   10.0690    5.9040 C.3   170  THR170      0.1994
    108  C         -1.7580    9.6040    4.5490 C.2   170  THR170      0.2617
    109  O         -1.3980    8.5240    4.0620 O.2   170  THR170     -0.2717
    110  CB        -1.4700    8.9470    6.9250 C.3   170  THR170      0.1784
    111  OG1       -2.8150    8.4600    6.8150 O.3   170  THR170     -0.2211
    112  CG2       -1.1610    9.4240    8.3710 C.3   170  THR170      0.0376
    113  N         -2.5930   10.4290    3.9260 N.am  171  TYR171     -0.1975
    114  CA        -3.2090   10.0510    2.6710 C.3   171  TYR171      0.1639
    115  C         -2.2830    9.6830    1.4990 C.2   171  TYR171      0.2290
    116  O         -2.7260    8.9770    0.5800 O.2   171  TYR171     -0.2864
    117  CB        -4.1980   11.1250    2.2010 C.3   171  TYR171      0.0560
    118  CG        -5.0670   10.6500    1.0860 C.ar  171  TYR171     -0.0198
    119  CD1       -6.1180    9.7730    1.3270 C.ar  171  TYR171     -0.0009
    120  CD2       -4.8430   11.0660   -0.2180 C.ar  171  TYR171     -0.0009
    121  CE1       -6.9340    9.3290    0.3050 C.ar  171  TYR171      0.0417
    122  CE2       -5.6340   10.6190   -1.2570 C.ar  171  TYR171      0.0417
    123  CZ        -6.6870    9.7580   -0.9990 C.ar  171  TYR171      0.1957
    124  OH        -7.4820    9.3200   -2.0440 O.3   171  TYR171     -0.2866
    125  N         -2.4820    5.9050    1.3900 N.3   174  VAL174     -0.1245
    126  CA        -3.7640    5.2060    1.2600 C.3   174  VAL174      0.1561
    127  C         -4.0610    4.7010   -0.1560 C.2   174  VAL174      0.2260
    128  O         -4.0660    5.4690   -1.1180 O.2   174  VAL174     -0.2867
    129  CB        -4.9200    6.1280    1.6980 C.3   174  VAL174      0.0252
    130  CG1       -6.2490    5.4460    1.4860 C.3   174  VAL174      0.0019
    131  CG2       -4.7330    6.5320    3.1460 C.3   174  VAL174      0.0019
    132  N         -6.9390   -0.0140    4.4850 N.3   180  SER180     -0.1217
    133  CA        -6.8160    1.4300    4.3570 C.3   180  SER180      0.1889
    134  C         -8.1850    2.1050    4.2450 C.2   180  SER180      0.2288
    135  O         -8.4030    3.2270    4.7440 O.2   180  SER180     -0.2866
    136  CB        -5.9130    1.7950    3.1770 C.3   180  SER180      0.2089
    137  OG        -4.5530    1.5600    3.5120 O.3   180  SER180     -0.2183
    138  N         -9.7270    2.7250    7.7380 N.3   183  GLY183     -0.1210
    139  CA        -9.2570    3.8730    8.4830 C.3   183  GLY183      0.1956
    140  C         -9.8420    5.1220    7.8640 C.2   183  GLY183      0.2612
    141  O        -10.1440    6.1230    8.5460 O.2   183  GLY183     -0.2717
    142  N         -9.9940    5.0460    6.5470 N.am  184  THR184     -0.1952
    143  CA       -10.5820    6.0900    5.7230 C.3   184  THR184      0.1897
    144  C        -12.0160    6.3700    6.2300 C.2   184  THR184      0.2313
    145  O        -12.5400    7.4740    6.0710 O.2   184  THR184     -0.2863
    146  CB       -10.5910    5.5540    4.2620 C.3   184  THR184      0.1794
    147  OG1       -9.7590    6.3520    3.4110 O.3   184  THR184     -0.2208
    148  CG2      -11.9710    5.4230    3.7170 C.3   184  THR184      0.0378
    149  N        -10.9830    7.5900   10.9030 N.3   187  PHE187     -0.1241
    150  CA       -10.0660    8.5900   11.4460 C.3   187  PHE187      0.1605
    151  C        -10.2960   10.0660   11.0680 C.2   187  PHE187      0.2264
    152  O        -10.4640   10.4170    9.9030 O.2   187  PHE187     -0.2867
    153  CB        -8.6200    8.1510   11.1930 C.3   187  PHE187      0.0534
    154  CG        -8.2370    6.9130   11.9560 C.ar  187  PHE187     -0.0203
    155  CD1       -7.9560    6.9850   13.3110 C.ar  187  PHE187     -0.0042
    156  CD2       -8.1970    5.6810   11.3400 C.ar  187  PHE187     -0.0042
    157  CE1       -7.6210    5.8570   14.0310 C.ar  187  PHE187     -0.0003
    158  CE2       -7.8680    4.5340   12.0590 C.ar  187  PHE187     -0.0003
    159  CZ        -7.5790    4.6270   13.4060 C.ar  187  PHE187     -0.0000
    160  N         -1.6980   -4.1030   14.9940 N.3   227  MET227     -0.1230
    161  CA        -1.8440   -2.6960   14.6420 C.3   227  MET227      0.1702
    162  C         -0.4800   -1.9670   14.5770 C.2   227  MET227      0.2593
    163  O          0.3960   -2.2010   15.4040 O.2   227  MET227     -0.2718
    164  CB        -2.7470   -2.0100   15.6690 C.3   227  MET227      0.0401
    165  CG        -3.6780   -0.9690   15.0730 C.3   227  MET227      0.0596
    166  SD        -4.4530   -0.0190   16.3970 S.3   227  MET227     -0.1393
    167  CE        -4.3890   -1.2290   17.7180 C.3   227  MET227      0.0692
    168  N         -0.3200   -1.0840   13.5910 N.am  228  GLY228     -0.1942
    169  CA         0.9040   -0.3160   13.4250 C.3   228  GLY228      0.2014
    170  C          0.9330    0.4230   12.0920 C.2   228  GLY228      0.2638
    171  O         -0.1160    0.6400   11.4590 O.2   228  GLY228     -0.2714
    172  N          2.1390    0.8060   11.6700 N.am  229  TRP229     -0.1973
    173  CA         2.3750    1.3860   10.3550 C.3   229  TRP229      0.1640
    174  C          3.2860    0.4750    9.5520 C.2   229  TRP229      0.2290
    175  O          4.1770   -0.1710   10.1050 O.2   229  TRP229     -0.2864
    176  CB         3.1270    2.7200   10.4720 C.3   229  TRP229      0.0576
    177  CG         2.3660    3.9660   10.9340 C.ar  229  TRP229      0.0006
    178  CD1        2.8120    4.9050   11.8270 C.ar  229  TRP229      0.0946
    179  CD2        1.0690    4.4120   10.5040 C.ar  229  TRP229      0.0152
    180  NE1        1.8750    5.9060   11.9790 N.ar  229  TRP229     -0.2442
    181  CE2        0.7940    5.6210   11.1860 C.ar  229  TRP229      0.0810
    182  CE3        0.1170    3.9110    9.6140 C.ar  229  TRP229      0.0012
    183  CZ2       -0.3940    6.3220   11.0100 C.ar  229  TRP229      0.0191
    184  CZ3       -1.0630    4.6120    9.4410 C.ar  229  TRP229      0.0001
    185  CH2       -1.3030    5.8090   10.1280 C.ar  229  TRP229      0.0015
    186  N         -1.5020    2.0190    6.8830 N.3   238  LEU238     -0.1245
    187  CA        -2.0910    1.3980    8.0590 C.3   238  LEU238      0.1561
    188  C         -1.9460   -0.1230    8.0590 C.2   238  LEU238      0.2260
    189  O         -2.0770   -0.7810    7.0220 O.2   238  LEU238     -0.2867
    190  CB        -3.5720    1.7840    8.1400 C.3   238  LEU238      0.0270
    191  CG        -4.3550    1.3010    9.3660 C.3   238  LEU238      0.0019
    192  CD1       -3.7260    1.8360   10.6600 C.3   238  LEU238      0.0001
    193  CD2       -5.8180    1.7750    9.2400 C.3   238  LEU238      0.0001
    194  N         -7.3040    9.1280   16.9910 N.3   311  SER311     -0.1217
    195  CA        -6.2050    8.3740   17.5380 C.3   311  SER311      0.1889
    196  C         -6.0140    8.6670   19.0000 C.2   311  SER311      0.2288
    197  O         -6.9240    8.5230   19.7540 O.2   311  SER311     -0.2866
    198  CB        -4.9500    8.6090   16.7480 C.3   311  SER311      0.2089
    199  OG        -3.9570    7.7890   17.2180 O.3   311  SER311     -0.2183
    200  N         -1.1170    0.0310   19.0380 N.3   340  PRO340     -0.2116
    201  CA        -0.0260   -0.8220   18.5410 C.3   340  PRO340      0.1372
    202  C          0.7600   -1.4550   19.6640 C.2   340  PRO340      0.2244
    203  O          1.0580   -0.7990   20.6510 O.2   340  PRO340     -0.2868
    204  CB         0.8490    0.1580   17.7580 C.3   340  PRO340      0.0268
    205  CG        -0.1580    1.1390   17.1910 C.3   340  PRO340      0.0207
    206  CD        -1.1780    1.3200   18.3130 C.3   340  PRO340      0.0892
@<TRIPOS>BOND
     1    23    22    2
     2    22    21    1
     3    21    20    1
     4    21    24    1
     5    24    25    1
     6    26    25   ar
     7    26    28   ar
     8    25    27   ar
     9    12    11    2
    10    28    30   ar
    11    11    10    1
    12    27    29   ar
    13   124   123    1
    14    61    60    2
    15    60    59    1
    16    30    29   ar
    17    10     9    1
    18    10    13    1
    19   122   123   ar
    20   122   120   ar
    21   128   127    2
    22   123   121   ar
    23    58    59    1
    24    59    62    1
    25   120   118   ar
    26    15    17   ar
    27    15    14   ar
    28   127   126    1
    29    13    14    1
    30    53    52    2
    31    17    19   ar
    32    14    16   ar
    33    52    51    1
    34   121   119   ar
    35    62    63    1
    36    19    18   ar
    37    16    18   ar
    38   116   115    2
    39     4     3    2
    40   118   119   ar
    41   118   117    1
    42    55    57    1
    43    55    54    1
    44    55    56    1
    45   126   125    1
    46   126   129    1
    47   130   129    1
    48   115   114    1
    49    51    54    1
    50    51    50    1
    51   129   131    1
    52    63    65   ar
    53    63    64   ar
    54     3     2    1
    55    65    67   ar
    56   117   114    1
    57    64    66   ar
    58   114   113    1
    59     2     1    1
    60     2     5    1
    61   136   137    1
    62   136   133    1
    63   147   146    1
    64    67    68   ar
    65   148   146    1
    66    66    68   ar
    67   113   108   am
    68   109   108    2
    69   134   133    1
    70   134   135    2
    71    68    69    1
    72   146   143    1
    73     7     5    1
    74   133   132    1
    75     5     6    1
    76   108   107    1
    77   103   102    2
    78    48    47    1
    79     6     8    1
    80   143   144    1
    81   143   142    1
    82   107   106    1
    83   107   110    1
    84   145   144    2
    85   102   101    1
    86   142   140   am
    87    47    46    1
    88    47    49    1
    89   111   110    1
    90   104   105    1
    91   104   101    1
    92   186   187    1
    93   110   112    1
    94    46    43    1
    95   189   188    2
    96   101   100    1
    97    41    39    1
    98   138   139    1
    99   140   139    1
   100   140   141    2
   101   187   188    1
   102   187   190    1
   103    39    40    1
   104    39    38    2
   105    97    96    2
   106   190   191    1
   107    45    44    2
   108    44    43    1
   109    43    42    1
   110   100    96   am
   111    96    95    1
   112    38    37    1
   113   193   191    1
   114   191   192    1
   115   184   182   ar
   116   184   185   ar
   117   174   175    2
   118   174   173    1
   119   182   179   ar
   120    34    33    2
   121   152   151    2
   122   185   183   ar
   123    37    36    1
   124    35    36    1
   125    35    32    1
   126    80    79    2
   127   173   176    1
   128   173   172    1
   129    95    98    1
   130    95    94    1
   131   176   177    1
   132   179   177   ar
   133   179   181   ar
   134    33    32    1
   135    31    32    1
   136   149   150    1
   137   177   178   ar
   138    98    99    1
   139   183   181   ar
   140   151   150    1
   141   181   180   ar
   142   153   150    1
   143   153   154    1
   144   156   154   ar
   145   156   158   ar
   146    79    78    1
   147   171   170    2
   148   172   170   am
   149   178   180   ar
   150   154   155   ar
   151   158   159   ar
   152   170   169    1
   153    81    78    1
   154    81    83    1
   155    81    82    1
   156    78    77    1
   157    73    72    2
   158   155   157   ar
   159   159   157   ar
   160   169   168    1
   161    77    72   am
   162   168   162   am
   163    72    71    1
   164   162   161    1
   165   162   163    2
   166   161   160    1
   167   161   164    1
   168   165   164    1
   169   165   166    1
   170    75    74    1
   171    71    74    1
   172    71    70    1
   173    76    74    1
   174   166   167    1
   175   198   199    1
   176   198   195    1
   177   194   195    1
   178   205   204    1
   179   205   206    1
   180   195   196    1
   181    93    92    1
   182   204   201    1
   183   206   200    1
   184   201   200    1
   185   201   202    1
   186    85    84    1
   187    85    86    1
   188   196   197    2
   189    88    86   am
   190    88    89    1
   191    92    89    1
   192    86    87    2
   193   202   203    2
   194    89    90    1
   195    90    91    2
