@<TRIPOS>MOLECULE
tmp/4japB00.pdb
 214 202 0 0 0
SMALL
GASTEIGER

@<TRIPOS>ATOM
      1  N         41.6120   -5.3240   97.1010 N.3    21  ILE21      -0.1245
      2  CA        40.2600   -5.8760   96.9360 C.3    21  ILE21       0.1561
      3  C         40.1090   -7.0940   97.8130 C.2    21  ILE21       0.2260
      4  O         39.0670   -7.2860   98.4470 O.2    21  ILE21      -0.2867
      5  CB        39.9600   -6.3040   95.4760 C.3    21  ILE21       0.0252
      6  CG1       39.8590   -5.0790   94.5570 C.3    21  ILE21       0.0019
      7  CG2       38.6670   -7.0990   95.4040 C.3    21  ILE21       0.0019
      8  CD1       39.5280   -5.4530   93.1210 C.3    21  ILE21       0.0001
      9  N         37.8020   -7.4810  101.0130 N.3    25  PHE25      -0.1241
     10  CA        36.7560   -8.4540  100.6970 C.3    25  PHE25       0.1605
     11  C         36.6190   -9.4890  101.8000 C.2    25  PHE25       0.2264
     12  O         35.5020   -9.7370  102.2740 O.2    25  PHE25      -0.2867
     13  CB        36.9610   -9.1300   99.3300 C.3    25  PHE25       0.0534
     14  CG        35.8540  -10.0950   98.9490 C.ar   25  PHE25      -0.0203
     15  CD1       34.5120   -9.7300   99.0630 C.ar   25  PHE25      -0.0042
     16  CD2       36.1590  -11.3730   98.4910 C.ar   25  PHE25      -0.0042
     17  CE1       33.4950  -10.6160   98.7140 C.ar   25  PHE25      -0.0003
     18  CE2       35.1480  -12.2760   98.1410 C.ar   25  PHE25      -0.0003
     19  CZ        33.8120  -11.8940   98.2500 C.ar   25  PHE25      -0.0000
     20  N         34.3630   -8.6450  104.7130 N.3    28  PHE28      -0.1241
     21  CA        32.9220   -8.4530  104.5180 C.3    28  PHE28       0.1605
     22  C         32.1310   -9.4240  105.3970 C.2    28  PHE28       0.2264
     23  O         32.6810  -10.4370  105.8440 O.2    28  PHE28      -0.2867
     24  CB        32.5160   -8.6910  103.0470 C.3    28  PHE28       0.0534
     25  CG        32.8940   -7.5750  102.1030 C.ar   28  PHE28      -0.0203
     26  CD1       33.6680   -6.4960  102.5250 C.ar   28  PHE28      -0.0042
     27  CD2       32.4830   -7.6250  100.7680 C.ar   28  PHE28      -0.0042
     28  CE1       34.0160   -5.4750  101.6210 C.ar   28  PHE28      -0.0003
     29  CE2       32.8280   -6.6140   99.8600 C.ar   28  PHE28      -0.0003
     30  CZ        33.5950   -5.5360  100.2850 C.ar   28  PHE28      -0.0000
     31  N         41.7130   -4.1020   89.4940 N.3    50  ARG50      -0.1245
     32  CA        40.4150   -4.0360   88.8270 C.3    50  ARG50       0.1563
     33  C         39.7860   -2.6700   89.0460 C.2    50  ARG50       0.2260
     34  O         39.9950   -2.0450   90.0900 O.2    50  ARG50      -0.2867
     35  CB        39.4700   -5.1190   89.3620 C.3    50  ARG50       0.0307
     36  CG        39.5950   -6.4740   88.6790 C.3    50  ARG50       0.0489
     37  CD        38.6650   -7.4910   89.3380 C.3    50  ARG50       0.2205
     38  NE        39.2780   -8.1100   90.5160 N.pl3  50  ARG50      -0.0865
     39  CZ        38.6150   -8.8150   91.4290 C.cat  50  ARG50       0.5346
     40  NH1       37.2990   -8.9800   91.3210 N.pl3  50  ARG50       0.1354
     41  NH2       39.2730   -9.3490   92.4500 N.pl3  50  ARG50       0.1354
     42  N         36.2440   -0.6090   89.6140 N.3    52  LEU52      -0.1245
     43  CA        34.9040   -0.9100   90.1080 C.3    52  LEU52       0.1561
     44  C         33.9800    0.2940   90.0150 C.2    52  LEU52       0.2260
     45  O         34.3850    1.4350   90.2580 O.2    52  LEU52      -0.2867
     46  CB        34.9560   -1.4540   91.5400 C.3    52  LEU52       0.0270
     47  CG        35.7850   -2.7090   91.8150 C.3    52  LEU52       0.0019
     48  CD1       35.9340   -2.9310   93.3320 C.3    52  LEU52       0.0001
     49  CD2       35.1560   -3.9380   91.1450 C.3    52  LEU52       0.0001
     50  N         34.8190    0.5780   96.9690 N.3    56  LEU56      -0.1245
     51  CA        34.9700   -0.7950   97.4500 C.3    56  LEU56       0.1561
     52  C         34.0610   -1.1100   98.6290 C.2    56  LEU56       0.2260
     53  O         33.3010   -2.0840   98.5930 O.2    56  LEU56      -0.2867
     54  CB        36.4290   -1.0720   97.8180 C.3    56  LEU56       0.0270
     55  CG        36.8590   -2.5060   98.1320 C.3    56  LEU56       0.0019
     56  CD1       36.2810   -3.5160   97.1160 C.3    56  LEU56       0.0001
     57  CD2       38.3990   -2.5720   98.1600 C.3    56  LEU56       0.0001
     58  N         30.0120   -2.1620   98.7880 N.3    59  TYR59      -0.1241
     59  CA        29.4480   -3.4640   98.4220 C.3    59  TYR59       0.1605
     60  C         28.7420   -4.2660   99.5460 C.2    59  TYR59       0.2264
     61  O         27.8060   -5.0160   99.2550 O.2    59  TYR59      -0.2867
     62  CB        30.4600   -4.3110   97.6200 C.3    59  TYR59       0.0534
     63  CG        30.7200   -3.7260   96.2340 C.ar   59  TYR59      -0.0201
     64  CD1       29.8960   -4.0360   95.1550 C.ar   59  TYR59      -0.0009
     65  CD2       31.7630   -2.8250   96.0210 C.ar   59  TYR59      -0.0009
     66  CE1       30.1060   -3.4650   93.8850 C.ar   59  TYR59       0.0417
     67  CE2       31.9920   -2.2630   94.7640 C.ar   59  TYR59       0.0417
     68  CZ        31.1670   -2.5880   93.6970 C.ar   59  TYR59       0.1957
     69  OH        31.4110   -2.0190   92.4510 O.3    59  TYR59      -0.2866
     70  N         25.6760   -8.8260   79.8010 N.3   106  VAL106     -0.1231
     71  CA        25.1190  -10.0450   80.3590 C.3   106  VAL106      0.1692
     72  C         24.8940   -9.7990   81.8410 C.2   106  VAL106      0.2592
     73  O         24.6440  -10.7170   82.6210 O.2   106  VAL106     -0.2718
     74  CB        26.0800  -11.2440   80.1160 C.3   106  VAL106      0.0266
     75  CG1       27.2630  -11.2260   81.1000 C.3   106  VAL106      0.0020
     76  CG2       25.3310  -12.5660   80.1810 C.3   106  VAL106      0.0020
     77  N         24.9490   -8.5370   82.2350 N.am  107  THR107     -0.1953
     78  CA        25.2350   -8.2590   83.6340 C.3   107  THR107      0.1897
     79  C         24.2160   -7.3260   84.3200 C.2   107  THR107      0.2313
     80  O         24.3630   -6.9540   85.4940 O.2   107  THR107     -0.2863
     81  CB        26.7120   -7.7930   83.7710 C.3   107  THR107      0.1794
     82  OG1       27.3010   -8.3480   84.9560 O.3   107  THR107     -0.2208
     83  CG2       26.8170   -6.2980   83.7560 C.3   107  THR107      0.0378
     84  N         27.0250  -13.0660   76.6120 N.3   137  GLY137     -0.1210
     85  CA        28.0600  -13.0720   77.6370 C.3   137  GLY137      0.1956
     86  C         29.4620  -12.8740   77.0800 C.2   137  GLY137      0.2612
     87  O         29.6550  -12.1230   76.1160 O.2   137  GLY137     -0.2717
     88  N         30.4370  -13.5710   77.6600 N.am  138  CYS138     -0.1970
     89  CA        31.8620  -13.3540   77.3630 C.3   138  CYS138      0.1712
     90  C         32.2060  -13.3910   75.8650 C.2   138  CYS138      0.2296
     91  O         33.3050  -12.9910   75.4630 O.2   138  CYS138     -0.2864
     92  CB        32.7110  -14.4060   78.0810 C.3   138  CYS138      0.0983
     93  SG        32.6740  -14.3700   79.8840 S.3   138  CYS138     -0.0798
     94  N         30.2890   -6.3530   86.2710 N.3   168  CYS168     -0.1221
     95  CA        30.2320   -7.6080   87.0240 C.3   168  CYS168      0.1808
     96  C         30.0540   -7.4070   88.5320 C.2   168  CYS168      0.2601
     97  O         29.3160   -8.1520   89.1810 O.2   168  CYS168     -0.2717
     98  CB        31.4630   -8.4660   86.7120 C.3   168  CYS168      0.0970
     99  SG        31.6690   -8.7850   84.9060 S.3   168  CYS168     -0.0800
    100  N         30.6830   -6.3750   89.0810 N.am  169  SER169     -0.1952
    101  CA        30.6360   -6.1690   90.5290 C.3   169  SER169      0.1924
    102  C         29.2100   -5.9350   91.0550 C.2   169  SER169      0.2314
    103  O         28.9280   -6.1950   92.2320 O.2   169  SER169     -0.2863
    104  CB        31.5870   -5.0520   90.9660 C.3   169  SER169      0.2116
    105  OG        31.0990   -3.7640   90.6310 O.3   169  SER169     -0.2180
    106  N         26.5620   -7.5840   90.3620 N.3   171  THR171     -0.1203
    107  CA        25.8460   -8.8350   90.5610 C.3   171  THR171      0.1994
    108  C         26.0610   -9.3350   91.9950 C.2   171  THR171      0.2617
    109  O         25.6300  -10.4320   92.3480 O.2   171  THR171     -0.2717
    110  CB        26.2930   -9.9230   89.5700 C.3   171  THR171      0.1784
    111  OG1       27.7120  -10.0850   89.6550 O.3   171  THR171     -0.2211
    112  CG2       25.9260   -9.5490   88.1510 C.3   171  THR171      0.0376
    113  N         26.7080   -8.5150   92.8210 N.am  172  TYR172     -0.1975
    114  CA        26.9900   -8.8870   94.2170 C.3   172  TYR172      0.1639
    115  C         25.8090   -9.4180   95.0830 C.2   172  TYR172      0.2290
    116  O         26.0230  -10.2950   95.9120 O.2   172  TYR172     -0.2864
    117  CB        27.7700   -7.7710   94.9630 C.3   172  TYR172      0.0560
    118  CG        28.3350   -8.2320   96.3040 C.ar  172  TYR172     -0.0198
    119  CD1       29.3920   -9.1410   96.3570 C.ar  172  TYR172     -0.0009
    120  CD2       27.7950   -7.7840   97.5110 C.ar  172  TYR172     -0.0009
    121  CE1       29.9040   -9.5900   97.5830 C.ar  172  TYR172      0.0417
    122  CE2       28.3030   -8.2280   98.7480 C.ar  172  TYR172      0.0417
    123  CZ        29.3560   -9.1290   98.7700 C.ar  172  TYR172      0.1957
    124  OH        29.8590   -9.5680   99.9750 O.3   172  TYR172     -0.2866
    125  N         25.8020  -12.9970   95.1340 N.3   175  VAL175     -0.1245
    126  CA        27.0540  -13.6450   95.5390 C.3   175  VAL175      0.1561
    127  C         27.0250  -14.1650   96.9810 C.2   175  VAL175      0.2260
    128  O         26.6130  -13.4590   97.9200 O.2   175  VAL175     -0.2867
    129  CB        28.2960  -12.7290   95.3430 C.3   175  VAL175      0.0252
    130  CG1       29.5640  -13.4100   95.8800 C.3   175  VAL175      0.0019
    131  CG2       28.4690  -12.3790   93.8710 C.3   175  VAL175      0.0019
    132  N         30.9200  -18.8610   92.7010 N.3   181  SER181     -0.1217
    133  CA        30.7600  -17.4300   92.9850 C.3   181  SER181      0.1889
    134  C         32.0840  -16.7890   93.4110 C.2   181  SER181      0.2288
    135  O         32.4420  -15.7030   92.9470 O.2   181  SER181     -0.2866
    136  CB        29.7120  -17.2130   94.0880 C.3   181  SER181      0.2089
    137  OG        28.4210  -17.0050   93.5400 O.3   181  SER181     -0.2183
    138  N         34.3850  -16.2010   90.7600 N.3   184  GLY184     -0.1210
    139  CA        33.9390  -14.9520   90.1620 C.3   184  GLY184      0.1956
    140  C         34.5150  -13.7100   90.8180 C.2   184  GLY184      0.2612
    141  O         34.9790  -12.7920   90.1190 O.2   184  GLY184     -0.2717
    142  N         34.4990  -13.6700   92.1530 N.am  185  THR185     -0.1952
    143  CA        35.0430  -12.5150   92.8790 C.3   185  THR185      0.1897
    144  C         36.5550  -12.3390   92.6330 C.2   185  THR185      0.2313
    145  O         37.1290  -11.3000   92.9900 O.2   185  THR185     -0.2863
    146  CB        34.7630  -12.5820   94.4200 C.3   185  THR185      0.1794
    147  OG1       35.6090  -13.5680   95.0370 O.3   185  THR185     -0.2208
    148  CG2       33.2820  -12.8800   94.7130 C.3   185  THR185      0.0378
    149  N         36.4760  -11.1190   87.8390 N.3   188  PHE188     -0.1241
    150  CA        35.6540  -10.1340   87.1530 C.3   188  PHE188      0.1605
    151  C         35.7350   -8.7060   87.6750 C.2   188  PHE188      0.2264
    152  O         35.6500   -8.4700   88.8840 O.2   188  PHE188     -0.2867
    153  CB        34.2060  -10.6340   87.0860 C.3   188  PHE188      0.0534
    154  CG        34.0510  -11.8250   86.1940 C.ar  188  PHE188     -0.0203
    155  CD1       34.0490  -11.6640   84.8020 C.ar  188  PHE188     -0.0042
    156  CD2       34.0090  -13.1130   86.7270 C.ar  188  PHE188     -0.0042
    157  CE1       33.9520  -12.7810   83.9390 C.ar  188  PHE188     -0.0003
    158  CE2       33.9080  -14.2420   85.8890 C.ar  188  PHE188     -0.0003
    159  CZ        33.8830  -14.0770   84.4900 C.ar  188  PHE188     -0.0000
    160  N         28.3850  -22.7530   81.3600 N.3   228  MET228     -0.1230
    161  CA        28.4310  -21.3510   81.7990 C.3   228  MET228      0.1702
    162  C         27.0840  -20.6280   81.6540 C.2   228  MET228      0.2593
    163  O         26.2400  -21.0480   80.8740 O.2   228  MET228     -0.2718
    164  CB        29.5110  -20.5920   81.0300 C.3   228  MET228      0.0401
    165  CG        30.2870  -19.5910   81.8750 C.3   228  MET228      0.0596
    166  SD        31.4350  -18.6030   80.8880 S.3   228  MET228     -0.1393
    167  CE        31.8420  -19.7550   79.5750 C.3   228  MET228      0.0692
    168  N         26.8980  -19.5430   82.4090 N.am  229  GLY229     -0.1942
    169  CA        25.6720  -18.7540   82.3620 C.3   229  GLY229      0.2014
    170  C         25.2400  -18.2120   83.7220 C.2   229  GLY229      0.2638
    171  O         26.0720  -18.0700   84.6210 O.2   229  GLY229     -0.2714
    172  N         23.9470  -17.9010   83.8660 N.am  230  TRP230     -0.1973
    173  CA        23.3560  -17.5090   85.1570 C.3   230  TRP230      0.1640
    174  C         22.2540  -18.4600   85.6360 C.2   230  TRP230      0.2290
    175  O         21.5530  -19.0960   84.8350 O.2   230  TRP230     -0.2864
    176  CB        22.7100  -16.1180   85.0910 C.3   230  TRP230      0.0576
    177  CG        23.5800  -14.9630   84.6670 C.ar  230  TRP230      0.0006
    178  CD1       23.4590  -14.2310   83.5110 C.ar  230  TRP230      0.0946
    179  CD2       24.6620  -14.3650   85.4060 C.ar  230  TRP230      0.0152
    180  NE1       24.4050  -13.2300   83.4820 N.ar  230  TRP230     -0.2442
    181  CE2       25.1590  -13.2920   84.6280 C.ar  230  TRP230      0.0810
    182  CE3       25.2680  -14.6400   86.6340 C.ar  230  TRP230      0.0012
    183  CZ2       26.2390  -12.4970   85.0430 C.ar  230  TRP230      0.0191
    184  CZ3       26.3400  -13.8420   87.0440 C.ar  230  TRP230      0.0001
    185  CH2       26.8080  -12.7850   86.2510 C.ar  230  TRP230      0.0015
    186  N         21.5080  -12.2040   89.6640 N.3   237  LEU237     -0.1245
    187  CA        22.2100  -12.9830   88.6460 C.3   237  LEU237      0.1561
    188  C         23.3440  -13.7610   89.2960 C.2   237  LEU237      0.2260
    189  O         24.4020  -13.1970   89.6080 O.2   237  LEU237     -0.2867
    190  CB        22.7740  -12.0470   87.5620 C.3   237  LEU237      0.0270
    191  CG        21.9370  -11.6690   86.3330 C.3   237  LEU237      0.0019
    192  CD1       20.4510  -11.5290   86.6700 C.3   237  LEU237      0.0001
    193  CD2       22.4710  -10.3940   85.6550 C.3   237  LEU237      0.0001
    194  N         26.2220  -16.5550   89.2430 N.3   239  LEU239     -0.1245
    195  CA        27.1340  -17.2080   88.3130 C.3   239  LEU239      0.1561
    196  C         27.0050  -18.7410   88.3380 C.2   239  LEU239      0.2260
    197  O         26.9220  -19.3620   89.4160 O.2   239  LEU239     -0.2867
    198  CB        28.5750  -16.7910   88.6430 C.3   239  LEU239      0.0270
    199  CG        29.7030  -17.3200   87.7500 C.3   239  LEU239      0.0019
    200  CD1       29.5510  -16.8100   86.3150 C.3   239  LEU239      0.0001
    201  CD2       31.0490  -16.9230   88.3160 C.3   239  LEU239      0.0001
    202  N         34.2700   -9.5440   80.9870 N.3   312  SER312     -0.1217
    203  CA        33.3020  -10.2350   80.1960 C.3   312  SER312      0.1889
    204  C         33.4540   -9.8220   78.7560 C.2   312  SER312      0.2288
    205  O         34.5410   -9.7910   78.2550 O.2   312  SER312     -0.2866
    206  CB        31.9230   -9.9280   80.7020 C.3   312  SER312      0.2089
    207  OG        31.0720  -10.9850   80.3820 O.3   312  SER312     -0.2183
    208  N         28.8920  -18.3680   77.3960 N.3   341  PRO341     -0.2116
    209  CA        27.6800  -19.1650   77.6600 C.3   341  PRO341      0.1372
    210  C         27.1240  -19.7860   76.3920 C.2   341  PRO341      0.2244
    211  O         26.9240  -19.0810   75.4000 O.2   341  PRO341     -0.2868
    212  CB        26.6890  -18.1360   78.2120 C.3   341  PRO341      0.0268
    213  CG        27.5550  -17.0680   78.8270 C.3   341  PRO341      0.0207
    214  CD        28.8070  -17.0090   77.9650 C.3   341  PRO341      0.0892
@<TRIPOS>BOND
     1   211   210    2
     2    91    90    2
     3    90    89    1
     4    87    86    2
     5   210   209    1
     6    84    85    1
     7    86    85    1
     8    86    88   am
     9    89    88    1
    10    89    92    1
    11   208   209    1
    12   208   214    1
    13   209   212    1
    14   214   213    1
    15    92    93    1
    16   212   213    1
    17   205   204    2
    18   204   203    1
    19   167   166    1
    20    70    71    1
    21    74    76    1
    22    74    71    1
    23    74    75    1
    24   203   206    1
    25   203   202    1
    26    71    72    1
    27   207   206    1
    28   163   162    2
    29   166   165    1
    30   164   161    1
    31   164   165    1
    32   160   161    1
    33   162   161    1
    34   162   168   am
    35    72    77   am
    36    72    73    2
    37    77    78    1
    38   169   168    1
    39   169   170    1
    40   180   178   ar
    41   180   181   ar
    42   178   177   ar
    43    78    81    1
    44    78    79    1
    45   170   172   am
    46   170   171    2
    47    83    81    1
    48    81    82    1
    49   172   173    1
    50   157   159   ar
    51   157   155   ar
    52    79    80    2
    53   159   158   ar
    54   181   183   ar
    55   181   179   ar
    56   177   176    1
    57   177   179   ar
    58   155   154   ar
    59   175   174    2
    60    99    98    1
    61   183   185   ar
    62   176   173    1
    63   173   174    1
    64   179   182   ar
    65   193   191    1
    66   158   156   ar
    67   154   156   ar
    68   154   153    1
    69   185   184   ar
    70    94    95    1
    71   200   199    1
    72   191   192    1
    73   191   190    1
    74   182   184   ar
    75    98    95    1
    76    95    96    1
    77   153   150    1
    78   150   151    1
    79   150   149    1
    80   190   187    1
    81   151   152    2
    82   199   201    1
    83   199   198    1
    84   112   110    1
    85   195   196    1
    86   195   198    1
    87   195   194    1
    88   196   197    2
    89    96   100   am
    90    96    97    2
    91   187   188    1
    92   187   186    1
    93    36    37    1
    94    36    35    1
    95    32    33    1
    96    32    35    1
    97    32    31    1
    98    33    34    2
    99   100   101    1
   100   188   189    2
   101    37    38    1
   102   110   111    1
   103   110   107    1
   104    42    43    1
   105    44    43    1
   106    44    45    2
   107    43    46    1
   108   141   140    2
   109   139   138    1
   110   139   140    1
   111   106   107    1
   112    38    39    2
   113   101   104    1
   114   101   102    1
   115   107   108    1
   116   105   104    1
   117   140   142   am
   118   102   103    2
   119    49    47    1
   120    40    39    1
   121    39    41    1
   122    46    47    1
   123    47    48    1
   124   108   109    2
   125   108   113   am
   126   142   143    1
   127    69    68    1
   128   144   143    1
   129   144   145    2
   130   132   133    1
   131   113   114    1
   132   143   146    1
   133   135   134    2
   134   133   134    1
   135   133   136    1
   136     8     6    1
   137   137   136    1
   138    68    66   ar
   139    68    67   ar
   140   131   129    1
   141    66    64   ar
   142   114   117    1
   143   114   115    1
   144   146   148    1
   145   146   147    1
   146     6     5    1
   147    67    65   ar
   148   117   118    1
   149   115   116    2
   150   125   126    1
   151    64    63   ar
   152   129   126    1
   153   129   130    1
   154     7     5    1
   155     5     2    1
   156   126   127    1
   157    65    63   ar
   158    63    62    1
   159   118   119   ar
   160   118   120   ar
   161   119   121   ar
   162     2     1    1
   163     2     3    1
   164    50    51    1
   165   127   128    2
   166    56    55    1
   167    51    54    1
   168    51    52    1
   169   120   122   ar
   170   121   123   ar
   171    62    59    1
   172     3     4    2
   173    54    55    1
   174    55    57    1
   175    18    19   ar
   176    18    16   ar
   177    19    17   ar
   178    59    58    1
   179    59    60    1
   180    16    14   ar
   181    53    52    2
   182    17    15   ar
   183   122   123   ar
   184   123   124    1
   185    14    15   ar
   186    14    13    1
   187    61    60    2
   188    13    10    1
   189    29    30   ar
   190    29    27   ar
   191    30    28   ar
   192    10     9    1
   193    10    11    1
   194    27    25   ar
   195    28    26   ar
   196    11    12    2
   197    25    26   ar
   198    25    24    1
   199    24    21    1
   200    21    20    1
   201    21    22    1
   202    22    23    2
