@<TRIPOS>MOLECULE
tmp/4jaqC01.pdb
 206 195 0 0 0
SMALL
GASTEIGER

@<TRIPOS>ATOM
      1  N        -18.1680   13.3840    2.9110 N.3    20  ILE20      -0.1245
      2  CA       -16.8420   12.8020    2.7500 C.3    20  ILE20       0.1561
      3  C        -16.8910   11.5880    1.8080 C.2    20  ILE20       0.2260
      4  O        -16.0830   11.4700    0.8940 O.2    20  ILE20      -0.2867
      5  CB       -16.2610   12.3720    4.1000 C.3    20  ILE20       0.0252
      6  CG1      -15.8520   13.6030    4.9070 C.3    20  ILE20       0.0019
      7  CG2      -15.0700   11.4640    3.8910 C.3    20  ILE20       0.0019
      8  CD1      -15.5690   13.3330    6.3790 C.3    20  ILE20       0.0001
      9  N        -15.0800   11.0060   -1.7800 N.3    24  PHE24      -0.1241
     10  CA       -14.0400    9.9880   -1.7420 C.3    24  PHE24       0.1605
     11  C        -14.1960    8.9630   -2.8650 C.2    24  PHE24       0.2264
     12  O        -13.2170    8.5690   -3.4800 O.2    24  PHE24      -0.2867
     13  CB       -14.0430    9.2960   -0.3760 C.3    24  PHE24       0.0534
     14  CG       -12.8950    8.3610   -0.1660 C.ar   24  PHE24      -0.0203
     15  CD1      -11.5970    8.7800   -0.3940 C.ar   24  PHE24      -0.0042
     16  CD2      -13.1110    7.0550    0.2590 C.ar   24  PHE24      -0.0042
     17  CE1      -10.5360    7.9190   -0.2060 C.ar   24  PHE24      -0.0003
     18  CE2      -12.0540    6.1980    0.4570 C.ar   24  PHE24      -0.0003
     19  CZ       -10.7690    6.6250    0.2250 C.ar   24  PHE24      -0.0000
     20  N        -12.5470   10.0660   -5.9600 N.3    27  PHE27      -0.1241
     21  CA       -11.1080   10.3370   -5.9930 C.3    27  PHE27       0.1605
     22  C        -10.4360    9.4000   -6.9840 C.2    27  PHE27       0.2264
     23  O        -10.9520    8.3200   -7.2530 O.2    27  PHE27      -0.2867
     24  CB       -10.4690   10.1290   -4.6220 C.3    27  PHE27       0.0534
     25  CG       -10.7740   11.2130   -3.6390 C.ar   27  PHE27      -0.0203
     26  CD1      -11.6560   12.2290   -3.9620 C.ar   27  PHE27      -0.0042
     27  CD2      -10.1630   11.2290   -2.4030 C.ar   27  PHE27      -0.0042
     28  CE1      -11.9390   13.2320   -3.0560 C.ar   27  PHE27      -0.0003
     29  CE2      -10.4400   12.2380   -1.4970 C.ar   27  PHE27      -0.0003
     30  CZ       -11.3280   13.2320   -1.8260 C.ar   27  PHE27      -0.0000
     31  N        -16.6030   14.3210   10.3950 N.3    49  ARG49      -0.1245
     32  CA       -15.2060   14.4280   10.7840 C.3    49  ARG49       0.1563
     33  C        -14.6450   15.8020   10.4360 C.2    49  ARG49       0.2260
     34  O        -15.0700   16.4230    9.4580 O.2    49  ARG49      -0.2867
     35  CB       -14.3780   13.3320   10.0890 C.3    49  ARG49       0.0307
     36  CG       -14.5600   11.9470   10.7200 C.3    49  ARG49       0.0489
     37  CD       -13.7650   10.8610    9.9700 C.3    49  ARG49       0.2205
     38  NE       -14.4940   10.3960    8.7950 N.pl3  49  ARG49      -0.0865
     39  CZ       -13.9880    9.6160    7.8400 C.cat  49  ARG49       0.5346
     40  NH1      -12.7190    9.2060    7.8800 N.pl3  49  ARG49       0.1354
     41  NH2      -14.7530    9.2560    6.8250 N.pl3  49  ARG49       0.1354
     42  N        -11.3220   17.8530    9.1480 N.3    51  LEU51      -0.1245
     43  CA       -10.1390   17.5920    8.3370 C.3    51  LEU51       0.1561
     44  C         -9.2380   18.8230    8.3120 C.2    51  LEU51       0.2260
     45  O         -9.7090   19.9630    8.3010 O.2    51  LEU51      -0.2867
     46  CB       -10.5460   17.2000    6.9120 C.3    51  LEU51       0.0270
     47  CG       -11.4120   15.9590    6.7090 C.3    51  LEU51       0.0019
     48  CD1      -11.7410   15.8070    5.2200 C.3    51  LEU51       0.0001
     49  CD2      -10.7310   14.6930    7.2370 C.3    51  LEU51       0.0001
     50  N        -11.5110   19.0980    1.8740 N.3    55  LEU55      -0.1245
     51  CA       -11.7580   17.7450    1.3870 C.3    55  LEU55       0.1561
     52  C        -11.2420   17.4870   -0.0330 C.2    55  LEU55       0.2260
     53  O        -10.6670   16.4330   -0.3060 O.2    55  LEU55      -0.2867
     54  CB       -13.2530   17.4270    1.4890 C.3    55  LEU55       0.0270
     55  CG       -13.7760   16.1070    0.9280 C.3    55  LEU55       0.0019
     56  CD1      -13.1220   14.9130    1.6280 C.3    55  LEU55       0.0001
     57  CD2      -15.2770   16.0660    1.1080 C.3    55  LEU55       0.0001
     58  N         -7.3740   16.4640   -1.0090 N.3    58  TYR58      -0.1241
     59  CA        -6.7000   15.2030   -0.7180 C.3    58  TYR58       0.1605
     60  C         -6.1990   14.4260   -1.9410 C.2    58  TYR58       0.2264
     61  O         -5.1460   13.8000   -1.8770 O.2    58  TYR58      -0.2867
     62  CB        -7.5210   14.3400    0.2430 C.3    58  TYR58       0.0534
     63  CG        -7.4610   14.9240    1.6340 C.ar   58  TYR58      -0.0201
     64  CD1       -6.4180   14.5960    2.4970 C.ar   58  TYR58      -0.0009
     65  CD2       -8.4090   15.8500    2.0620 C.ar   58  TYR58      -0.0009
     66  CE1       -6.3350   15.1630    3.7600 C.ar   58  TYR58       0.0417
     67  CE2       -8.3490   16.4090    3.3260 C.ar   58  TYR58       0.0417
     68  CZ        -7.3100   16.0630    4.1720 C.ar   58  TYR58       0.1957
     69  OH        -7.2220   16.6170    5.4290 O.3    58  TYR58      -0.2866
     70  N          0.9930    9.5520   16.2970 N.3   105  VAL105     -0.1231
     71  CA         1.4420    8.4210   15.5050 C.3   105  VAL105      0.1692
     72  C          1.2850    8.7460   14.0210 C.2   105  VAL105      0.2592
     73  O          1.5440    7.9050   13.1710 O.2   105  VAL105     -0.2718
     74  CB         0.6880    7.1260   15.9200 C.3   105  VAL105      0.0266
     75  CG1       -0.7650    7.1690   15.4760 C.3   105  VAL105      0.0020
     76  CG2        1.4050    5.8740   15.4050 C.3   105  VAL105      0.0020
     77  N          0.8830    9.9770   13.7130 N.am  106  THR106     -0.1953
     78  CA         0.4660   10.2920   12.3500 C.3   106  THR106      0.1897
     79  C          1.4490   11.1490   11.5410 C.2   106  THR106      0.2313
     80  O          1.1530   11.5360   10.4110 O.2   106  THR106     -0.2863
     81  CB        -0.9630   10.9160   12.3270 C.3   106  THR106      0.1794
     82  OG1       -1.0930   11.8750   13.3890 O.3   106  THR106     -0.2208
     83  CG2       -2.0160    9.8310   12.5140 C.3   106  THR106      0.0378
     84  N          0.3820    4.9320   19.3860 N.3   136  GLY136     -0.1210
     85  CA        -0.8610    4.9550   18.6370 C.3   136  GLY136      0.1956
     86  C         -2.0670    5.2050   19.5280 C.2   136  GLY136      0.2612
     87  O         -2.0100    6.0450   20.4290 O.2   136  GLY136     -0.2717
     88  N         -3.1530    4.4690   19.2970 N.am  137  CYS137     -0.1970
     89  CA        -4.4280    4.7480   19.9640 C.3   137  CYS137      0.1712
     90  C         -4.4400    4.5790   21.4800 C.2   137  CYS137      0.2296
     91  O         -5.4080    4.9560   22.1340 O.2   137  CYS137     -0.2864
     92  CB        -5.5630    3.9220   19.3580 C.3   137  CYS137      0.0983
     93  SG        -5.8350    4.2610   17.6310 S.3   137  CYS137     -0.0798
     94  N         -4.8350   12.0820   11.1370 N.3   167  CYS167     -0.1221
     95  CA        -4.9360   10.8460   10.3750 C.3   167  CYS167      0.1808
     96  C         -5.1040   11.0780    8.8730 C.2   167  CYS167      0.2601
     97  O         -4.6360   10.2770    8.0620 O.2   167  CYS167     -0.2717
     98  CB        -6.0900    9.9940   10.9060 C.3   167  CYS167      0.0970
     99  SG        -5.9530    9.6040   12.6710 S.3   167  CYS167     -0.0800
    100  N         -5.7540   12.1720    8.4920 N.am  168  SER168     -0.1952
    101  CA        -6.0510   12.3940    7.0740 C.3   168  SER168      0.1924
    102  C         -4.7800   12.5940    6.2570 C.2   168  SER168      0.2314
    103  O         -4.7450   12.3120    5.0670 O.2   168  SER168     -0.2863
    104  CB        -6.9780   13.5940    6.8890 C.3   168  SER168      0.2116
    105  OG        -6.2930   14.7990    7.1700 O.3   168  SER168     -0.2180
    106  N         -2.1680   10.9930    6.2490 N.3   170  THR170     -0.1203
    107  CA        -1.4670    9.7640    5.8640 C.3   170  THR170      0.1994
    108  C         -1.9830    9.2880    4.5230 C.2   170  THR170      0.2617
    109  O         -1.5950    8.2280    4.0320 O.2   170  THR170     -0.2717
    110  CB        -1.5840    8.6260    6.9190 C.3   170  THR170      0.1784
    111  OG1       -2.9430    8.1710    7.0070 O.3   170  THR170     -0.2211
    112  CG2       -1.1010    9.1080    8.2980 C.3   170  THR170      0.0376
    113  N         -2.8410   10.1040    3.9110 N.am  171  TYR171     -0.1975
    114  CA        -3.4150    9.7740    2.6060 C.3   171  TYR171      0.1639
    115  C         -2.4510    9.2680    1.5150 C.2   171  TYR171      0.2290
    116  O         -2.8470    8.4220    0.7360 O.2   171  TYR171     -0.2864
    117  CB        -4.2950   10.9170    2.0610 C.3   171  TYR171      0.0560
    118  CG        -5.1530   10.4480    0.8980 C.ar  171  TYR171     -0.0198
    119  CD1       -6.2160    9.5770    1.1090 C.ar  171  TYR171     -0.0009
    120  CD2       -4.8730   10.8370   -0.4020 C.ar  171  TYR171     -0.0009
    121  CE1       -6.9930    9.1190    0.0430 C.ar  171  TYR171      0.0417
    122  CE2       -5.6350   10.3830   -1.4640 C.ar  171  TYR171      0.0417
    123  CZ        -6.6910    9.5260   -1.2310 C.ar  171  TYR171      0.1957
    124  OH        -7.4540    9.0660   -2.2790 O.3   171  TYR171     -0.2866
    125  N         -2.5140    5.6170    1.3750 N.3   174  VAL174     -0.1245
    126  CA        -3.7920    4.9410    1.2010 C.3   174  VAL174      0.1561
    127  C         -3.9320    4.3380   -0.1980 C.2   174  VAL174      0.2260
    128  O         -3.7260    5.0160   -1.2010 O.2   174  VAL174     -0.2867
    129  CB        -4.9590    5.8990    1.4900 C.3   174  VAL174      0.0252
    130  CG1       -6.2900    5.2810    1.0880 C.3   174  VAL174      0.0019
    131  CG2       -4.9510    6.2760    2.9560 C.3   174  VAL174      0.0019
    132  N         -6.8770   -0.3820    4.4740 N.3   180  SER180     -0.1217
    133  CA        -6.8180    1.0710    4.2930 C.3   180  SER180      0.1889
    134  C         -8.2060    1.6820    4.2400 C.2   180  SER180      0.2288
    135  O         -8.4520    2.7220    4.8460 O.2   180  SER180     -0.2866
    136  CB        -6.0180    1.4800    3.0500 C.3   180  SER180      0.2089
    137  OG        -4.6340    1.5230    3.3370 O.3   180  SER180     -0.2183
    138  N         -9.7760    2.2700    7.4840 N.3   183  GLY183     -0.1210
    139  CA        -9.2230    3.4780    8.0740 C.3   183  GLY183      0.1956
    140  C         -9.9030    4.7220    7.5250 C.2   183  GLY183      0.2612
    141  O        -10.2060    5.6430    8.2880 O.2   183  GLY183     -0.2717
    142  N        -10.1500    4.7520    6.2150 N.am  184  THR184     -0.1952
    143  CA       -10.7960    5.9180    5.5870 C.3   184  THR184      0.1897
    144  C        -12.2240    6.1090    6.0760 C.2   184  THR184      0.2313
    145  O        -12.7770    7.1960    5.9610 O.2   184  THR184     -0.2863
    146  CB       -10.8410    5.8260    4.0370 C.3   184  THR184      0.1794
    147  OG1      -11.7360    4.7790    3.6250 O.3   184  THR184     -0.2208
    148  CG2       -9.4460    5.5910    3.4580 C.3   184  THR184      0.0378
    149  N        -11.2530    7.2780   10.6880 N.3   187  PHE187     -0.1241
    150  CA       -10.3310    8.2420   11.3110 C.3   187  PHE187      0.1605
    151  C        -10.4930    9.6820   10.8450 C.2   187  PHE187      0.2264
    152  O        -10.6410    9.9510    9.6520 O.2   187  PHE187     -0.2867
    153  CB        -8.8750    7.7750   11.1650 C.3   187  PHE187      0.0534
    154  CG        -8.5850    6.4930   11.8990 C.ar  187  PHE187     -0.0203
    155  CD1       -8.2690    6.5080   13.2470 C.ar  187  PHE187     -0.0042
    156  CD2       -8.6550    5.2750   11.2420 C.ar  187  PHE187     -0.0042
    157  CE1       -8.0070    5.3210   13.9290 C.ar  187  PHE187     -0.0003
    158  CE2       -8.3980    4.0900   11.9140 C.ar  187  PHE187     -0.0003
    159  CZ        -8.0850    4.1140   13.2530 C.ar  187  PHE187     -0.0000
    160  N         -2.0290   -4.4980   14.9420 N.3   227  MET227     -0.1230
    161  CA        -2.2230   -3.1080   14.5360 C.3   227  MET227      0.1702
    162  C         -0.8950   -2.3470   14.5000 C.2   227  MET227      0.2593
    163  O         -0.0070   -2.5730   15.3180 O.2   227  MET227     -0.2718
    164  CB        -3.2170   -2.4170   15.4730 C.3   227  MET227      0.0401
    165  CG        -3.5110   -0.9690   15.1240 C.3   227  MET227      0.0596
    166  SD        -4.9420   -0.3580   16.0450 S.3   227  MET227     -0.1393
    167  CE        -4.7870   -1.2820   17.5820 C.3   227  MET227      0.0692
    168  N         -0.7540   -1.4350   13.5430 N.am  228  GLY228     -0.1942
    169  CA         0.4980   -0.7230   13.4090 C.3   228  GLY228      0.2014
    170  C          0.6270   -0.0410   12.0650 C.2   228  GLY228      0.2638
    171  O         -0.3520    0.0520   11.3100 O.2   228  GLY228     -0.2714
    172  N          1.8260    0.4560   11.7810 N.am  229  TRP229     -0.1973
    173  CA         2.1150    1.0200   10.4620 C.3   229  TRP229      0.1640
    174  C          3.0570    0.1200    9.6960 C.2   229  TRP229      0.2290
    175  O          3.9610   -0.4860   10.2750 O.2   229  TRP229     -0.2864
    176  CB         2.8660    2.3380   10.5550 C.3   229  TRP229      0.0576
    177  CG         2.1630    3.5490   11.0460 C.ar  229  TRP229      0.0006
    178  CD1        2.6430    4.4280   11.9710 C.ar  229  TRP229      0.0946
    179  CD2        0.9030    4.0820   10.6060 C.ar  229  TRP229      0.0152
    180  NE1        1.7660    5.4650   12.1460 N.ar  229  TRP229     -0.2442
    181  CE2        0.6850    5.2780   11.3290 C.ar  229  TRP229      0.0810
    182  CE3       -0.0500    3.6780    9.6690 C.ar  229  TRP229      0.0012
    183  CZ2       -0.4440    6.0660   11.1470 C.ar  229  TRP229      0.0191
    184  CZ3       -1.1780    4.4630    9.4940 C.ar  229  TRP229      0.0001
    185  CH2       -1.3640    5.6440   10.2320 C.ar  229  TRP229      0.0015
    186  N         -1.6550    1.8380    7.0400 N.3   238  LEU238     -0.1245
    187  CA        -2.2970    1.1620    8.1570 C.3   238  LEU238      0.1561
    188  C         -2.1900   -0.3410    8.0350 C.2   238  LEU238      0.2260
    189  O         -2.4910   -0.9090    6.9870 O.2   238  LEU238     -0.2867
    190  CB        -3.7670    1.5660    8.2550 C.3   238  LEU238      0.0270
    191  CG        -4.5960    0.9370    9.3820 C.3   238  LEU238      0.0019
    192  CD1       -4.0450    1.3030   10.7620 C.3   238  LEU238      0.0001
    193  CD2       -6.0480    1.3740    9.2520 C.3   238  LEU238      0.0001
    194  N         -7.5870    8.6410   16.9630 N.3   311  SER311     -0.1217
    195  CA        -6.4730    7.9070   17.5660 C.3   311  SER311      0.1889
    196  C         -6.3440    8.3470   19.0250 C.2   311  SER311      0.2288
    197  O         -7.3400    8.3990   19.7510 O.2   311  SER311     -0.2866
    198  CB        -5.1720    8.1300   16.7730 C.3   311  SER311      0.2089
    199  OG        -4.1020    7.3270   17.2650 O.3   311  SER311     -0.2183
    200  N         -1.5480   -0.3510   19.1220 N.3   340  PRO340     -0.2116
    201  CA        -0.4470   -1.1550   18.5790 C.3   340  PRO340      0.1372
    202  C          0.3780   -1.7670   19.6990 C.2   340  PRO340      0.2244
    203  O          0.7370   -1.0850   20.6670 O.2   340  PRO340     -0.2868
    204  CB         0.3750   -0.1330   17.7850 C.3   340  PRO340      0.0268
    205  CG        -0.6310    0.8980   17.3740 C.3   340  PRO340      0.0207
    206  CD        -1.5640    1.0150   18.5540 C.3   340  PRO340      0.0892
@<TRIPOS>BOND
     1    23    22    2
     2    22    21    1
     3    21    20    1
     4    21    24    1
     5    24    25    1
     6    26    25   ar
     7    26    28   ar
     8    25    27   ar
     9    12    11    2
    10    28    30   ar
    11    11    10    1
    12    27    29   ar
    13   124   123    1
    14    60    61    2
    15    60    59    1
    16    30    29   ar
    17     9    10    1
    18    10    13    1
    19   122   123   ar
    20   122   120   ar
    21   123   121   ar
    22   128   127    2
    23    58    59    1
    24    59    62    1
    25   120   118   ar
    26    15    17   ar
    27    15    14   ar
    28    13    14    1
    29    53    52    2
    30    17    19   ar
    31   127   126    1
    32    14    16   ar
    33    52    51    1
    34   121   119   ar
    35    19    18   ar
    36    62    63    1
    37    16    18   ar
    38   116   115    2
    39     4     3    2
    40   118   119   ar
    41   118   117    1
    42    55    57    1
    43    55    54    1
    44    55    56    1
    45   130   129    1
    46   126   125    1
    47   126   129    1
    48    51    54    1
    49    51    50    1
    50   129   131    1
    51   115   114    1
    52    63    65   ar
    53    63    64   ar
    54     3     2    1
    55   117   114    1
    56    65    67   ar
    57    64    66   ar
    58   114   113    1
    59     2     1    1
    60     2     5    1
    61   136   137    1
    62   136   133    1
    63    67    68   ar
    64   148   146    1
    65   147   146    1
    66    66    68   ar
    67     7     5    1
    68   113   108   am
    69   109   108    2
    70   146   143    1
    71     5     6    1
    72    68    69    1
    73   134   133    1
    74   134   135    2
    75   133   132    1
    76   108   107    1
    77     6     8    1
    78   103   102    2
    79    48    47    1
    80   143   144    1
    81   143   142    1
    82   107   106    1
    83   107   110    1
    84   145   144    2
    85   142   140   am
    86   102   101    1
    87    47    46    1
    88    47    49    1
    89    41    39    1
    90   104   101    1
    91   104   105    1
    92    46    43    1
    93   110   111    1
    94   110   112    1
    95   189   188    2
    96   186   187    1
    97   101   100    1
    98   138   139    1
    99   140   139    1
   100   140   141    2
   101    39    40    1
   102    39    38    2
   103   188   187    1
   104    97    96    2
   105   187   190    1
   106   190   191    1
   107    45    44    2
   108    44    43    1
   109    43    42    1
   110   100    96   am
   111    38    37    1
   112    96    95    1
   113   193   191    1
   114   191   192    1
   115    34    33    2
   116   184   182   ar
   117   184   185   ar
   118   152   151    2
   119   182   179   ar
   120   174   175    2
   121   174   173    1
   122    37    36    1
   123    35    36    1
   124    35    32    1
   125   185   183   ar
   126    95    98    1
   127    95    94    1
   128    31    32    1
   129    80    79    2
   130    33    32    1
   131   173   176    1
   132   173   172    1
   133   176   177    1
   134   179   177   ar
   135   179   181   ar
   136   149   150    1
   137   151   150    1
   138    98    99    1
   139   177   178   ar
   140   183   181   ar
   141   153   150    1
   142   153   154    1
   143   156   154   ar
   144   156   158   ar
   145   171   170    2
   146   181   180   ar
   147    79    78    1
   148   172   170   am
   149   154   155   ar
   150   158   159   ar
   151   178   180   ar
   152   170   169    1
   153    81    78    1
   154    81    83    1
   155    81    82    1
   156    78    77    1
   157    73    72    2
   158   155   157   ar
   159   159   157   ar
   160   169   168    1
   161   168   162   am
   162    77    72   am
   163    72    71    1
   164   162   161    1
   165   162   163    2
   166   161   160    1
   167   161   164    1
   168   165   164    1
   169   165   166    1
   170    76    74    1
   171    75    74    1
   172    71    74    1
   173    71    70    1
   174   166   167    1
   175   198   199    1
   176   198   195    1
   177   194   195    1
   178   205   204    1
   179   205   206    1
   180   195   196    1
   181    93    92    1
   182   204   201    1
   183   206   200    1
   184   201   200    1
   185   201   202    1
   186    85    84    1
   187    85    86    1
   188   196   197    2
   189    88    86   am
   190    88    89    1
   191    92    89    1
   192    86    87    2
   193   202   203    2
   194    89    90    1
   195    90    91    2
