@<TRIPOS>MOLECULE
tmp/4javA00.pdb
 171 163 0 0 0
SMALL
GASTEIGER

@<TRIPOS>ATOM
      1  N         23.4280  -37.0760  -15.4160 N.3   144  LEU144     -0.1245
      2  CA        22.5270  -37.9900  -16.1110 C.3   144  LEU144      0.1561
      3  C         22.6620  -39.4120  -15.5800 C.2   144  LEU144      0.2260
      4  O         21.6570  -40.0640  -15.2830 O.2   144  LEU144     -0.2867
      5  CB        22.7680  -37.9520  -17.6230 C.3   144  LEU144      0.0270
      6  CG        22.5580  -36.6110  -18.3320 C.3   144  LEU144      0.0019
      7  CD1       22.9890  -36.7140  -19.7840 C.3   144  LEU144      0.0001
      8  CD2       21.1160  -36.1290  -18.2400 C.3   144  LEU144      0.0001
      9  N         21.1720  -39.7580  -12.1620 N.3   147  ASN147     -0.1225
     10  CA        19.7160  -39.8280  -12.2830 C.3   147  ASN147      0.1785
     11  C         19.2280  -41.2080  -12.7070 C.2   147  ASN147      0.2597
     12  O         18.1870  -41.6720  -12.2460 O.2   147  ASN147     -0.2718
     13  CB        19.2080  -38.7670  -13.2620 C.3   147  ASN147      0.1169
     14  CG        19.1930  -37.3690  -12.6650 C.2   147  ASN147      0.2627
     15  OD1       19.4290  -37.1770  -11.4710 O.2   147  ASN147     -0.2716
     16  ND2       18.9090  -36.3810  -13.5010 N.am  147  ASN147     -0.0877
     17  N         19.9930  -41.8590  -13.5800 N.am  148  GLY148     -0.1957
     18  CA        19.6710  -43.2050  -14.0540 C.3   148  GLY148      0.1869
     19  C         19.7140  -44.2570  -12.9600 C.2   148  GLY148      0.2309
     20  O         19.0000  -45.2610  -13.0220 O.2   148  GLY148     -0.2863
     21  N         19.4940  -43.2260   -9.5440 N.3   150  LYS150     -0.1231
     22  CA        18.6040  -42.7000   -8.5200 C.3   150  LYS150      0.1693
     23  C         17.1430  -43.0060   -8.8270 C.2   150  LYS150      0.2592
     24  O         16.3650  -43.2950   -7.9190 O.2   150  LYS150     -0.2718
     25  CB        18.8020  -41.1930   -8.3710 C.3   150  LYS150      0.0285
     26  CG        18.4560  -40.6610   -6.9920 C.3   150  LYS150      0.0035
     27  CD        18.0400  -39.1990   -7.0380 C.3   150  LYS150      0.0206
     28  CE        19.2250  -38.2680   -7.2300 C.3   150  LYS150      0.1093
     29  NZ        18.7700  -36.8540   -7.3010 N.3   150  LYS150     -0.1314
     30  N         16.7820  -42.9540  -10.1080 N.am  151  TYR151     -0.1976
     31  CA        15.3920  -43.1540  -10.5320 C.3   151  TYR151      0.1639
     32  C         15.1670  -44.4700  -11.2890 C.2   151  TYR151      0.2290
     33  O         14.2650  -44.5790  -12.1260 O.2   151  TYR151     -0.2864
     34  CB        14.8960  -41.9420  -11.3330 C.3   151  TYR151      0.0560
     35  CG        14.9590  -40.6470  -10.5530 C.ar  151  TYR151     -0.0198
     36  CD1       14.0460  -40.3800   -9.5350 C.ar  151  TYR151     -0.0009
     37  CD2       15.9390  -39.6940  -10.8240 C.ar  151  TYR151     -0.0009
     38  CE1       14.1030  -39.2000   -8.8140 C.ar  151  TYR151      0.0417
     39  CE2       16.0050  -38.5090  -10.1080 C.ar  151  TYR151      0.0417
     40  CZ        15.0850  -38.2690   -9.1020 C.ar  151  TYR151      0.1957
     41  OH        15.1350  -37.0930   -8.3820 O.3   151  TYR151     -0.2866
     42  N         18.1380  -45.2670  -19.6860 N.3   178  ASP178     -0.1239
     43  CA        17.8180  -46.0910  -18.5290 C.3   178  ASP178      0.1674
     44  C         16.4870  -46.8110  -18.7160 C.2   178  ASP178      0.2266
     45  O         15.6100  -46.3380  -19.4440 O.2   178  ASP178     -0.2867
     46  CB        17.8040  -45.2540  -17.2430 C.3   178  ASP178      0.1410
     47  CG        16.6750  -44.2330  -17.2120 C.2   178  ASP178      0.3668
     48  OD1       15.5130  -44.6190  -16.9540 O.co2 178  ASP178     -0.2456
     49  OD2       16.9570  -43.0350  -17.4250 O.co2 178  ASP178     -0.2456
     50  N         12.0000  -45.8810  -13.8630 N.3   181  ILE181     -0.1231
     51  CA        10.5720  -45.6130  -13.6710 C.3   181  ILE181      0.1692
     52  C          9.9140  -44.7920  -14.7900 C.2   181  ILE181      0.2593
     53  O          8.6960  -44.8580  -14.9640 O.2   181  ILE181     -0.2718
     54  CB        10.2830  -44.9590  -12.2980 C.3   181  ILE181      0.0266
     55  CG1       10.9610  -43.5880  -12.1820 C.3   181  ILE181      0.0019
     56  CG2       10.7150  -45.8850  -11.1700 C.3   181  ILE181      0.0020
     57  CD1       10.3150  -42.6620  -11.1720 C.3   181  ILE181      0.0001
     58  N         10.7130  -44.0280  -15.5370 N.am  182  GLY182     -0.1942
     59  CA        10.1970  -43.1920  -16.6250 C.3   182  GLY182      0.2014
     60  C          9.5670  -41.8920  -16.1520 C.2   182  GLY182      0.2638
     61  O          9.3590  -41.6940  -14.9550 O.2   182  GLY182     -0.2714
     62  N          9.2570  -41.0050  -17.0970 N.am  183  ILE183     -0.1977
     63  CA         8.7470  -39.6700  -16.7710 C.3   183  ILE183      0.1596
     64  C          7.3670  -39.4160  -17.3790 C.2   183  ILE183      0.2287
     65  O          7.1930  -39.5540  -18.5920 O.2   183  ILE183     -0.2864
     66  CB         9.7200  -38.5590  -17.2360 C.3   183  ILE183      0.0276
     67  CG1       11.1400  -38.8350  -16.7220 C.3   183  ILE183      0.0022
     68  CG2        9.2340  -37.1880  -16.7770 C.3   183  ILE183      0.0022
     69  CD1       12.2430  -38.1770  -17.5230 C.3   183  ILE183      0.0001
     70  N         11.1850  -30.8750  -16.1950 N.3   191  ILE191     -0.1245
     71  CA        12.3200  -31.4700  -15.4730 C.3   191  ILE191      0.1561
     72  C         13.6250  -30.6740  -15.5640 C.2   191  ILE191      0.2260
     73  O         14.4860  -30.7850  -14.6830 O.2   191  ILE191     -0.2867
     74  CB        12.5840  -32.9410  -15.8750 C.3   191  ILE191      0.0252
     75  CG1       12.6490  -33.0930  -17.3970 C.3   191  ILE191      0.0019
     76  CG2       11.5380  -33.8640  -15.2630 C.3   191  ILE191      0.0019
     77  CD1       13.3860  -34.3360  -17.8500 C.3   191  ILE191      0.0001
     78  N         12.9220  -28.0120   -9.9360 N.3   196  TYR196     -0.1227
     79  CA        11.7700  -28.8440  -10.2510 C.3   196  TYR196      0.1736
     80  C         12.0730  -30.3250  -10.0410 C.2   196  TYR196      0.2595
     81  O         13.0790  -30.8480  -10.5240 O.2   196  TYR196     -0.2718
     82  CB        11.2460  -28.6030  -11.6710 C.3   196  TYR196      0.0548
     83  CG         9.9950  -29.4090  -11.9670 C.ar  196  TYR196     -0.0200
     84  CD1        8.7290  -28.8970  -11.6790 C.ar  196  TYR196     -0.0009
     85  CD2       10.0760  -30.6980  -12.5040 C.ar  196  TYR196     -0.0009
     86  CE1        7.5820  -29.6340  -11.9320 C.ar  196  TYR196      0.0417
     87  CE2        8.9350  -31.4420  -12.7570 C.ar  196  TYR196      0.0417
     88  CZ         7.6920  -30.9050  -12.4700 C.ar  196  TYR196      0.1957
     89  OH         6.5560  -31.6350  -12.7220 O.3   196  TYR196     -0.2866
     90  N         11.1800  -30.9830   -9.3120 N.am  197  ARG197     -0.1966
     91  CA        11.2280  -32.4220   -9.1110 C.3   197  ARG197      0.1729
     92  C          9.8390  -33.0110   -9.3520 C.2   197  ARG197      0.2616
     93  O          8.8290  -32.3880   -9.0110 O.2   197  ARG197     -0.2715
     94  CB        11.6960  -32.7470   -7.6950 C.3   197  ARG197      0.0348
     95  CG        13.1320  -32.3470   -7.3990 C.3   197  ARG197      0.0492
     96  CD        13.5620  -32.8450   -6.0320 C.3   197  ARG197      0.2205
     97  NE        13.8800  -34.2700   -6.0480 N.pl3 197  ARG197     -0.0865
     98  CZ        13.6030  -35.1100   -5.0550 C.cat 197  ARG197      0.5346
     99  NH1       12.9840  -34.6750   -3.9640 N.pl3 197  ARG197      0.1354
    100  NH2       13.9360  -36.3910   -5.1590 N.pl3 197  ARG197      0.1354
    101  N          9.7880  -34.2010   -9.9470 N.am  198  VAL198     -0.1977
    102  CA         8.5120  -34.8740  -10.1840 C.3   198  VAL198      0.1596
    103  C          8.0290  -35.5100   -8.8840 C.2   198  VAL198      0.2287
    104  O          8.7430  -36.2970   -8.2570 O.2   198  VAL198     -0.2864
    105  CB         8.5920  -35.9220  -11.3200 C.3   198  VAL198      0.0276
    106  CG1        7.2140  -36.4980  -11.6230 C.3   198  VAL198      0.0022
    107  CG2        9.1820  -35.3020  -12.5780 C.3   198  VAL198      0.0022
    108  N          8.6420  -41.7500   -7.0330 N.3   203  THR203     -0.1218
    109  CA         9.6470  -40.7340   -6.7080 C.3   203  THR203      0.1862
    110  C          9.3500  -39.8270   -5.5100 C.2   203  THR203      0.2287
    111  O          9.1620  -38.6130   -5.6480 O.2   203  THR203     -0.2866
    112  CB        10.0480  -39.8650   -7.9300 C.3   203  THR203      0.1770
    113  OG1       10.6030  -38.6210   -7.4830 O.3   203  THR203     -0.2211
    114  CG2        8.8540  -39.5760   -8.8250 C.3   203  THR203      0.0375
    115  N         16.5610  -35.3260   -3.3920 N.3   208  GLY208     -0.1210
    116  CA        17.0380  -34.4340   -4.4370 C.3   208  GLY208      0.1956
    117  C         16.6980  -32.9850   -4.1770 C.2   208  GLY208      0.2613
    118  O         15.8620  -32.6730   -3.3270 O.2   208  GLY208     -0.2717
    119  N         17.3560  -32.1000   -4.9180 N.am  209  THR209     -0.1938
    120  CA        17.1160  -30.6620   -4.8140 C.3   209  THR209      0.2028
    121  C         16.6420  -30.0920   -6.1490 C.2   209  THR209      0.2643
    122  O         16.1640  -28.9580   -6.2120 O.2   209  THR209     -0.2714
    123  CB        18.3680  -29.9000   -4.3250 C.3   209  THR209      0.1808
    124  OG1       19.5130  -30.3160   -5.0810 O.3   209  THR209     -0.2208
    125  CG2       18.6220  -30.1660   -2.8420 C.3   209  THR209      0.0379
    126  N         16.7770  -30.8860   -7.2100 N.am  210  GLY210     -0.1939
    127  CA        16.2690  -30.5170   -8.5280 C.3   210  GLY210      0.2014
    128  C         17.1220  -29.5180   -9.2840 C.2   210  GLY210      0.2639
    129  O         16.5910  -28.6570   -9.9890 O.2   210  GLY210     -0.2714
    130  N         18.4410  -29.6390   -9.1450 N.am  211  LEU211     -0.1963
    131  CA        19.3890  -28.7740   -9.8510 C.3   211  LEU211      0.1728
    132  C         20.0980  -29.4880  -10.9920 C.2   211  LEU211      0.2617
    133  O         20.4220  -28.8690  -12.0060 O.2   211  LEU211     -0.2715
    134  CB        20.4400  -28.2180   -8.8900 C.3   211  LEU211      0.0311
    135  CG        20.1070  -26.9690   -8.0800 C.3   211  LEU211      0.0022
    136  CD1       19.2220  -27.3300   -6.9010 C.3   211  LEU211      0.0001
    137  CD2       21.3910  -26.3240   -7.5880 C.3   211  LEU211      0.0001
    138  N         20.3460  -30.7840  -10.8100 N.am  212  GLY212     -0.1940
    139  CA        21.0700  -31.6070  -11.7780 C.3   212  GLY212      0.2014
    140  C         20.8450  -31.2420  -13.2350 C.2   212  GLY212      0.2639
    141  O         21.7900  -30.9070  -13.9490 O.2   212  GLY212     -0.2714
    142  N         19.5870  -31.2910  -13.6670 N.am  213  LEU213     -0.1963
    143  CA        19.2380  -31.0370  -15.0630 C.3   213  LEU213      0.1728
    144  C         19.2380  -29.5510  -15.4180 C.2   213  LEU213      0.2616
    145  O         19.6290  -29.1790  -16.5250 O.2   213  LEU213     -0.2715
    146  CB        17.8880  -31.6770  -15.4090 C.3   213  LEU213      0.0311
    147  CG        17.7740  -33.2000  -15.2860 C.3   213  LEU213      0.0022
    148  CD1       16.3400  -33.6470  -15.5220 C.3   213  LEU213      0.0001
    149  CD2       18.7270  -33.9130  -16.2360 C.3   213  LEU213      0.0001
    150  N         18.7970  -28.7120  -14.4810 N.am  214  ALA214     -0.1977
    151  CA        18.8170  -27.2570  -14.6570 C.3   214  ALA214      0.1597
    152  C         20.2120  -26.7500  -15.0260 C.2   214  ALA214      0.2287
    153  O         20.3620  -25.9630  -15.9620 O.2   214  ALA214     -0.2864
    154  CB        18.3120  -26.5670  -13.4060 C.3   214  ALA214      0.0319
    155  N         13.7670  -44.1520  -19.5740 N.3   237  SER237     -0.1217
    156  CA        14.0250  -42.8040  -20.0860 C.3   237  SER237      0.1889
    157  C         15.2490  -42.7300  -20.9980 C.2   237  SER237      0.2288
    158  O         16.2170  -43.4710  -20.8110 O.2   237  SER237     -0.2866
    159  CB        14.1770  -41.8170  -18.9250 C.3   237  SER237      0.2089
    160  OG        13.0400  -41.8410  -18.0770 O.3   237  SER237     -0.2183
    161  N         17.7900  -39.6600  -22.4450 N.3   239  PHE239     -0.1241
    162  CA        18.2100  -38.2660  -22.4840 C.3   239  PHE239      0.1605
    163  C         19.1780  -38.0400  -23.6390 C.2   239  PHE239      0.2264
    164  O         20.1790  -38.7480  -23.7740 O.2   239  PHE239     -0.2867
    165  CB        18.8410  -37.8590  -21.1540 C.3   239  PHE239      0.0534
    166  CG        17.8430  -37.6320  -20.0530 C.ar  239  PHE239     -0.0203
    167  CD1       17.3110  -38.7010  -19.3410 C.ar  239  PHE239     -0.0042
    168  CD2       17.4380  -36.3430  -19.7220 C.ar  239  PHE239     -0.0042
    169  CE1       16.3920  -38.4870  -18.3240 C.ar  239  PHE239     -0.0003
    170  CE2       16.5180  -36.1240  -18.7060 C.ar  239  PHE239     -0.0003
    171  CZ        15.9950  -37.1980  -18.0060 C.ar  239  PHE239     -0.0000
@<TRIPOS>BOND
     1   164   163    2
     2   163   162    1
     3   162   161    1
     4   162   165    1
     5   165   166    1
     6   157   158    2
     7   157   156    1
     8   156   155    1
     9   156   159    1
    10   166   168   ar
    11   166   167   ar
    12     7     6    1
    13   168   170   ar
    14    42    43    1
    15    45    44    2
    16   167   169   ar
    17   159   160    1
    18    44    43    1
    19   170   171   ar
    20    65    64    2
    21    43    46    1
    22     6     8    1
    23     6     5    1
    24   169   171   ar
    25    77    75    1
    26     5     2    1
    27    69    67    1
    28    49    47   ar
    29    75    74    1
    30    64    63    1
    31    46    47    1
    32    66    68    1
    33    66    63    1
    34    66    67    1
    35    47    48   ar
    36    62    63    1
    37    62    60   am
    38    59    60    1
    39    59    58    1
    40   145   144    2
    41   149   147    1
    42    70    71    1
    43    60    61    2
    44     2     3    1
    45     2     1    1
    46   153   152    2
    47    74    71    1
    48    74    76    1
    49     3     4    2
    50    72    71    1
    51    72    73    2
    52    58    52   am
    53   148   147    1
    54   144   143    1
    55   144   150   am
    56   146   147    1
    57   146   143    1
    58   143   142    1
    59   152   151    1
    60    53    52    2
    61    52    51    1
    62   151   150    1
    63   151   154    1
    64    18    17    1
    65    18    19    1
    66   141   140    2
    67    50    51    1
    68    51    54    1
    69   142   140   am
    70    17    11   am
    71    16    14   am
    72    13    14    1
    73    13    10    1
    74   140   139    1
    75    20    19    2
    76    87    85   ar
    77    87    88   ar
    78    89    88    1
    79    11    10    1
    80    11    12    2
    81    14    15    2
    82   107   105    1
    83    85    83   ar
    84    88    86   ar
    85    54    55    1
    86    54    56    1
    87    10     9    1
    88    55    57    1
    89    33    32    2
    90   133   132    2
    91    83    84   ar
    92    83    82    1
    93    86    84   ar
    94   139   138    1
    95    82    79    1
    96   106   105    1
    97    34    35    1
    98    34    31    1
    99   105   102    1
   100    32    31    1
   101   132   138   am
   102   132   131    1
   103    37    35   ar
   104    37    39   ar
   105    35    36   ar
   106    31    30    1
   107    81    80    2
   108    79    80    1
   109    79    78    1
   110   102   101    1
   111   102   103    1
   112    39    40   ar
   113    30    23   am
   114    80    90   am
   115   129   128    2
   116   101    92   am
   117   131   130    1
   118   131   134    1
   119    21    22    1
   120    36    38   ar
   121    92    91    1
   122    92    93    2
   123    90    91    1
   124   128   130   am
   125   128   127    1
   126    91    94    1
   127    40    38   ar
   128    40    41    1
   129   134   135    1
   130   103   104    2
   131    23    22    1
   132    23    24    2
   133   114   112    1
   134   127   126    1
   135    22    25    1
   136    25    26    1
   137   135   137    1
   138   135   136    1
   139   112   113    1
   140   112   109    1
   141    94    95    1
   142    95    96    1
   143    29    28    1
   144    28    27    1
   145   126   121   am
   146    27    26    1
   147   108   109    1
   148   109   110    1
   149   122   121    2
   150   121   120    1
   151    97    96    1
   152    97    98    2
   153   111   110    2
   154   100    98    1
   155   124   123    1
   156    98    99    1
   157   119   120    1
   158   119   117   am
   159   120   123    1
   160   116   117    1
   161   116   115    1
   162   123   125    1
   163   117   118    2
