@<TRIPOS>MOLECULE
tmp/4jawB01.pdb
 127 127 0 0 0
SMALL
GASTEIGER

@<TRIPOS>ATOM
      1  N         42.5230    8.5940   61.1610 N.3   230  ASN230     -0.1240
      2  CA        42.4290    7.1520   61.0090 C.3   230  ASN230      0.1653
      3  C         42.5290    6.4790   62.4170 C.2   230  ASN230      0.2266
      4  O         43.3880    6.8910   63.2090 O.2   230  ASN230     -0.2867
      5  CB        43.5710    6.6690   60.1530 C.3   230  ASN230      0.1155
      6  CG        43.2200    5.4020   59.4740 C.2   230  ASN230      0.2627
      7  OD1       42.2530    4.7260   59.8920 O.2   230  ASN230     -0.2716
      8  ND2       43.9940    4.9960   58.4130 N.am  230  ASN230     -0.0877
      9  N         46.8380    2.6290   61.9140 N.3   234  HIS234     -0.1241
     10  CA        47.5740    3.8200   61.3360 C.3   234  HIS234      0.1621
     11  C         47.5430    5.0130   62.2170 C.2   234  HIS234      0.2264
     12  O         47.4990    6.1290   61.7510 O.2   234  HIS234     -0.2867
     13  CB        47.0100    4.2240   59.9550 C.3   234  HIS234      0.0745
     14  CG        47.3340    3.2330   58.9000 C.ar  234  HIS234      0.0817
     15  ND1       48.6170    3.1120   58.3650 N.ar  234  HIS234     -0.2268
     16  CD2       46.4960    2.2990   58.2360 C.ar  234  HIS234      0.1154
     17  CE1       48.5870    2.1470   57.4040 C.ar  234  HIS234      0.1986
     18  NE2       47.2810    1.6510   57.3300 N.ar  234  HIS234     -0.2212
     19  N         40.7720    1.3110   58.5030 N.3   291  ASP291     -0.1225
     20  CA        41.4360    0.3200   57.5800 C.3   291  ASP291      0.1805
     21  C         42.6500   -0.2850   58.2210 C.2   291  ASP291      0.2597
     22  O         43.3640    0.3990   59.0410 O.2   291  ASP291     -0.2718
     23  CB        41.8640    1.0430   56.2470 C.3   291  ASP291      0.1424
     24  CG        42.8380    2.2020   56.5040 C.2   291  ASP291      0.3668
     25  OD1       42.5330    3.2030   57.1780 O.co2 291  ASP291     -0.2456
     26  OD2       44.0100    2.2580   55.9240 O.co2 291  ASP291     -0.2456
     27  N         43.0050   -1.5160   57.8250 N.am  292  GLU292     -0.1979
     28  CA        44.3880   -1.9760   58.0940 C.3   292  GLU292      0.1602
     29  C         44.8280   -1.9940   59.5800 C.2   292  GLU292      0.2287
     30  O         46.0210   -1.8660   59.9000 O.2   292  GLU292     -0.2864
     31  CB        45.3880   -1.2140   57.1760 C.3   292  GLU292      0.0415
     32  CG        45.1500   -1.4790   55.6730 C.3   292  GLU292      0.1163
     33  CD        46.1920   -0.8600   54.7790 C.2   292  GLU292      0.3649
     34  OE1       46.8980    0.1360   55.2040 O.co2 292  GLU292     -0.2457
     35  OE2       46.3490   -1.4070   53.6200 O.co2 292  GLU292     -0.2457
     36  N         36.2580    3.1710   55.8410 N.3   344  TRP344     -0.1241
     37  CA        36.6510    2.2990   54.7120 C.3   344  TRP344      0.1605
     38  C         36.0310    0.9290   54.8440 C.2   344  TRP344      0.2264
     39  O         35.8570    0.4680   55.9920 O.2   344  TRP344     -0.2867
     40  CB        38.1880    2.1510   54.7420 C.3   344  TRP344      0.0550
     41  CG        38.9540    3.4690   54.5690 C.ar  344  TRP344      0.0003
     42  CD1       39.8190    4.0860   55.4640 C.ar  344  TRP344      0.0946
     43  CD2       38.9560    4.3180   53.3930 C.ar  344  TRP344      0.0152
     44  NE1       40.3370    5.2530   54.9260 N.ar  344  TRP344     -0.2442
     45  CE2       39.7930    5.4920   53.6990 C.ar  344  TRP344      0.0810
     46  CE3       38.3020    4.2560   52.1370 C.ar  344  TRP344      0.0012
     47  CZ2       40.0370    6.4840   52.7650 C.ar  344  TRP344      0.0191
     48  CZ3       38.5820    5.2570   51.1690 C.ar  344  TRP344      0.0001
     49  CH2       39.4580    6.3480   51.4680 C.ar  344  TRP344      0.0015
     50  N         36.9890    0.2620   48.9670 N.3   365  TRP365     -0.1241
     51  CA        38.2270    0.2320   48.1870 C.3   365  TRP365      0.1605
     52  C         38.8520   -1.1420   48.1030 C.2   365  TRP365      0.2264
     53  O         39.5900   -1.3750   47.1250 O.2   365  TRP365     -0.2867
     54  CB        39.2590    1.1690   48.7920 C.3   365  TRP365      0.0550
     55  CG        39.8230    0.6520   50.1280 C.ar  365  TRP365      0.0003
     56  CD1       39.2370    0.7230   51.3880 C.ar  365  TRP365      0.0946
     57  CD2       41.1090   -0.0290   50.3010 C.ar  365  TRP365      0.0152
     58  NE1       40.0830    0.1620   52.3470 N.ar  365  TRP365     -0.2442
     59  CE2       41.2420   -0.2890   51.7180 C.ar  365  TRP365      0.0810
     60  CE3       42.1060   -0.4390   49.4270 C.ar  365  TRP365      0.0012
     61  CZ2       42.3330   -0.9920   52.2580 C.ar  365  TRP365      0.0191
     62  CZ3       43.2480   -1.1180   50.0070 C.ar  365  TRP365      0.0001
     63  CH2       43.3100   -1.3810   51.4030 C.ar  365  TRP365      0.0015
     64  N         43.4980    5.1150   42.4170 N.3   390  TYR390     -0.1241
     65  CA        44.5640    5.5360   43.3260 C.3   390  TYR390      0.1605
     66  C         45.7980    6.0400   42.5950 C.2   390  TYR390      0.2264
     67  O         46.2200    5.4570   41.5990 O.2   390  TYR390     -0.2867
     68  CB        45.0290    4.2840   44.1720 C.3   390  TYR390      0.0534
     69  CG        44.1360    3.9060   45.3090 C.ar  390  TYR390     -0.0201
     70  CD1       42.7730    4.3770   45.4630 C.ar  390  TYR390     -0.0009
     71  CD2       44.6390    2.9830   46.2730 C.ar  390  TYR390     -0.0009
     72  CE1       42.0560    3.9670   46.6420 C.ar  390  TYR390      0.0417
     73  CE2       43.9020    2.5960   47.4160 C.ar  390  TYR390      0.0417
     74  CZ        42.6350    3.0950   47.5350 C.ar  390  TYR390      0.1957
     75  OH        41.9510    2.7620   48.6490 O.3   390  TYR390     -0.2866
     76  N         49.8620    6.7520   44.1000 N.3   392  SER392     -0.1217
     77  CA        50.7450    6.7530   45.2660 C.3   392  SER392      0.1889
     78  C         52.0970    7.3500   44.7550 C.2   392  SER392      0.2288
     79  O         52.4850    7.1010   43.6380 O.2   392  SER392     -0.2866
     80  CB        51.0430    5.2870   45.7090 C.3   392  SER392      0.2089
     81  OG        52.1090    5.2920   46.7030 O.3   392  SER392     -0.2183
     82  N         54.1850    3.6540   45.4330 N.3   395  ALA395     -0.1245
     83  CA        53.6500    2.2960   45.0640 C.3   395  ALA395      0.1562
     84  C         53.2680    2.4220   43.6230 C.2   395  ALA395      0.2260
     85  O         52.1660    2.9230   43.2990 O.2   395  ALA395     -0.2867
     86  CB        52.5310    1.9380   45.9990 C.3   395  ALA395      0.0290
     87  N         49.8830    1.7200   41.9650 N.3   398  TYR398     -0.1241
     88  CA        48.7630    2.6920   42.0560 C.3   398  TYR398      0.1605
     89  C         49.1240    3.9220   41.2280 C.2   398  TYR398      0.2264
     90  O         49.6860    4.8880   41.7530 O.2   398  TYR398     -0.2867
     91  CB        48.5970    3.0700   43.4930 C.3   398  TYR398      0.0534
     92  CG        48.0440    1.9680   44.3590 C.ar  398  TYR398     -0.0201
     93  CD1       46.9760    1.1440   43.8870 C.ar  398  TYR398     -0.0009
     94  CD2       48.4960    1.8160   45.6810 C.ar  398  TYR398     -0.0009
     95  CE1       46.4200    0.1470   44.7500 C.ar  398  TYR398      0.0417
     96  CE2       47.9590    0.8260   46.5130 C.ar  398  TYR398      0.0417
     97  CZ        46.9250    0.0250   46.0300 C.ar  398  TYR398      0.1957
     98  OH        46.3520   -0.9120   46.9360 O.3   398  TYR398     -0.2866
     99  N         47.5990    9.3410   47.6000 N.3   436  TRP436     -0.1228
    100  CA        48.2990    8.8220   48.7970 C.3   436  TRP436      0.1722
    101  C         49.8150    9.1180   48.6960 C.2   436  TRP436      0.2437
    102  O         50.4260    8.9850   47.6120 O.2   436  TRP436     -0.2733
    103  CB        48.1860    7.2720   48.8370 C.3   436  TRP436      0.0563
    104  CG        46.7800    6.7750   48.8720 C.ar  436  TRP436      0.0003
    105  CD1       46.0470    6.0890   47.8430 C.ar  436  TRP436      0.0946
    106  CD2       45.9020    6.8320   50.0020 C.ar  436  TRP436      0.0152
    107  NE1       44.7880    5.8110   48.3230 N.ar  436  TRP436     -0.2442
    108  CE2       44.6360    6.1820   49.5980 C.ar  436  TRP436      0.0810
    109  CE3       46.0430    7.2890   51.3260 C.ar  436  TRP436      0.0012
    110  CZ2       43.5780    6.0740   50.4650 C.ar  436  TRP436      0.0191
    111  CZ3       44.9340    7.2000   52.2150 C.ar  436  TRP436      0.0001
    112  CH2       43.7400    6.5550   51.7820 C.ar  436  TRP436      0.0015
    113  N         50.4360    9.5660   49.8120 N.am  437  PRO437     -0.2718
    114  CA        51.8800    9.9180   49.7670 C.3   437  PRO437      0.1535
    115  C         52.7610    8.6490   49.8880 C.2   437  PRO437      0.2598
    116  O         53.6510    8.4940   49.0540 O.2   437  PRO437     -0.2715
    117  CB        52.0680   10.8670   50.9980 C.3   437  PRO437      0.0310
    118  CG        50.9780   10.3830   52.0080 C.3   437  PRO437      0.0237
    119  CD        49.7520    9.9000   51.1120 C.3   437  PRO437      0.0939
    120  N         52.4600    7.6890   50.8360 N.am  438  ASP438     -0.1972
    121  CA        53.3120    6.5180   51.0630 C.3   438  ASP438      0.1709
    122  C         54.8200    6.9780   51.0730 C.2   438  ASP438      0.2293
    123  O         55.0750    8.0470   51.6820 O.2   438  ASP438     -0.2864
    124  CB        53.0820    5.5230   49.9810 C.3   438  ASP438      0.1436
    125  CG        51.6620    4.9070   50.1030 C.2   438  ASP438      0.3671
    126  OD1       51.1270    4.8940   51.2850 O.co2 438  ASP438     -0.2456
    127  OD2       51.1490    4.4970   49.0260 O.co2 438  ASP438     -0.2456
@<TRIPOS>BOND
     1    89    90    2
     2    89    88    1
     3    67    66    2
     4    87    88    1
     5    88    91    1
     6    64    65    1
     7    66    65    1
     8    85    84    2
     9    65    68    1
    10    91    92    1
    11    84    83    1
    12    79    78    2
    13    93    92   ar
    14    93    95   ar
    15    76    77    1
    16    68    69    1
    17    92    94   ar
    18    95    97   ar
    19    78    77    1
    20    83    82    1
    21    83    86    1
    22    77    80    1
    23    69    70   ar
    24    69    71   ar
    25    70    72   ar
    26    94    96   ar
    27    80    81    1
    28    97    96   ar
    29    97    98    1
    30    71    73   ar
    31    72    74   ar
    32    53    52    2
    33    73    74   ar
    34    74    75    1
    35    99   100    1
    36   102   101    2
    37   105   107   ar
    38   105   104   ar
    39    52    51    1
    40    51    54    1
    41    51    50    1
    42   107   108   ar
    43   101   100    1
    44   101   113   am
    45    54    55    1
    46   100   103    1
    47   103   104    1
    48   104   106   ar
    49   127   125   ar
    50   116   115    2
    51    60    62   ar
    52    60    57   ar
    53   108   106   ar
    54   108   110   ar
    55   114   113    1
    56   114   115    1
    57   114   117    1
    58   113   119    1
    59   115   120   am
    60   124   125    1
    61   124   121    1
    62   106   109   ar
    63    62    63   ar
    64   125   126   ar
    65    55    57   ar
    66    55    56   ar
    67    57    59   ar
    68   110   112   ar
    69   120   121    1
    70   117   118    1
    71   121   122    1
    72   122   123    2
    73   119   118    1
    74    48    49   ar
    75    48    46   ar
    76   109   111   ar
    77    56    58   ar
    78    63    61   ar
    79    49    47   ar
    80    59    61   ar
    81    59    58   ar
    82   112   111   ar
    83    46    43   ar
    84    47    45   ar
    85    43    45   ar
    86    43    41   ar
    87    35    33   ar
    88    45    44   ar
    89    41    40    1
    90    41    42   ar
    91    37    40    1
    92    37    38    1
    93    37    36    1
    94    33    34   ar
    95    33    32    1
    96    38    39    2
    97    44    42   ar
    98    32    31    1
    99    26    24   ar
   100    23    24    1
   101    23    20    1
   102    24    25   ar
   103    31    28    1
   104    18    17   ar
   105    18    16   ar
   106    17    15   ar
   107    20    21    1
   108    20    19    1
   109    27    28    1
   110    27    21   am
   111    28    29    1
   112    21    22    2
   113    16    14   ar
   114    15    14   ar
   115     8     6   am
   116    14    13    1
   117     6     7    2
   118     6     5    1
   119    29    30    2
   120    13    10    1
   121     5     2    1
   122     2     1    1
   123     2     3    1
   124    10     9    1
   125    10    11    1
   126    12    11    2
   127     3     4    2
