@<TRIPOS>MOLECULE
tmp/4jayD02.pdb
 115 113 0 0 0
SMALL
GASTEIGER

@<TRIPOS>ATOM
      1  N         54.5390   27.1780  -13.7430 N.3   132  GLY132     -0.1210
      2  CA        55.5150   27.6420  -14.7490 C.3   132  GLY132      0.1956
      3  C         56.7620   26.7720  -14.9110 C.2   132  GLY132      0.2612
      4  O         57.6880   27.1410  -15.6200 O.2   132  GLY132     -0.2717
      5  N         56.7910   25.6090  -14.2770 N.am  133  VAL133     -0.1965
      6  CA        57.8840   24.6790  -14.4440 C.3   133  VAL133      0.1727
      7  C         57.3540   23.3760  -15.0260 C.2   133  VAL133      0.2616
      8  O         56.2390   22.9510  -14.7400 O.2   133  VAL133     -0.2715
      9  CB        58.6150   24.4010  -13.0990 C.3   133  VAL133      0.0290
     10  CG1       59.6330   23.3220  -13.2680 C.3   133  VAL133      0.0023
     11  CG2       59.3220   25.6780  -12.6180 C.3   133  VAL133      0.0023
     12  N         58.1720   22.7560  -15.8460 N.am  134  GLU134     -0.1977
     13  CA        57.8670   21.4820  -16.4170 C.3   134  GLU134      0.1602
     14  C         59.0370   20.5480  -16.2130 C.2   134  GLU134      0.2287
     15  O         60.1660   20.9750  -16.2250 O.2   134  GLU134     -0.2864
     16  CB        57.6290   21.6390  -17.9490 C.3   134  GLU134      0.0415
     17  CG        56.2370   22.0710  -18.2820 C.3   134  GLU134      0.1163
     18  CD        55.9930   22.1370  -19.7880 C.2   134  GLU134      0.3649
     19  OE1       56.9990   22.3090  -20.5620 O.co2 134  GLU134     -0.2457
     20  OE2       54.8010   22.0450  -20.1950 O.co2 134  GLU134     -0.2457
     21  N         60.5480   18.8570  -18.3130 N.3   136  LYS136     -0.1231
     22  CA        61.5730   18.9760  -19.3320 C.3   136  LYS136      0.1693
     23  C         62.6450   19.9600  -18.9560 C.2   136  LYS136      0.2592
     24  O         63.7590   19.8280  -19.4220 O.2   136  LYS136     -0.2718
     25  CB        61.0270   19.3550  -20.6830 C.3   136  LYS136      0.0285
     26  CG        60.5010   20.7640  -20.7270 C.3   136  LYS136      0.0035
     27  CD        60.2240   21.1960  -22.1470 C.3   136  LYS136      0.0206
     28  CE        59.9900   22.6990  -22.2080 C.3   136  LYS136      0.1093
     29  NZ        58.9370   22.9920  -23.2120 N.3   136  LYS136     -0.1314
     30  N         62.3320   20.9290  -18.0890 N.am  137  ASP137     -0.1974
     31  CA        63.2970   22.0040  -17.7420 C.3   137  ASP137      0.1709
     32  C         64.4710   21.4560  -16.9570 C.2   137  ASP137      0.2293
     33  O         65.5110   22.0490  -16.9170 O.2   137  ASP137     -0.2864
     34  CB        62.6280   23.1550  -16.9530 C.3   137  ASP137      0.1436
     35  CG        61.4250   23.8100  -17.7200 C.2   137  ASP137      0.3671
     36  OD1       61.4410   23.8930  -19.0120 O.co2 137  ASP137     -0.2456
     37  OD2       60.4590   24.2430  -17.0100 O.co2 137  ASP137     -0.2456
     38  N         53.7900   20.6670  -24.3510 N.3   164  TYR164     -0.1241
     39  CA        52.8000   20.9960  -23.3270 C.3   164  TYR164      0.1605
     40  C         51.8760   19.7700  -23.0990 C.2   164  TYR164      0.2264
     41  O         51.1240   19.3740  -23.9880 O.2   164  TYR164     -0.2867
     42  CB        52.0300   22.2820  -23.7280 C.3   164  TYR164      0.0534
     43  CG        50.9260   22.5530  -22.7880 C.ar  164  TYR164     -0.0201
     44  CD1       51.1910   22.9410  -21.4670 C.ar  164  TYR164     -0.0009
     45  CD2       49.6130   22.3710  -23.1760 C.ar  164  TYR164     -0.0009
     46  CE1       50.1640   23.1400  -20.5510 C.ar  164  TYR164      0.0417
     47  CE2       48.5730   22.5630  -22.2730 C.ar  164  TYR164      0.0417
     48  CZ        48.8460   22.9460  -20.9620 C.ar  164  TYR164      0.1957
     49  OH        47.7930   23.1260  -20.0810 O.3   164  TYR164     -0.2866
     50  N         67.9960   28.9570   -7.3820 N.3   190  ARG190     -0.1231
     51  CA        67.1660   29.1770   -8.5740 C.3   190  ARG190      0.1694
     52  C         65.7530   29.3750   -8.1130 C.2   190  ARG190      0.2592
     53  O         65.2530   28.5940   -7.3250 O.2   190  ARG190     -0.2718
     54  CB        67.1180   27.9810   -9.5270 C.3   190  ARG190      0.0321
     55  CG        68.4450   27.4470  -10.0040 C.3   190  ARG190      0.0489
     56  CD        69.1260   28.4030  -10.9490 C.3   190  ARG190      0.2205
     57  NE        68.3460   28.6140  -12.1640 N.pl3 190  ARG190     -0.0865
     58  CZ        68.4560   27.8940  -13.2790 C.cat 190  ARG190      0.5346
     59  NH1       69.3130   26.8710  -13.3580 N.pl3 190  ARG190      0.1354
     60  NH2       67.6860   28.2090  -14.3290 N.pl3 190  ARG190      0.1354
     61  N         65.1010   30.4010   -8.6310 N.am  191  LEU191     -0.1966
     62  CA        63.7200   30.6650   -8.3050 C.3   191  LEU191      0.1728
     63  C         62.9560   30.9530   -9.5830 C.2   191  LEU191      0.2616
     64  O         63.3690   31.7810  -10.3800 O.2   191  LEU191     -0.2715
     65  CB        63.6000   31.8630   -7.3940 C.3   191  LEU191      0.0311
     66  CG        64.2710   31.7810   -6.0210 C.3   191  LEU191      0.0022
     67  CD1       64.2320   33.1550   -5.3570 C.3   191  LEU191      0.0001
     68  CD2       63.6110   30.7450   -5.1430 C.3   191  LEU191      0.0001
     69  N         61.8400   30.2460   -9.7740 N.am  192  HIS192     -0.1959
     70  CA        60.9740   30.5100  -10.8870 C.3   192  HIS192      0.1787
     71  C         59.6650   30.9940  -10.2580 C.2   192  HIS192      0.2620
     72  O         58.7850   30.1990   -9.9640 O.2   192  HIS192     -0.2715
     73  CB        60.7750   29.2530  -11.7420 C.3   192  HIS192      0.0785
     74  CG        62.0470   28.6040  -12.2070 C.ar  192  HIS192      0.0821
     75  ND1       62.7370   29.0190  -13.3230 N.ar  192  HIS192     -0.2267
     76  CD2       62.7370   27.5430  -11.7170 C.ar  192  HIS192      0.1154
     77  CE1       63.8110   28.2640  -13.4900 C.ar  192  HIS192      0.1986
     78  NE2       63.8280   27.3540  -12.5370 N.ar  192  HIS192     -0.2212
     79  N         59.5190   32.3030  -10.0820 N.am  193  LEU193     -0.1963
     80  CA        58.3640   32.8360   -9.3560 C.3   193  LEU193      0.1728
     81  C         57.3620   33.4540  -10.3030 C.2   193  LEU193      0.2616
     82  O         56.7990   34.5070  -10.0240 O.2   193  LEU193     -0.2715
     83  CB        58.8320   33.8760   -8.3270 C.3   193  LEU193      0.0311
     84  CG        59.7630   33.3750   -7.2300 C.3   193  LEU193      0.0022
     85  CD1       60.1550   34.4820   -6.2550 C.3   193  LEU193      0.0001
     86  CD2       59.1090   32.2450   -6.4890 C.3   193  LEU193      0.0001
     87  N         57.1520   32.7800  -11.4400 N.am  194  ASP194     -0.1957
     88  CA        56.3550   33.3230  -12.5550 C.3   194  ASP194      0.1840
     89  C         54.9220   33.5670  -12.2100 C.2   194  ASP194      0.2622
     90  O         54.3500   34.5130  -12.6580 O.2   194  ASP194     -0.2715
     91  CB        56.3470   32.3700  -13.7210 C.3   194  ASP194      0.1450
     92  CG        57.7050   32.0150  -14.1920 C.2   194  ASP194      0.3671
     93  OD1       57.9050   32.0230  -15.4370 O.co2 194  ASP194     -0.2456
     94  OD2       58.5610   31.6810  -13.3230 O.co2 194  ASP194     -0.2456
     95  N         54.3140   32.6920  -11.4320 N.am  195  TYR195     -0.1974
     96  CA        52.8610   32.7900  -11.1660 C.3   195  TYR195      0.1639
     97  C         52.6670   33.6920   -9.9790 C.2   195  TYR195      0.2290
     98  O         53.2360   33.4450   -8.9430 O.2   195  TYR195     -0.2864
     99  CB        52.2330   31.4020  -10.9090 C.3   195  TYR195      0.0560
    100  CG        52.0360   30.5640  -12.1720 C.ar  195  TYR195     -0.0198
    101  CD1       52.9420   30.6000  -13.1960 C.ar  195  TYR195     -0.0009
    102  CD2       50.9660   29.7030  -12.2940 C.ar  195  TYR195     -0.0009
    103  CE1       52.7970   29.8320  -14.3370 C.ar  195  TYR195      0.0417
    104  CE2       50.7970   28.9300  -13.4390 C.ar  195  TYR195      0.0417
    105  CZ        51.7210   29.0100  -14.4600 C.ar  195  TYR195      0.1957
    106  OH        51.6110   28.2690  -15.6020 O.3   195  TYR195     -0.2866
    107  N         51.7870   33.0050  -26.3840 N.3   265  GLN265     -0.1245
    108  CA        52.9600   32.2050  -26.3010 C.3   265  GLN265      0.1566
    109  C         54.0560   32.9320  -27.0480 C.2   265  GLN265      0.2260
    110  O         53.7940   33.8070  -27.8740 O.2   265  GLN265     -0.2867
    111  CB        52.6680   30.8410  -26.9200 C.3   265  GLN265      0.0367
    112  CG        51.6060   30.0610  -26.1850 C.3   265  GLN265      0.0905
    113  CD        52.0470   29.6680  -24.7890 C.2   265  GLN265      0.2608
    114  OE1       52.8290   28.7370  -24.6140 O.2   265  GLN265     -0.2717
    115  NE2       51.5300   30.3630  -23.7850 N.am  265  GLN265     -0.0878
@<TRIPOS>BOND
     1   110   109    2
     2   109   108    1
     3   111   108    1
     4   111   112    1
     5   107   108    1
     6   112   113    1
     7   113   114    2
     8   113   115   am
     9    38    39    1
    10    41    40    2
    11    42    39    1
    12    42    43    1
    13    39    40    1
    14    29    28    1
    15    45    43   ar
    16    45    47   ar
    17    43    44   ar
    18    47    48   ar
    19    28    27    1
    20    27    26    1
    21    44    46   ar
    22    48    46   ar
    23    48    49    1
    24    26    25    1
    25    25    22    1
    26    19    18   ar
    27    20    18   ar
    28    18    17    1
    29    24    23    2
    30    22    23    1
    31    22    21    1
    32    36    35   ar
    33    23    30   am
    34    17    16    1
    35    30    31    1
    36    16    13    1
    37    31    32    1
    38    31    34    1
    39    35    37   ar
    40    35    34    1
    41    32    33    2
    42    13    14    1
    43    13    12    1
    44    15    14    2
    45    12     7   am
    46     4     3    2
    47   106   105    1
    48    93    92   ar
    49     7     8    2
    50     7     6    1
    51     3     2    1
    52     3     5   am
    53     2     1    1
    54   105   103   ar
    55   105   104   ar
    56     6     5    1
    57     6     9    1
    58   103   101   ar
    59    60    58    1
    60    92    91    1
    61    92    94   ar
    62    91    88    1
    63    77    75   ar
    64    77    78   ar
    65   104   102   ar
    66    59    58    1
    67    75    74   ar
    68    58    57    2
    69    10     9    1
    70   101   100   ar
    71     9    11    1
    72    90    89    2
    73    88    89    1
    74    88    87    1
    75    78    76   ar
    76   102   100   ar
    77    89    95   am
    78    74    73    1
    79    74    76   ar
    80   100    99    1
    81    57    56    1
    82    73    70    1
    83    87    81   am
    84    95    96    1
    85    96    99    1
    86    96    97    1
    87    56    55    1
    88    70    71    1
    89    70    69    1
    90    64    63    2
    91    81    82    2
    92    81    80    1
    93    71    79   am
    94    71    72    2
    95    79    80    1
    96    55    54    1
    97    97    98    2
    98    69    63   am
    99    63    62    1
   100    54    51    1
   101    80    83    1
   102    61    62    1
   103    61    52   am
   104    51    52    1
   105    51    50    1
   106    83    84    1
   107    62    65    1
   108    52    53    2
   109    65    66    1
   110    84    86    1
   111    84    85    1
   112    66    67    1
   113    66    68    1
