@<TRIPOS>MOLECULE
tmp/4jayD01.pdb
 222 210 0 0 0
SMALL
GASTEIGER

@<TRIPOS>ATOM
      1  N         52.5340   17.3110   -6.4110 N.3   116  ILE116     -0.1245
      2  CA        51.8520   16.6630   -7.5300 C.3   116  ILE116      0.1561
      3  C         51.8540   15.1940   -7.2100 C.2   116  ILE116      0.2260
      4  O         52.8960   14.6650   -6.8440 O.2   116  ILE116     -0.2867
      5  CB        52.6060   16.8670   -8.8520 C.3   116  ILE116      0.0252
      6  CG1       52.4850   18.3150   -9.3040 C.3   116  ILE116      0.0019
      7  CG2       52.0600   15.9450   -9.9170 C.3   116  ILE116      0.0019
      8  CD1       53.3620   18.6820  -10.4690 C.3   116  ILE116      0.0001
      9  N         53.3110   12.8860  -19.3120 N.3   126  GLN126     -0.1245
     10  CA        52.7160   14.1550  -19.7000 C.3   126  GLN126      0.1566
     11  C         53.5610   15.3540  -19.4030 C.2   126  GLN126      0.2260
     12  O         53.0480   16.4660  -19.3880 O.2   126  GLN126     -0.2867
     13  CB        51.2730   14.3220  -19.1770 C.3   126  GLN126      0.0367
     14  CG        51.0570   14.7460  -17.7270 C.3   126  GLN126      0.0905
     15  CD        49.6920   15.3920  -17.5450 C.2   126  GLN126      0.2608
     16  OE1       48.8080   15.2030  -18.3710 O.2   126  GLN126     -0.2717
     17  NE2       49.4890   16.0810  -16.4290 N.am  126  GLN126     -0.0878
     18  N         53.8140   19.4220  -15.1720 N.3   129  GLY129     -0.1210
     19  CA        54.0870   20.8410  -14.9390 C.3   129  GLY129      0.1956
     20  C         53.0980   21.5300  -14.0450 C.2   129  GLY129      0.2612
     21  O         51.9590   21.1310  -13.9510 O.2   129  GLY129     -0.2717
     22  N         53.5830   22.5390  -13.3470 N.am  130  ALA130     -0.1965
     23  CA        52.7760   23.3740  -12.4520 C.3   130  ALA130      0.1728
     24  C         53.5900   24.6240  -12.1150 C.2   130  ALA130      0.2616
     25  O         54.8070   24.5780  -12.0040 O.2   130  ALA130     -0.2715
     26  CB        52.4450   22.6420  -11.1580 C.3   130  ALA130      0.0334
     27  N         52.9140   25.7330  -11.9480 N.am  131  TYR131     -0.1960
     28  CA        53.5500   26.9700  -11.5340 C.3   131  TYR131      0.1771
     29  C         54.7040   27.3790  -12.4320 C.2   131  TYR131      0.2620
     30  O         55.7080   27.8940  -11.9660 O.2   131  TYR131     -0.2715
     31  CB        53.8800   26.8990  -10.0480 C.3   131  TYR131      0.0574
     32  CG        52.6100   26.7610   -9.2570 C.ar  131  TYR131     -0.0198
     33  CD1       51.6830   27.8010   -9.1980 C.ar  131  TYR131     -0.0009
     34  CD2       52.2740   25.5710   -8.6160 C.ar  131  TYR131     -0.0009
     35  CE1       50.4950   27.6850   -8.4880 C.ar  131  TYR131      0.0417
     36  CE2       51.0720   25.4410   -7.9510 C.ar  131  TYR131      0.0417
     37  CZ        50.1970   26.5110   -7.8790 C.ar  131  TYR131      0.1957
     38  OH        48.9840   26.3590   -7.2290 O.3   131  TYR131     -0.2866
     39  N         54.5390   27.1780  -13.7430 N.am  132  GLY132     -0.1954
     40  CA        55.5150   27.6420  -14.7490 C.3   132  GLY132      0.1869
     41  C         56.7620   26.7720  -14.9110 C.2   132  GLY132      0.2309
     42  O         57.6880   27.1410  -15.6200 O.2   132  GLY132     -0.2863
     43  N         53.7900   20.6670  -24.3510 N.3   164  TYR164     -0.1227
     44  CA        52.8000   20.9960  -23.3270 C.3   164  TYR164      0.1736
     45  C         51.8760   19.7700  -23.0990 C.2   164  TYR164      0.2595
     46  O         51.1240   19.3740  -23.9880 O.2   164  TYR164     -0.2718
     47  CB        52.0300   22.2820  -23.7280 C.3   164  TYR164      0.0548
     48  CG        50.9260   22.5530  -22.7880 C.ar  164  TYR164     -0.0200
     49  CD1       51.1910   22.9410  -21.4670 C.ar  164  TYR164     -0.0009
     50  CD2       49.6130   22.3710  -23.1760 C.ar  164  TYR164     -0.0009
     51  CE1       50.1640   23.1400  -20.5510 C.ar  164  TYR164      0.0417
     52  CE2       48.5730   22.5630  -22.2730 C.ar  164  TYR164      0.0417
     53  CZ        48.8460   22.9460  -20.9620 C.ar  164  TYR164      0.1957
     54  OH        47.7930   23.1260  -20.0810 O.3   164  TYR164     -0.2866
     55  N         51.9670   19.1650  -21.9070 N.am  165  ARG165     -0.1980
     56  CA        51.2440   17.9200  -21.5230 C.3   165  ARG165      0.1597
     57  C         51.4520   16.7760  -22.5180 C.2   165  ARG165      0.2287
     58  O         50.5350   16.0560  -22.8670 O.2   165  ARG165     -0.2864
     59  CB        49.7510   18.1800  -21.2780 C.3   165  ARG165      0.0334
     60  CG        49.4600   19.1530  -20.1350 C.3   165  ARG165      0.0492
     61  CD        50.0180   18.6820  -18.7980 C.3   165  ARG165      0.2205
     62  NE        49.5380   19.4800  -17.6670 N.pl3 165  ARG165     -0.0865
     63  CZ        50.1420   20.5610  -17.1730 C.cat 165  ARG165      0.5346
     64  NH1       51.2460   21.0440  -17.7410 N.pl3 165  ARG165      0.1354
     65  NH2       49.6290   21.1980  -16.1190 N.pl3 165  ARG165      0.1354
     66  N         57.1520   32.7800  -11.4400 N.3   194  ASP194     -0.1225
     67  CA        56.3550   33.3230  -12.5550 C.3   194  ASP194      0.1805
     68  C         54.9220   33.5670  -12.2100 C.2   194  ASP194      0.2598
     69  O         54.3500   34.5130  -12.6580 O.2   194  ASP194     -0.2718
     70  CB        56.3470   32.3700  -13.7210 C.3   194  ASP194      0.1424
     71  CG        57.7050   32.0150  -14.1920 C.2   194  ASP194      0.3668
     72  OD1       57.9050   32.0230  -15.4370 O.co2 194  ASP194     -0.2456
     73  OD2       58.5610   31.6810  -13.3230 O.co2 194  ASP194     -0.2456
     74  N         54.3140   32.6920  -11.4320 N.am  195  TYR195     -0.1962
     75  CA        52.8610   32.7900  -11.1660 C.3   195  TYR195      0.1771
     76  C         52.6670   33.6920   -9.9790 C.2   195  TYR195      0.2620
     77  O         53.2360   33.4450   -8.9430 O.2   195  TYR195     -0.2715
     78  CB        52.2330   31.4020  -10.9090 C.3   195  TYR195      0.0574
     79  CG        52.0360   30.5640  -12.1720 C.ar  195  TYR195     -0.0198
     80  CD1       52.9420   30.6000  -13.1960 C.ar  195  TYR195     -0.0009
     81  CD2       50.9660   29.7030  -12.2940 C.ar  195  TYR195     -0.0009
     82  CE1       52.7970   29.8320  -14.3370 C.ar  195  TYR195      0.0417
     83  CE2       50.7970   28.9300  -13.4390 C.ar  195  TYR195      0.0417
     84  CZ        51.7210   29.0100  -14.4600 C.ar  195  TYR195      0.1957
     85  OH        51.6110   28.2690  -15.6020 O.3   195  TYR195     -0.2866
     86  N         51.8690   34.7420  -10.1550 N.am  196  GLY196     -0.1940
     87  CA        51.6590   35.7810   -9.1530 C.3   196  GLY196      0.1998
     88  C         51.3100   35.3210   -7.7520 C.2   196  GLY196      0.2480
     89  O         51.8880   35.8190   -6.7870 O.2   196  GLY196     -0.2729
     90  N         50.3660   34.3730   -7.6150 N.am  197  PRO197     -0.2726
     91  CA        50.0010   33.9110   -6.2560 C.3   197  PRO197      0.1402
     92  C         51.1630   33.3600   -5.4340 C.2   197  PRO197      0.2269
     93  O         51.1630   33.4710   -4.2130 O.2   197  PRO197     -0.2865
     94  CB        48.9730   32.8160   -6.5190 C.3   197  PRO197      0.0296
     95  CG        48.3820   33.1290   -7.8710 C.3   197  PRO197      0.0237
     96  CD        49.4220   33.9110   -8.6450 C.3   197  PRO197      0.0939
     97  N         48.4140   24.7300   -2.9340 N.3   223  ARG223     -0.1245
     98  CA        47.8190   23.5200   -3.4720 C.3   223  ARG223      0.1563
     99  C         46.8990   22.8420   -2.4630 C.2   223  ARG223      0.2260
    100  O         45.8330   22.3600   -2.8210 O.2   223  ARG223     -0.2867
    101  CB        48.9160   22.5670   -3.9440 C.3   223  ARG223      0.0307
    102  CG        49.5500   23.0010   -5.2380 C.3   223  ARG223      0.0489
    103  CD        50.5470   21.9850   -5.7610 C.3   223  ARG223      0.2205
    104  NE        49.8880   20.7940   -6.3180 N.pl3 223  ARG223     -0.0865
    105  CZ        49.8410   20.4550   -7.6180 C.cat 223  ARG223      0.5346
    106  NH1       50.4280   21.1690   -8.5940 N.pl3 223  ARG223      0.1354
    107  NH2       49.1960   19.3460   -7.9490 N.pl3 223  ARG223      0.1354
    108  N         43.6020   24.8330   -2.2980 N.3   226  LYS226     -0.1231
    109  CA        42.6430   24.9720   -3.3790 C.3   226  LYS226      0.1693
    110  C         42.2750   23.6990   -4.1500 C.2   226  LYS226      0.2591
    111  O         41.1620   23.6060   -4.6480 O.2   226  LYS226     -0.2718
    112  CB        42.9990   26.1520   -4.2710 C.3   226  LYS226      0.0285
    113  CG        44.0750   25.9020   -5.2650 C.3   226  LYS226      0.0035
    114  CD        44.4780   27.2210   -5.8890 C.3   226  LYS226      0.0206
    115  CE        43.3490   27.8280   -6.6960 C.3   226  LYS226      0.1093
    116  NZ        43.8530   28.8120   -7.6910 N.3   226  LYS226     -0.1314
    117  N         43.1460   22.7050   -4.1730 N.am  227  LEU227     -0.1980
    118  CA        42.8350   21.4610   -4.8520 C.3   227  LEU227      0.1596
    119  C         42.1440   20.4690   -3.9570 C.2   227  LEU227      0.2287
    120  O         42.5230   20.2840   -2.8020 O.2   227  LEU227     -0.2864
    121  CB        44.0810   20.7910   -5.3540 C.3   227  LEU227      0.0297
    122  CG        44.9840   21.7320   -6.1190 C.3   227  LEU227      0.0022
    123  CD1       46.2440   20.9480   -6.4860 C.3   227  LEU227      0.0001
    124  CD2       44.2690   22.2920   -7.3340 C.3   227  LEU227      0.0001
    125  N         41.1560   13.2340  -10.7660 N.3   236  ALA236     -0.1231
    126  CA        42.4610   13.0750  -11.4230 C.3   236  ALA236      0.1694
    127  C         43.0340   14.4470  -11.7340 C.2   236  ALA236      0.2593
    128  O         43.5750   14.6480  -12.7950 O.2   236  ALA236     -0.2718
    129  CB        42.3220   12.2550  -12.6800 C.3   236  ALA236      0.0304
    130  N         42.8650   15.3970  -10.8130 N.am  237  GLY237     -0.1942
    131  CA        43.2400   16.7910  -11.0620 C.3   237  GLY237      0.2014
    132  C         42.5400   17.4310  -12.2630 C.2   237  GLY237      0.2639
    133  O         41.3460   17.1980  -12.4970 O.2   237  GLY237     -0.2714
    134  N         43.2690   18.2370  -13.0210 N.am  238  SER238     -0.1949
    135  CA        42.7300   18.8690  -14.2040 C.3   238  SER238      0.1924
    136  C         42.3260   17.8270  -15.2240 C.2   238  SER238      0.2314
    137  O         43.1330   17.0300  -15.6130 O.2   238  SER238     -0.2863
    138  CB        43.7410   19.8000  -14.8120 C.3   238  SER238      0.2116
    139  OG        44.0690   20.8240  -13.8850 O.3   238  SER238     -0.2180
    140  N         44.6320   22.7900  -21.4050 N.3   242  ASN242     -0.1240
    141  CA        44.3950   24.1370  -21.8790 C.3   242  ASN242      0.1653
    142  C         44.6630   24.1870  -23.3560 C.2   242  ASN242      0.2266
    143  O         45.7510   23.8620  -23.7860 O.2   242  ASN242     -0.2867
    144  CB        45.3170   25.1060  -21.1590 C.3   242  ASN242      0.1155
    145  CG        44.9880   25.1990  -19.7060 C.2   242  ASN242      0.2627
    146  OD1       43.8140   25.3150  -19.2960 O.2   242  ASN242     -0.2716
    147  ND2       46.0050   25.1320  -18.8990 N.am  242  ASN242     -0.0877
    148  N         40.2470   34.6780  -20.9520 N.3   261  VAL261     -0.1245
    149  CA        41.5390   34.4650  -20.3060 C.3   261  VAL261      0.1561
    150  C         42.4410   33.6290  -21.1930 C.2   261  VAL261      0.2260
    151  O         42.1450   32.4770  -21.5050 O.2   261  VAL261     -0.2867
    152  CB        41.3910   33.8010  -18.9120 C.3   261  VAL261      0.0252
    153  CG1       42.7550   33.4670  -18.3250 C.3   261  VAL261      0.0019
    154  CG2       40.6270   34.7370  -17.9850 C.3   261  VAL261      0.0019
    155  N         46.9230   33.2550  -22.4770 N.3   263  TYR263     -0.1241
    156  CA        48.3200   33.6120  -22.3140 C.3   263  TYR263      0.1605
    157  C         49.0130   33.4440  -23.6390 C.2   263  TYR263      0.2264
    158  O         49.0530   32.3340  -24.1630 O.2   263  TYR263     -0.2867
    159  CB        48.9360   32.7230  -21.2770 C.3   263  TYR263      0.0534
    160  CG        48.3070   32.9440  -19.9480 C.ar  263  TYR263     -0.0201
    161  CD1       47.1720   32.2510  -19.5750 C.ar  263  TYR263     -0.0009
    162  CD2       48.8250   33.9080  -19.0810 C.ar  263  TYR263     -0.0009
    163  CE1       46.5870   32.4750  -18.3410 C.ar  263  TYR263      0.0417
    164  CE2       48.2570   34.1480  -17.8570 C.ar  263  TYR263      0.0417
    165  CZ        47.1460   33.4340  -17.4910 C.ar  263  TYR263      0.1957
    166  OH        46.5850   33.6960  -16.2760 O.3   263  TYR263     -0.2866
    167  N         51.7870   33.0050  -26.3840 N.3   265  GLN265     -0.1245
    168  CA        52.9600   32.2050  -26.3010 C.3   265  GLN265      0.1566
    169  C         54.0560   32.9320  -27.0480 C.2   265  GLN265      0.2260
    170  O         53.7940   33.8070  -27.8740 O.2   265  GLN265     -0.2867
    171  CB        52.6680   30.8410  -26.9200 C.3   265  GLN265      0.0367
    172  CG        51.6060   30.0610  -26.1850 C.3   265  GLN265      0.0905
    173  CD        52.0470   29.6680  -24.7890 C.2   265  GLN265      0.2608
    174  OE1       52.8290   28.7370  -24.6140 O.2   265  GLN265     -0.2717
    175  NE2       51.5300   30.3630  -23.7850 N.am  265  GLN265     -0.0878
    176  N         47.2690   30.4870  -25.4070 N.3   271  LYS271     -0.1245
    177  CA        46.8350   29.4490  -24.4730 C.3   271  LYS271      0.1561
    178  C         45.6540   29.9440  -23.6500 C.2   271  LYS271      0.2260
    179  O         45.7900   30.8550  -22.8450 O.2   271  LYS271     -0.2867
    180  CB        47.9730   29.0570  -23.5350 C.3   271  LYS271      0.0271
    181  CG        47.7070   27.8400  -22.6640 C.3   271  LYS271      0.0035
    182  CD        48.8330   27.6120  -21.6520 C.3   271  LYS271      0.0206
    183  CE        48.5440   28.3110  -20.3020 C.3   271  LYS271      0.1093
    184  NZ        49.7330   28.7250  -19.4880 N.3   271  LYS271     -0.1314
    185  N         42.7250   29.6690  -20.7930 N.3   273  ALA273     -0.1245
    186  CA        42.4290   28.9670  -19.5480 C.3   273  ALA273      0.1562
    187  C         41.1680   28.1270  -19.7810 C.2   273  ALA273      0.2260
    188  O         40.0680   28.6700  -19.9180 O.2   273  ALA273     -0.2867
    189  CB        42.2080   29.9520  -18.3930 C.3   273  ALA273      0.0290
    190  N         37.4330   24.8870   -8.7190 N.3   297  GLN297     -0.1245
    191  CA        38.3350   24.4230   -9.7740 C.3   297  GLN297      0.1566
    192  C         37.5390   23.8220  -10.9550 C.2   297  GLN297      0.2260
    193  O         37.2620   22.6270  -11.0350 O.2   297  GLN297     -0.2867
    194  CB        39.3580   23.4280   -9.2270 C.3   297  GLN297      0.0367
    195  CG        40.1100   23.8930   -7.9960 C.3   297  GLN297      0.0905
    196  CD        40.8350   25.2210   -8.1820 C.2   297  GLN297      0.2608
    197  OE1       41.7590   25.3360   -8.9920 O.2   297  GLN297     -0.2717
    198  NE2       40.3740   26.2530   -7.4540 N.am  297  GLN297     -0.0878
    199  N         38.2430   22.9190  -13.8280 N.3   299  LEU299     -0.1231
    200  CA        38.8850   21.8380  -14.5900 C.3   299  LEU299      0.1693
    201  C         38.7410   20.4840  -13.9510 C.2   299  LEU299      0.2591
    202  O         38.9470   19.4490  -14.6060 O.2   299  LEU299     -0.2718
    203  CB        40.3790   22.1240  -14.7490 C.3   299  LEU299      0.0284
    204  CG        40.7880   23.0460  -15.8740 C.3   299  LEU299      0.0019
    205  CD1       42.3000   23.1310  -15.9490 C.3   299  LEU299      0.0001
    206  CD2       40.2340   22.4890  -17.1870 C.3   299  LEU299      0.0001
    207  N         38.4790   20.4750  -12.6560 N.am  300  VAL300     -0.1980
    208  CA        38.4620   19.2280  -11.9030 C.3   300  VAL300      0.1595
    209  C         37.0790   18.5490  -11.8850 C.2   300  VAL300      0.2287
    210  O         36.1450   19.0190  -11.2250 O.2   300  VAL300     -0.2864
    211  CB        38.9360   19.4490  -10.4580 C.3   300  VAL300      0.0276
    212  CG1       39.1250   18.1120   -9.7770 C.3   300  VAL300      0.0022
    213  CG2       40.2710   20.1990  -10.4730 C.3   300  VAL300      0.0022
    214  N         43.0070   15.2680  -20.3210 N.3   334  GLU334     -0.1245
    215  CA        44.3390   15.0200  -19.8730 C.3   334  GLU334      0.1567
    216  C         44.4790   13.6250  -19.3040 C.2   334  GLU334      0.2260
    217  O         45.4200   12.9380  -19.6170 O.2   334  GLU334     -0.2867
    218  CB        44.6920   16.0520  -18.8270 C.3   334  GLU334      0.0388
    219  CG        46.1320   16.0300  -18.4260 C.3   334  GLU334      0.1160
    220  CD        46.4400   17.0690  -17.3620 C.2   334  GLU334      0.3649
    221  OE1       46.4050   18.2900  -17.6690 O.co2 334  GLU334     -0.2457
    222  OE2       46.7210   16.6630  -16.2100 O.co2 334  GLU334     -0.2457
@<TRIPOS>BOND
     1   170   169    2
     2   169   168    1
     3   171   168    1
     4   171   172    1
     5   167   168    1
     6   172   173    1
     7   176   177    1
     8   173   174    2
     9   173   175   am
    10   177   178    1
    11   177   180    1
    12    43    44    1
    13   158   157    2
    14    46    45    2
    15   143   142    2
    16    47    44    1
    17    47    48    1
    18   178   179    2
    19   157   156    1
    20   180   181    1
    21   142   141    1
    22    44    45    1
    23    50    48   ar
    24    50    52   ar
    25    45    55   am
    26    58    57    2
    27    48    49   ar
    28   181   182    1
    29    57    56    1
    30   155   156    1
    31   156   159    1
    32    52    53   ar
    33    55    56    1
    34   141   140    1
    35   141   144    1
    36   182   183    1
    37    56    59    1
    38   151   150    2
    39    49    51   ar
    40    59    60    1
    41   159   160    1
    42   150   149    1
    43   144   145    1
    44    53    51   ar
    45    53    54    1
    46   148   149    1
    47   185   186    1
    48   214   215    1
    49   149   152    1
    50   183   184    1
    51    60    61    1
    52   160   161   ar
    53   160   162   ar
    54   188   187    2
    55   215   216    1
    56   215   218    1
    57   187   186    1
    58   145   146    2
    59   145   147   am
    60    10    11    1
    61    10     9    1
    62    10    13    1
    63   217   216    2
    64   161   163   ar
    65   186   189    1
    66    11    12    2
    67    13    14    1
    68   162   164   ar
    69   152   153    1
    70   152   154    1
    71   218   219    1
    72    61    62    1
    73   219   220    1
    74    16    15    2
    75   163   165   ar
    76   164   165   ar
    77    64    63    1
    78    14    15    1
    79   221   220   ar
    80    62    63    2
    81    15    17   am
    82   165   166    1
    83   220   222   ar
    84   206   204    1
    85    63    65    1
    86   205   204    1
    87   204   203    1
    88    42    41    2
    89   137   136    2
    90    85    84    1
    91    72    71   ar
    92   136   135    1
    93    18    19    1
    94    19    20    1
    95    41    40    1
    96   138   135    1
    97   138   139    1
    98   203   200    1
    99    40    39    1
   100   202   201    2
   101   200   201    1
   102   200   199    1
   103    84    82   ar
   104    84    83   ar
   105    82    80   ar
   106   135   134    1
   107    71    70    1
   108    71    73   ar
   109    20    21    2
   110    20    22   am
   111   201   207   am
   112    39    29   am
   113    70    67    1
   114    83    81   ar
   115    22    23    1
   116    80    79   ar
   117   134   132   am
   118   128   127    2
   119   129   126    1
   120    69    68    2
   121   207   208    1
   122    67    68    1
   123    67    66    1
   124   133   132    2
   125    23    24    1
   126    23    26    1
   127    29    30    2
   128    29    28    1
   129    81    79   ar
   130   132   131    1
   131    68    74   am
   132    79    78    1
   133    24    25    2
   134    24    27   am
   135    27    28    1
   136   208   209    1
   137   208   211    1
   138   209   210    2
   139   127   126    1
   140   127   130   am
   141    28    31    1
   142    74    75    1
   143   126   125    1
   144    75    78    1
   145    75    76    1
   146   131   130    1
   147   193   192    2
   148   192   191    1
   149   213   211    1
   150     8     6    1
   151   211   212    1
   152    86    76   am
   153    86    87    1
   154    31    32    1
   155    76    77    2
   156     7     5    1
   157   191   194    1
   158   191   190    1
   159     6     5    1
   160    32    33   ar
   161    32    34   ar
   162   194   195    1
   163    33    35   ar
   164    87    88    1
   165   197   196    2
   166     5     2    1
   167    96    95    1
   168    96    90    1
   169    34    36   ar
   170   106   105    1
   171    35    37   ar
   172   196   195    1
   173   196   198   am
   174    36    37   ar
   175   107   105    1
   176    37    38    1
   177    95    94    1
   178    88    90   am
   179    88    89    2
   180   116   115    1
   181   105   104    2
   182    90    91    1
   183     2     3    1
   184     2     1    1
   185   124   122    1
   186     3     4    2
   187   115   114    1
   188    94    91    1
   189   123   122    1
   190   104   103    1
   191    91    92    1
   192   122   121    1
   193   114   113    1
   194   103   102    1
   195    92    93    2
   196   121   118    1
   197   113   112    1
   198   102   101    1
   199   118   117    1
   200   118   119    1
   201   111   110    2
   202   112   109    1
   203   117   110   am
   204   110   109    1
   205   119   120    2
   206   101    98    1
   207    98    97    1
   208    98    99    1
   209   109   108    1
   210   100    99    2
