@<TRIPOS>MOLECULE
tmp/4jazA00.pdb
 148 139 0 0 0
SMALL
GASTEIGER

@<TRIPOS>ATOM
      1  N         21.5090   25.6030   -1.6280 N.3    49  LEU49      -0.1245
      2  CA        20.9810   26.0930   -0.3670 C.3    49  LEU49       0.1561
      3  C         20.4660   27.5180   -0.5380 C.2    49  LEU49       0.2260
      4  O         19.4580   27.8990    0.0640 O.2    49  LEU49      -0.2867
      5  CB        22.0770   26.0310    0.7010 C.3    49  LEU49       0.0270
      6  CG        21.7230   26.2450    2.1770 C.3    49  LEU49       0.0019
      7  CD1       20.3590   25.6720    2.5200 C.3    49  LEU49       0.0001
      8  CD2       22.7910   25.5810    3.0120 C.3    49  LEU49       0.0001
      9  N         10.4710   26.8710    2.4610 N.3    57  LYS57      -0.1231
     10  CA        10.3370   27.8290    3.5520 C.3    57  LYS57       0.1693
     11  C         11.6010   27.9000    4.4230 C.2    57  LYS57       0.2592
     12  O         11.7930   27.0910    5.3360 O.2    57  LYS57      -0.2718
     13  CB         9.1160   27.4640    4.4120 C.3    57  LYS57       0.0285
     14  CG         8.7590   28.4800    5.5050 C.3    57  LYS57       0.0035
     15  CD         9.7500   28.4540    6.6750 C.3    57  LYS57       0.0206
     16  CE         9.4680   29.5410    7.7000 C.3    57  LYS57       0.1093
     17  NZ        10.5510   29.5860    8.7150 N.3    57  LYS57      -0.1314
     18  N         12.4620   28.8720    4.1290 N.am   58  PHE58      -0.1976
     19  CA        13.7020   29.0820    4.8810 C.3    58  PHE58       0.1639
     20  C         13.8270   30.5660    5.2410 C.2    58  PHE58       0.2290
     21  O         14.4480   31.3380    4.5030 O.2    58  PHE58      -0.2864
     22  CB        14.9290   28.6870    4.0470 C.3    58  PHE58       0.0560
     23  CG        15.0400   27.2140    3.7530 C.ar   58  PHE58      -0.0200
     24  CD1       14.0920   26.3080    4.2130 C.ar   58  PHE58      -0.0042
     25  CD2       16.1090   26.7360    3.0030 C.ar   58  PHE58      -0.0042
     26  CE1       14.2030   24.9550    3.9340 C.ar   58  PHE58      -0.0003
     27  CE2       16.2310   25.3820    2.7180 C.ar   58  PHE58      -0.0003
     28  CZ        15.2770   24.4890    3.1830 C.ar   58  PHE58      -0.0000
     29  N         15.6730   31.8740    6.7630 N.3    60  HIS60      -0.1241
     30  CA        17.0820   32.0280    7.1030 C.3    60  HIS60       0.1621
     31  C         17.8540   32.8570    6.0850 C.2    60  HIS60       0.2264
     32  O         17.2980   33.2810    5.0620 O.2    60  HIS60      -0.2867
     33  CB        17.7160   30.6450    7.2730 C.3    60  HIS60       0.0745
     34  CG        17.2640   29.9350    8.5120 C.ar   60  HIS60       0.0817
     35  ND1       17.7790   30.2170    9.7600 N.ar   60  HIS60      -0.2268
     36  CD2       16.3040   28.9990    8.7050 C.ar   60  HIS60       0.1154
     37  CE1       17.1550   29.4860   10.6670 C.ar   60  HIS60       0.1986
     38  NE2       16.2560   28.7380   10.0530 N.ar   60  HIS60      -0.2212
     39  N         23.5550   28.5700   10.2900 N.3    74  ARG74      -0.1231
     40  CA        22.1950   28.7080    9.7660 C.3    74  ARG74       0.1694
     41  C         21.4340   27.3930    9.8930 C.2    74  ARG74       0.2591
     42  O         20.2880   27.3600   10.3450 O.2    74  ARG74      -0.2718
     43  CB        22.2320   29.1070    8.2830 C.3    74  ARG74       0.0321
     44  CG        22.7270   30.5210    7.9830 C.3    74  ARG74       0.0489
     45  CD        23.0490   30.6920    6.4900 C.3    74  ARG74       0.2205
     46  NE        21.9650   30.2200    5.6320 N.pl3  74  ARG74      -0.0865
     47  CZ        22.0040   30.2030    4.3030 C.cat  74  ARG74       0.5346
     48  NH1       23.0760   30.6340    3.6530 N.pl3  74  ARG74       0.1354
     49  NH2       20.9350   29.6710    3.6160 N.pl3  74  ARG74       0.1354
     50  N         22.0920   26.3150    9.4760 N.am   75  ILE75      -0.1980
     51  CA        21.5250   24.9760    9.5000 C.3    75  ILE75       0.1595
     52  C         21.2490   24.4900   10.9080 C.2    75  ILE75       0.2287
     53  O         20.2640   23.7980   11.1430 O.2    75  ILE75      -0.2864
     54  CB        22.4710   23.9700    8.8310 C.3    75  ILE75       0.0276
     55  CG1       22.8470   24.4530    7.4340 C.3    75  ILE75       0.0022
     56  CG2       21.8080   22.6110    8.7570 C.3    75  ILE75       0.0022
     57  CD1       23.9530   23.6420    6.7980 C.3    75  ILE75       0.0001
     58  N         18.3680   26.1880   12.8900 N.3    78  GLY78      -0.1210
     59  CA        17.1300   25.7150   12.2960 C.3    78  GLY78       0.1956
     60  C         16.7860   24.3340   12.8110 C.2    78  GLY78       0.2612
     61  O         15.6690   24.0900   13.2540 O.2    78  GLY78      -0.2717
     62  N         17.7650   23.4360   12.7460 N.am   79  CYS79      -0.1970
     63  CA        17.6380   22.0570   13.2160 C.3    79  CYS79       0.1712
     64  C         17.3100   22.0620   14.7110 C.2    79  CYS79       0.2296
     65  O         16.8580   21.0620   15.2780 O.2    79  CYS79      -0.2864
     66  CB        18.9590   21.3180   12.9680 C.3    79  CYS79       0.0983
     67  SG        19.0580   19.6260   13.5670 S.3    79  CYS79      -0.0798
     68  N         13.5190   22.9810   15.0420 N.3    82  ARG82      -0.1245
     69  CA        12.7960   21.7980   14.6370 C.3    82  ARG82       0.1563
     70  C         12.6280   20.9090   15.8530 C.2    82  ARG82       0.2260
     71  O         11.5890   20.2900   16.0350 O.2    82  ARG82      -0.2867
     72  CB        13.5580   21.0460   13.5470 C.3    82  ARG82       0.0307
     73  CG        12.6630   20.2930   12.5770 C.3    82  ARG82       0.0489
     74  CD        11.7450   19.2780   13.2430 C.3    82  ARG82       0.2205
     75  NE        10.3510   19.5160   12.8840 N.pl3  82  ARG82      -0.0865
     76  CZ         9.3130   18.8670   13.3990 C.cat  82  ARG82       0.5346
     77  NH1        9.4960   17.9210   14.3050 N.pl3  82  ARG82       0.1354
     78  NH2        8.0840   19.1760   13.0110 N.pl3  82  ARG82       0.1354
     79  N         13.2960   10.5080   13.5840 N.3   124  LEU124     -0.1245
     80  CA        14.1040   11.1260   12.5480 C.3   124  LEU124      0.1561
     81  C         14.5390   10.1050   11.5010 C.2   124  LEU124      0.2260
     82  O         14.9350   10.4820   10.3960 O.2   124  LEU124     -0.2867
     83  CB        15.3310   11.8270   13.1530 C.3   124  LEU124      0.0270
     84  CG        16.2370   12.5620   12.1860 C.3   124  LEU124      0.0019
     85  CD1       15.5400   13.7820   11.6040 C.3   124  LEU124      0.0001
     86  CD2       17.5420   12.9680   12.8560 C.3   124  LEU124      0.0001
     87  N         12.3590    9.8110    8.3810 N.3   127  LEU127     -0.1245
     88  CA        12.6090   10.8360    7.3720 C.3   127  LEU127      0.1561
     89  C         13.9680   10.6870    6.6840 C.2   127  LEU127      0.2260
     90  O         14.3730   11.5580    5.9140 O.2   127  LEU127     -0.2867
     91  CB        12.5500   12.2240    8.0060 C.3   127  LEU127      0.0270
     92  CG        11.4460   12.5970    8.9870 C.3   127  LEU127      0.0019
     93  CD1       11.6850   14.0220    9.3980 C.3   127  LEU127      0.0001
     94  CD2       10.0740   12.4250    8.3730 C.3   127  LEU127      0.0001
     95  N         17.8990   13.3340    4.3940 N.3   133  VAL133     -0.1231
     96  CA        16.7550   13.4320    5.2790 C.3   133  VAL133      0.1692
     97  C         15.8080   14.5470    4.8890 C.2   133  VAL133      0.2592
     98  O         16.2360   15.6080    4.4710 O.2   133  VAL133     -0.2718
     99  CB        17.2210   13.6740    6.7120 C.3   133  VAL133      0.0266
    100  CG1       18.1250   14.9090    6.7560 C.3   133  VAL133      0.0020
    101  CG2       16.0240   13.8540    7.6210 C.3   133  VAL133      0.0020
    102  N         14.5150   14.3020    5.0370 N.am  134  LEU134     -0.1966
    103  CA        13.5120   15.3060    4.7090 C.3   134  LEU134      0.1728
    104  C         13.5920   16.4180    5.7390 C.2   134  LEU134      0.2616
    105  O         13.9730   16.1680    6.8790 O.2   134  LEU134     -0.2715
    106  CB        12.1000   14.7050    4.7410 C.3   134  LEU134      0.0311
    107  CG        11.7910   13.5160    3.8350 C.3   134  LEU134      0.0022
    108  CD1       10.3280   13.1560    3.9650 C.3   134  LEU134      0.0001
    109  CD2       12.1330   13.8660    2.4000 C.3   134  LEU134      0.0001
    110  N         13.2380   17.6370    5.3290 N.am  135  ILE135     -0.1963
    111  CA        13.2380   18.8050    6.2070 C.3   135  ILE135      0.1727
    112  C         12.0280   19.6470    5.8450 C.2   135  ILE135      0.2617
    113  O         11.4870   19.4960    4.7690 O.2   135  ILE135     -0.2715
    114  CB        14.5030   19.6780    6.0220 C.3   135  ILE135      0.0290
    115  CG1       14.4860   20.3270    4.6370 C.3   135  ILE135      0.0022
    116  CG2       15.7560   18.8360    6.2270 C.3   135  ILE135      0.0023
    117  CD1       15.5410   21.3750    4.4350 C.3   135  ILE135      0.0001
    118  N         11.6140   20.5320    6.7450 N.am  136  SER136     -0.1936
    119  CA        10.4650   21.4220    6.5380 C.3   136  SER136      0.2055
    120  C          9.1810   20.7290    6.1120 C.2   136  SER136      0.2642
    121  O          8.7500   20.8720    4.9680 O.2   136  SER136     -0.2714
    122  CB        10.8100   22.4930    5.5080 C.3   136  SER136      0.2130
    123  OG        11.9680   23.1960    5.9070 O.3   136  SER136     -0.2179
    124  N          8.5580   19.9950    7.0290 N.am  137  GLU137     -0.1976
    125  CA         7.3210   19.2950    6.7130 C.3   137  GLU137      0.1602
    126  C          7.4640   18.5320    5.3940 C.2   137  GLU137      0.2287
    127  O          6.4950   18.3440    4.6690 O.2   137  GLU137     -0.2864
    128  CB         6.1670   20.2910    6.5980 C.3   137  GLU137      0.0415
    129  CG         5.7770   21.0090    7.8920 C.3   137  GLU137      0.1163
    130  CD         4.8650   22.2260    7.6510 C.2   137  GLU137      0.3649
    131  OE1        5.3790   23.2870    7.2350 O.co2 137  GLU137     -0.2457
    132  OE2        3.6350   22.1220    7.8690 O.co2 137  GLU137     -0.2457
    133  N         17.7350   17.4470    2.4860 N.3   142  MET142     -0.1245
    134  CA        19.1490   17.7310    2.6340 C.3   142  MET142      0.1570
    135  C         19.9980   16.4740    2.5060 C.2   142  MET142      0.2261
    136  O         19.7130   15.4350    3.1110 O.2   142  MET142     -0.2867
    137  CB        19.4240   18.4260    3.9640 C.3   142  MET142      0.0387
    138  CG        20.2940   19.6480    3.8030 C.3   142  MET142      0.0595
    139  SD        20.5120   20.4920    5.3360 S.3   142  MET142     -0.1393
    140  CE        19.0940   21.5620    5.3470 C.3   142  MET142      0.0692
    141  N         25.3010   14.5300   12.4320 N.3   158  MET158     -0.1245
    142  CA        24.1830   13.8020   11.8760 C.3   158  MET158      0.1570
    143  C         24.6110   12.4350   11.3700 C.2   158  MET158      0.2261
    144  O         23.7680   11.5840   11.0990 O.2   158  MET158     -0.2867
    145  CB        23.5820   14.6070   10.7290 C.3   158  MET158      0.0387
    146  CG        22.9940   15.9260   11.1510 C.3   158  MET158      0.0595
    147  SD        21.3650   15.7160   11.8710 S.3   158  MET158     -0.1393
    148  CE        20.3500   15.9850   10.4160 C.3   158  MET158      0.0692
@<TRIPOS>BOND
     1     1     2    1
     2     3     2    1
     3     3     4    2
     4     2     5    1
     5     5     6    1
     6     6     7    1
     7     6     8    1
     8   109   107    1
     9     9    10    1
    10   133   134    1
    11   135   134    1
    12   135   136    2
    13   134   137    1
    14    27    25   ar
    15    27    28   ar
    16    25    23   ar
    17    28    26   ar
    18    10    13    1
    19    10    11    1
    20    49    47    1
    21    48    47    1
    22    23    22    1
    23    23    24   ar
    24   138   137    1
    25   138   139    1
    26   107   108    1
    27   107   106    1
    28    26    24   ar
    29    22    19    1
    30    18    11   am
    31    18    19    1
    32    47    46    2
    33    95    96    1
    34    13    14    1
    35    11    12    2
    36   117   115    1
    37    98    97    2
    38    21    20    2
    39   115   114    1
    40   127   126    2
    41   103   106    1
    42   103   102    1
    43   103   104    1
    44   113   112    2
    45    19    20    1
    46    97   102   am
    47    97    96    1
    48   121   120    2
    49    32    31    2
    50    96    99    1
    51   110   104   am
    52   110   111    1
    53   139   140    1
    54   126   125    1
    55    14    15    1
    56   122   123    1
    57   122   119    1
    58    46    45    1
    59   104   105    2
    60   112   111    1
    61   112   118   am
    62    90    89    2
    63   114   111    1
    64   114   116    1
    65    31    30    1
    66   120   119    1
    67   120   124   am
    68    45    44    1
    69   119   118    1
    70   128   125    1
    71   128   129    1
    72    15    16    1
    73    89    88    1
    74    99   100    1
    75    99   101    1
    76   125   124    1
    77    29    30    1
    78    57    55    1
    79    30    33    1
    80   131   130   ar
    81    33    34    1
    82    88    91    1
    83    88    87    1
    84    55    54    1
    85   130   132   ar
    86   130   129    1
    87    16    17    1
    88    44    43    1
    89    91    92    1
    90    43    40    1
    91    94    92    1
    92    34    36   ar
    93    34    35   ar
    94    36    38   ar
    95    56    54    1
    96    54    51    1
    97    92    93    1
    98    50    51    1
    99    50    41   am
   100    51    52    1
   101    35    37   ar
   102    40    41    1
   103    40    39    1
   104    41    42    2
   105    38    37   ar
   106    82    81    2
   107   148   147    1
   108   145   146    1
   109   145   142    1
   110    52    53    2
   111   144   143    2
   112   146   147    1
   113   143   142    1
   114    81    80    1
   115    85    84    1
   116   142   141    1
   117    84    86    1
   118    84    83    1
   119    59    60    1
   120    59    58    1
   121    80    83    1
   122    80    79    1
   123    73    74    1
   124    73    72    1
   125    62    60   am
   126    62    63    1
   127    60    61    2
   128    75    74    1
   129    75    76    2
   130    66    63    1
   131    66    67    1
   132    78    76    1
   133    63    64    1
   134    76    77    1
   135    72    69    1
   136    69    68    1
   137    69    70    1
   138    64    65    2
   139    70    71    2
