@<TRIPOS>MOLECULE
tmp/4jb0A01.pdb
 149 144 0 0 0
SMALL
GASTEIGER

@<TRIPOS>ATOM
      1  N         -5.1750   12.8840  -12.1510 N.3    19  LEU19      -0.1245
      2  CA        -4.8570   11.5270  -11.6970 C.3    19  LEU19       0.1561
      3  C         -4.4320   11.5480  -10.2520 C.2    19  LEU19       0.2260
      4  O         -4.8680   10.7200   -9.4900 O.2    19  LEU19      -0.2867
      5  CB        -3.7630   10.8840  -12.5640 C.3    19  LEU19       0.0270
      6  CG        -4.3540   10.2840  -13.8680 C.3    19  LEU19       0.0019
      7  CD1       -4.9560   11.3140  -14.7980 C.3    19  LEU19       0.0001
      8  CD2       -3.2980    9.5690  -14.6040 C.3    19  LEU19       0.0001
      9  N         -6.1380   10.1560   -6.0130 N.3    23  GLU23      -0.1245
     10  CA        -5.3140    9.2880   -5.1660 C.3    23  GLU23       0.1567
     11  C         -5.1180    9.8640   -3.7660 C.2    23  GLU23       0.2260
     12  O         -5.1680    9.1510   -2.7530 O.2    23  GLU23      -0.2867
     13  CB        -3.9440    9.0210   -5.8610 C.3    23  GLU23       0.0388
     14  CG        -4.1740    8.4090   -7.2540 C.3    23  GLU23       0.1160
     15  CD        -2.9500    7.9890   -8.0000 C.2    23  GLU23       0.3649
     16  OE1       -1.9090    8.6860   -7.9570 O.co2  23  GLU23      -0.2457
     17  OE2       -3.0450    6.9320   -8.6600 O.co2  23  GLU23      -0.2457
     18  N          1.8420    9.4210   -9.8040 N.3    73  SER73      -0.1202
     19  CA         0.5170    9.3880  -10.4360 C.3    73  SER73       0.2020
     20  C          0.5940    9.0920  -11.9710 C.2    73  SER73       0.2619
     21  O         -0.4140    8.6350  -12.5970 O.2    73  SER73      -0.2717
     22  CB        -0.1430   10.7640  -10.1750 C.3    73  SER73       0.2103
     23  OG        -0.3410   10.9270   -8.7670 O.3    73  SER73      -0.2182
     24  N          1.7560    9.3440  -12.5880 N.am   74  VAL74      -0.1965
     25  CA         1.9430    9.0600  -14.0270 C.3    74  VAL74       0.1727
     26  C          3.2670    8.2740  -14.1950 C.2    74  VAL74       0.2616
     27  O          4.0460    8.2080  -13.2640 O.2    74  VAL74      -0.2715
     28  CB         1.8840   10.3510  -14.9110 C.3    74  VAL74       0.0290
     29  CG1        0.3900   10.8590  -15.0050 C.3    74  VAL74       0.0023
     30  CG2        2.7390   11.4490  -14.3020 C.3    74  VAL74       0.0023
     31  N          3.5160    7.6790  -15.3480 N.am   75  THR75      -0.1951
     32  CA         4.6050    6.7110  -15.4420 C.3    75  THR75       0.1897
     33  C          6.0300    7.3280  -15.2520 C.2    75  THR75       0.2313
     34  O          6.8420    6.7850  -14.5220 O.2    75  THR75      -0.2863
     35  CB         4.5110    5.9190  -16.7560 C.3    75  THR75       0.1794
     36  OG1        3.2590    5.1960  -16.8040 O.3    75  THR75      -0.2208
     37  CG2        5.7620    4.8970  -16.8540 C.3    75  THR75       0.0378
     38  N          1.8150    3.8910   -7.9460 N.3    95  LEU95      -0.1231
     39  CA         0.3960    4.2840   -8.1120 C.3    95  LEU95       0.1693
     40  C          0.0740    4.6520   -9.5620 C.2    95  LEU95       0.2592
     41  O         -0.9350    5.2920   -9.8430 O.2    95  LEU95      -0.2718
     42  CB         0.0410    5.4250   -7.1350 C.3    95  LEU95       0.0284
     43  CG         0.2470    5.0590   -5.6550 C.3    95  LEU95       0.0019
     44  CD1       -0.0070    6.2270   -4.6630 C.3    95  LEU95       0.0001
     45  CD2       -0.5480    3.7790   -5.2150 C.3    95  LEU95       0.0001
     46  N          0.9480    4.2280  -10.4760 N.am   96  ALA96      -0.1966
     47  CA         0.8340    4.4500  -11.8880 C.3    96  ALA96       0.1713
     48  C          1.5980    3.2600  -12.4920 C.2    96  ALA96       0.2458
     49  O          2.4250    2.6630  -11.8100 O.2    96  ALA96      -0.2730
     50  CB         1.5190    5.7780  -12.2680 C.3    96  ALA96       0.0333
     51  N          1.3110    2.8850  -13.7480 N.am   97  PRO97      -0.2727
     52  CA         1.9990    1.7670  -14.4130 C.3    97  PRO97       0.1402
     53  C          3.4920    2.0760  -14.6070 C.2    97  PRO97       0.2269
     54  O          3.9060    3.2540  -14.6380 O.2    97  PRO97      -0.2865
     55  CB         1.3240    1.6720  -15.7910 C.3    97  PRO97       0.0296
     56  CG         0.1930    2.6490  -15.7520 C.3    97  PRO97       0.0237
     57  CD         0.4960    3.6560  -14.6820 C.3    97  PRO97       0.0939
     58  N         -1.6910   -0.2890  -10.4790 N.3   112  PRO112     -0.2116
     59  CA        -2.5090   -0.2880  -11.6920 C.3   112  PRO112      0.1372
     60  C         -2.3530   -1.5820  -12.4870 C.2   112  PRO112      0.2244
     61  O         -1.3250   -2.2640  -12.3850 O.2   112  PRO112     -0.2868
     62  CB        -1.9480    0.8880  -12.5080 C.3   112  PRO112      0.0268
     63  CG        -1.3470    1.8210  -11.4690 C.3   112  PRO112      0.0207
     64  CD        -0.7470    0.8580  -10.4580 C.3   112  PRO112      0.0892
     65  N          1.7100    9.0630  -26.0880 N.3   139  TYR139     -0.1241
     66  CA         2.7810    9.8960  -25.6230 C.3   139  TYR139      0.1605
     67  C          4.1450    9.4350  -26.1400 C.2   139  TYR139      0.2264
     68  O          4.4220    8.2150  -26.2430 O.2   139  TYR139     -0.2867
     69  CB         2.8740    9.8620  -24.0970 C.3   139  TYR139      0.0534
     70  CG         1.6670   10.2950  -23.2910 C.ar  139  TYR139     -0.0201
     71  CD1        0.8880   11.3800  -23.6800 C.ar  139  TYR139     -0.0009
     72  CD2        1.4150    9.6990  -22.0390 C.ar  139  TYR139     -0.0009
     73  CE1       -0.1780   11.8190  -22.8870 C.ar  139  TYR139      0.0417
     74  CE2        0.3600   10.1450  -21.2260 C.ar  139  TYR139      0.0417
     75  CZ        -0.4310   11.2180  -21.6760 C.ar  139  TYR139      0.1957
     76  OH        -1.4720   11.6640  -20.8940 O.3   139  TYR139     -0.2866
     77  N          5.1410    5.5360  -20.9660 N.3   143  TYR143     -0.1241
     78  CA         3.7540    4.9940  -21.0010 C.3   143  TYR143      0.1605
     79  C          3.3330    4.7400  -22.4430 C.2   143  TYR143      0.2264
     80  O          2.7680    3.6990  -22.7340 O.2   143  TYR143     -0.2867
     81  CB         2.7590    5.9760  -20.3770 C.3   143  TYR143      0.0534
     82  CG         1.3230    5.4550  -20.2350 C.ar  143  TYR143     -0.0201
     83  CD1        1.0260    4.3540  -19.4100 C.ar  143  TYR143     -0.0009
     84  CD2        0.2610    6.0610  -20.9520 C.ar  143  TYR143     -0.0009
     85  CE1       -0.3130    3.8860  -19.2740 C.ar  143  TYR143      0.0417
     86  CE2       -1.0810    5.5920  -20.8420 C.ar  143  TYR143      0.0417
     87  CZ        -1.3500    4.5360  -19.9980 C.ar  143  TYR143      0.1957
     88  OH        -2.6370    4.1290  -19.8770 O.3   143  TYR143     -0.2866
     89  N          3.1870   15.1130  -23.6300 N.3   170  ARG170     -0.1245
     90  CA         2.1720   15.3750  -22.6070 C.3   170  ARG170      0.1563
     91  C          1.5420   16.7740  -22.5640 C.2   170  ARG170      0.2260
     92  O          0.3210   16.8640  -22.4650 O.2   170  ARG170     -0.2867
     93  CB         2.7410   15.0790  -21.2000 C.3   170  ARG170      0.0307
     94  CG         2.3880   13.7180  -20.7030 C.3   170  ARG170      0.0489
     95  CD         3.2430   13.3470  -19.4570 C.3   170  ARG170      0.2205
     96  NE         3.4870   11.8930  -19.4600 N.pl3 170  ARG170     -0.0865
     97  CZ         2.6630   10.9550  -18.9890 C.cat 170  ARG170      0.5346
     98  NH1        1.5130   11.2890  -18.4090 N.pl3 170  ARG170      0.1354
     99  NH2        3.0060    9.6710  -19.0550 N.pl3 170  ARG170      0.1354
    100  N         -3.6810    9.5940  -21.1550 N.3   195  SER195     -0.1217
    101  CA        -4.2420    9.5270  -19.8080 C.3   195  SER195      0.1889
    102  C         -4.8660   10.8550  -19.4180 C.2   195  SER195      0.2288
    103  O         -4.5250   11.8980  -20.0220 O.2   195  SER195     -0.2866
    104  CB        -3.1500    9.1180  -18.7740 C.3   195  SER195      0.2089
    105  OG        -2.1690   10.1630  -18.6460 O.3   195  SER195     -0.2183
    106  N         -6.6780    2.5690  -19.6370 N.3   219  HIS219     -0.1226
    107  CA        -7.1910    2.7270  -18.3100 C.3   219  HIS219      0.1752
    108  C         -6.6580    3.9790  -17.6830 C.2   219  HIS219      0.2596
    109  O         -7.1720    4.3770  -16.6550 O.2   219  HIS219     -0.2718
    110  CB        -6.9600    1.4630  -17.4590 C.3   219  HIS219      0.0759
    111  CG        -5.5230    1.0250  -17.3630 C.ar  219  HIS219      0.0818
    112  ND1       -4.7000    0.9370  -18.4650 N.ar  219  HIS219     -0.2268
    113  CD2       -4.8180    0.5060  -16.3230 C.ar  219  HIS219      0.1154
    114  CE1       -3.5350    0.4200  -18.1050 C.ar  219  HIS219      0.1986
    115  NE2       -3.5920    0.1280  -16.8140 N.ar  219  HIS219     -0.2212
    116  N         -5.7220    4.6850  -18.3740 N.am  220  GLY220     -0.1957
    117  CA        -5.2910    6.0020  -17.9240 C.3   220  GLY220      0.1869
    118  C         -6.3460    7.0650  -18.1330 C.2   220  GLY220      0.2309
    119  O         -6.2620    8.1810  -17.5840 O.2   220  GLY220     -0.2863
    120  N        -10.7290    5.2900  -11.6660 N.3   278  GLN278     -0.1231
    121  CA        -9.6170    4.3230  -11.7260 C.3   278  GLN278      0.1698
    122  C         -8.5610    4.7270  -10.7210 C.2   278  GLN278      0.2592
    123  O         -7.9590    3.8540  -10.0620 O.2   278  GLN278     -0.2718
    124  CB        -9.0850    4.2920  -13.1690 C.3   278  GLN278      0.0381
    125  CG        -7.7790    3.6060  -13.3790 C.3   278  GLN278      0.0905
    126  CD        -7.9700    2.1190  -13.4920 C.2   278  GLN278      0.2608
    127  OE1       -9.0780    1.6680  -13.4990 O.2   278  GLN278     -0.2717
    128  NE2       -6.9000    1.3730  -13.7170 N.am  278  GLN278     -0.0878
    129  N         -8.3510    6.0570  -10.5680 N.am  279  PHE279     -0.1976
    130  CA        -7.1200    6.4990   -9.9000 C.3   279  PHE279      0.1639
    131  C         -7.2480    6.5030   -8.3740 C.2   279  PHE279      0.2290
    132  O         -6.3770    6.0430   -7.6840 O.2   279  PHE279     -0.2864
    133  CB        -6.7000    7.8670  -10.4360 C.3   279  PHE279      0.0560
    134  CG        -6.9170    7.9910  -11.9070 C.ar  279  PHE279     -0.0200
    135  CD1       -6.3750    7.0470  -12.7780 C.ar  279  PHE279     -0.0042
    136  CD2       -7.7220    8.9850  -12.4150 C.ar  279  PHE279     -0.0042
    137  CE1       -6.5930    7.1510  -14.1460 C.ar  279  PHE279     -0.0003
    138  CE2       -7.9320    9.1120  -13.7870 C.ar  279  PHE279     -0.0003
    139  CZ        -7.3890    8.1700  -14.6400 C.ar  279  PHE279     -0.0000
    140  N         -6.2570    3.2000   -6.5860 N.3   282  HIS282     -0.1241
    141  CA        -4.8710    2.6980   -6.4130 C.3   282  HIS282      0.1621
    142  C         -4.3300    2.9700   -5.0420 C.2   282  HIS282      0.2264
    143  O         -3.7160    2.1010   -4.4580 O.2   282  HIS282     -0.2867
    144  CB        -3.9400    3.2520   -7.4730 C.3   282  HIS282      0.0745
    145  CG        -4.3550    2.9040   -8.8820 C.ar  282  HIS282      0.0817
    146  ND1       -4.9030    1.6840   -9.2190 N.ar  282  HIS282     -0.2268
    147  CD2       -4.2990    3.6210  -10.0300 C.ar  282  HIS282      0.1154
    148  CE1       -5.1800    1.6640  -10.5100 C.ar  282  HIS282      0.1986
    149  NE2       -4.8380    2.8290  -11.0250 N.ar  282  HIS282     -0.2212
@<TRIPOS>BOND
     1    68    67    2
     2    67    66    1
     3    65    66    1
     4    66    69    1
     5    69    70    1
     6    71    70   ar
     7    71    73   ar
     8    89    90    1
     9    70    72   ar
    10    73    75   ar
    11    80    79    2
    12    90    91    1
    13    90    93    1
    14    91    92    2
    15    79    78    1
    16    72    74   ar
    17    75    74   ar
    18    75    76    1
    19    93    94    1
    20   100   101    1
    21    78    77    1
    22    78    81    1
    23    84    86   ar
    24    84    82   ar
    25    86    87   ar
    26    94    95    1
    27    81    82    1
    28    82    83   ar
    29   103   102    2
    30    87    88    1
    31    87    85   ar
    32   101   102    1
    33   101   104    1
    34   106   107    1
    35    96    95    1
    36    96    97    2
    37    83    85   ar
    38    99    97    1
    39    97    98    1
    40   104   105    1
    41   112   114   ar
    42   112   111   ar
    43   116   117    1
    44   116   108   am
    45   107   108    1
    46   107   110    1
    47   118   117    1
    48   118   119    2
    49   114   115   ar
    50   108   109    2
    51   110   111    1
    52   111   113   ar
    53    37    35    1
    54   115   113   ar
    55    36    35    1
    56    35    32    1
    57    55    56    1
    58    55    52    1
    59    56    57    1
    60    32    31    1
    61    32    33    1
    62    31    26   am
    63    33    34    2
    64    29    28    1
    65    28    30    1
    66    28    25    1
    67     7     6    1
    68    57    51    1
    69   139   137   ar
    70   139   138   ar
    71    54    53    2
    72    53    52    1
    73     8     6    1
    74    52    51    1
    75    26    25    1
    76    26    27    2
    77   137   135   ar
    78    25    24    1
    79     6     5    1
    80   138   136   ar
    81    51    48   am
    82   128   126   am
    83   127   126    2
    84   126   125    1
    85   125   124    1
    86   124   121    1
    87   135   134   ar
    88    21    20    2
    89    24    20   am
    90     5     2    1
    91    62    59    1
    92    62    63    1
    93    48    47    1
    94    48    49    2
    95    60    61    2
    96    60    59    1
    97   136   134   ar
    98    50    47    1
    99     1     2    1
   100    20    19    1
   101   134   133    1
   102    47    46    1
   103   121   120    1
   104   121   122    1
   105     2     3    1
   106    59    58    1
   107    63    64    1
   108   149   148   ar
   109   149   147   ar
   110   122   129   am
   111   122   123    2
   112   129   130    1
   113   148   146   ar
   114    58    64    1
   115    46    40   am
   116    19    22    1
   117    19    18    1
   118   133   130    1
   119     3     4    2
   120    22    23    1
   121   147   145   ar
   122   130   131    1
   123    41    40    2
   124    40    39    1
   125   146   145   ar
   126   145   144    1
   127    17    15   ar
   128   131   132    2
   129    39    38    1
   130    39    42    1
   131    15    16   ar
   132    15    14    1
   133   144   141    1
   134    14    13    1
   135    42    43    1
   136   140   141    1
   137   141   142    1
   138     9    10    1
   139    13    10    1
   140    43    45    1
   141    43    44    1
   142    10    11    1
   143   142   143    2
   144    11    12    2
