@<TRIPOS>MOLECULE
tmp/4jb0A00.pdb
 144 138 0 0 0
SMALL
GASTEIGER

@<TRIPOS>ATOM
      1  N         -5.1750   12.8840  -12.1510 N.3    19  LEU19      -0.1245
      2  CA        -4.8570   11.5270  -11.6970 C.3    19  LEU19       0.1561
      3  C         -4.4320   11.5480  -10.2520 C.2    19  LEU19       0.2260
      4  O         -4.8680   10.7200   -9.4900 O.2    19  LEU19      -0.2867
      5  CB        -3.7630   10.8840  -12.5640 C.3    19  LEU19       0.0270
      6  CG        -4.3540   10.2840  -13.8680 C.3    19  LEU19       0.0019
      7  CD1       -4.9560   11.3140  -14.7980 C.3    19  LEU19       0.0001
      8  CD2       -3.2980    9.5690  -14.6040 C.3    19  LEU19       0.0001
      9  N         -6.1380   10.1560   -6.0130 N.3    23  GLU23      -0.1245
     10  CA        -5.3140    9.2880   -5.1660 C.3    23  GLU23       0.1567
     11  C         -5.1180    9.8640   -3.7660 C.2    23  GLU23       0.2260
     12  O         -5.1680    9.1510   -2.7530 O.2    23  GLU23      -0.2867
     13  CB        -3.9440    9.0210   -5.8610 C.3    23  GLU23       0.0388
     14  CG        -4.1740    8.4090   -7.2540 C.3    23  GLU23       0.1160
     15  CD        -2.9500    7.9890   -8.0000 C.2    23  GLU23       0.3649
     16  OE1       -1.9090    8.6860   -7.9570 O.co2  23  GLU23      -0.2457
     17  OE2       -3.0450    6.9320   -8.6600 O.co2  23  GLU23      -0.2457
     18  N          1.8420    9.4210   -9.8040 N.3    73  SER73      -0.1202
     19  CA         0.5170    9.3880  -10.4360 C.3    73  SER73       0.2020
     20  C          0.5940    9.0920  -11.9710 C.2    73  SER73       0.2619
     21  O         -0.4140    8.6350  -12.5970 O.2    73  SER73      -0.2717
     22  CB        -0.1430   10.7640  -10.1750 C.3    73  SER73       0.2103
     23  OG        -0.3410   10.9270   -8.7670 O.3    73  SER73      -0.2182
     24  N          1.7560    9.3440  -12.5880 N.am   74  VAL74      -0.1965
     25  CA         1.9430    9.0600  -14.0270 C.3    74  VAL74       0.1727
     26  C          3.2670    8.2740  -14.1950 C.2    74  VAL74       0.2616
     27  O          4.0460    8.2080  -13.2640 O.2    74  VAL74      -0.2715
     28  CB         1.8840   10.3510  -14.9110 C.3    74  VAL74       0.0290
     29  CG1        0.3900   10.8590  -15.0050 C.3    74  VAL74       0.0023
     30  CG2        2.7390   11.4490  -14.3020 C.3    74  VAL74       0.0023
     31  N          3.5160    7.6790  -15.3480 N.am   75  THR75      -0.1951
     32  CA         4.6050    6.7110  -15.4420 C.3    75  THR75       0.1897
     33  C          6.0300    7.3280  -15.2520 C.2    75  THR75       0.2313
     34  O          6.8420    6.7850  -14.5220 O.2    75  THR75      -0.2863
     35  CB         4.5110    5.9190  -16.7560 C.3    75  THR75       0.1794
     36  OG1        3.2590    5.1960  -16.8040 O.3    75  THR75      -0.2208
     37  CG2        5.7620    4.8970  -16.8540 C.3    75  THR75       0.0378
     38  N          1.8150    3.8910   -7.9460 N.3    95  LEU95      -0.1245
     39  CA         0.3960    4.2840   -8.1120 C.3    95  LEU95       0.1561
     40  C          0.0740    4.6520   -9.5620 C.2    95  LEU95       0.2260
     41  O         -0.9350    5.2920   -9.8430 O.2    95  LEU95      -0.2867
     42  CB         0.0410    5.4250   -7.1350 C.3    95  LEU95       0.0270
     43  CG         0.2470    5.0590   -5.6550 C.3    95  LEU95       0.0019
     44  CD1       -0.0070    6.2270   -4.6630 C.3    95  LEU95       0.0001
     45  CD2       -0.5480    3.7790   -5.2150 C.3    95  LEU95       0.0001
     46  N          1.3110    2.8850  -13.7480 N.3    97  PRO97      -0.2116
     47  CA         1.9990    1.7670  -14.4130 C.3    97  PRO97       0.1372
     48  C          3.4920    2.0760  -14.6070 C.2    97  PRO97       0.2244
     49  O          3.9060    3.2540  -14.6380 O.2    97  PRO97      -0.2868
     50  CB         1.3240    1.6720  -15.7910 C.3    97  PRO97       0.0268
     51  CG         0.1930    2.6490  -15.7520 C.3    97  PRO97       0.0207
     52  CD         0.4960    3.6560  -14.6820 C.3    97  PRO97       0.0892
     53  N         -1.6910   -0.2890  -10.4790 N.3   112  PRO112     -0.2116
     54  CA        -2.5090   -0.2880  -11.6920 C.3   112  PRO112      0.1372
     55  C         -2.3530   -1.5820  -12.4870 C.2   112  PRO112      0.2244
     56  O         -1.3250   -2.2640  -12.3850 O.2   112  PRO112     -0.2868
     57  CB        -1.9480    0.8880  -12.5080 C.3   112  PRO112      0.0268
     58  CG        -1.3470    1.8210  -11.4690 C.3   112  PRO112      0.0207
     59  CD        -0.7470    0.8580  -10.4580 C.3   112  PRO112      0.0892
     60  N          1.7100    9.0630  -26.0880 N.3   139  TYR139     -0.1241
     61  CA         2.7810    9.8960  -25.6230 C.3   139  TYR139      0.1605
     62  C          4.1450    9.4350  -26.1400 C.2   139  TYR139      0.2264
     63  O          4.4220    8.2150  -26.2430 O.2   139  TYR139     -0.2867
     64  CB         2.8740    9.8620  -24.0970 C.3   139  TYR139      0.0534
     65  CG         1.6670   10.2950  -23.2910 C.ar  139  TYR139     -0.0201
     66  CD1        0.8880   11.3800  -23.6800 C.ar  139  TYR139     -0.0009
     67  CD2        1.4150    9.6990  -22.0390 C.ar  139  TYR139     -0.0009
     68  CE1       -0.1780   11.8190  -22.8870 C.ar  139  TYR139      0.0417
     69  CE2        0.3600   10.1450  -21.2260 C.ar  139  TYR139      0.0417
     70  CZ        -0.4310   11.2180  -21.6760 C.ar  139  TYR139      0.1957
     71  OH        -1.4720   11.6640  -20.8940 O.3   139  TYR139     -0.2866
     72  N          5.1410    5.5360  -20.9660 N.3   143  TYR143     -0.1241
     73  CA         3.7540    4.9940  -21.0010 C.3   143  TYR143      0.1605
     74  C          3.3330    4.7400  -22.4430 C.2   143  TYR143      0.2264
     75  O          2.7680    3.6990  -22.7340 O.2   143  TYR143     -0.2867
     76  CB         2.7590    5.9760  -20.3770 C.3   143  TYR143      0.0534
     77  CG         1.3230    5.4550  -20.2350 C.ar  143  TYR143     -0.0201
     78  CD1        1.0260    4.3540  -19.4100 C.ar  143  TYR143     -0.0009
     79  CD2        0.2610    6.0610  -20.9520 C.ar  143  TYR143     -0.0009
     80  CE1       -0.3130    3.8860  -19.2740 C.ar  143  TYR143      0.0417
     81  CE2       -1.0810    5.5920  -20.8420 C.ar  143  TYR143      0.0417
     82  CZ        -1.3500    4.5360  -19.9980 C.ar  143  TYR143      0.1957
     83  OH        -2.6370    4.1290  -19.8770 O.3   143  TYR143     -0.2866
     84  N          3.1870   15.1130  -23.6300 N.3   170  ARG170     -0.1245
     85  CA         2.1720   15.3750  -22.6070 C.3   170  ARG170      0.1563
     86  C          1.5420   16.7740  -22.5640 C.2   170  ARG170      0.2260
     87  O          0.3210   16.8640  -22.4650 O.2   170  ARG170     -0.2867
     88  CB         2.7410   15.0790  -21.2000 C.3   170  ARG170      0.0307
     89  CG         2.3880   13.7180  -20.7030 C.3   170  ARG170      0.0489
     90  CD         3.2430   13.3470  -19.4570 C.3   170  ARG170      0.2205
     91  NE         3.4870   11.8930  -19.4600 N.pl3 170  ARG170     -0.0865
     92  CZ         2.6630   10.9550  -18.9890 C.cat 170  ARG170      0.5346
     93  NH1        1.5130   11.2890  -18.4090 N.pl3 170  ARG170      0.1354
     94  NH2        3.0060    9.6710  -19.0550 N.pl3 170  ARG170      0.1354
     95  N         -3.6810    9.5940  -21.1550 N.3   195  SER195     -0.1217
     96  CA        -4.2420    9.5270  -19.8080 C.3   195  SER195      0.1889
     97  C         -4.8660   10.8550  -19.4180 C.2   195  SER195      0.2288
     98  O         -4.5250   11.8980  -20.0220 O.2   195  SER195     -0.2866
     99  CB        -3.1500    9.1180  -18.7740 C.3   195  SER195      0.2089
    100  OG        -2.1690   10.1630  -18.6460 O.3   195  SER195     -0.2183
    101  N         -6.6780    2.5690  -19.6370 N.3   219  HIS219     -0.1226
    102  CA        -7.1910    2.7270  -18.3100 C.3   219  HIS219      0.1752
    103  C         -6.6580    3.9790  -17.6830 C.2   219  HIS219      0.2596
    104  O         -7.1720    4.3770  -16.6550 O.2   219  HIS219     -0.2718
    105  CB        -6.9600    1.4630  -17.4590 C.3   219  HIS219      0.0759
    106  CG        -5.5230    1.0250  -17.3630 C.ar  219  HIS219      0.0818
    107  ND1       -4.7000    0.9370  -18.4650 N.ar  219  HIS219     -0.2268
    108  CD2       -4.8180    0.5060  -16.3230 C.ar  219  HIS219      0.1154
    109  CE1       -3.5350    0.4200  -18.1050 C.ar  219  HIS219      0.1986
    110  NE2       -3.5920    0.1280  -16.8140 N.ar  219  HIS219     -0.2212
    111  N         -5.7220    4.6850  -18.3740 N.am  220  GLY220     -0.1957
    112  CA        -5.2910    6.0020  -17.9240 C.3   220  GLY220      0.1869
    113  C         -6.3460    7.0650  -18.1330 C.2   220  GLY220      0.2309
    114  O         -6.2620    8.1810  -17.5840 O.2   220  GLY220     -0.2863
    115  N        -10.7290    5.2900  -11.6660 N.3   278  GLN278     -0.1231
    116  CA        -9.6170    4.3230  -11.7260 C.3   278  GLN278      0.1698
    117  C         -8.5610    4.7270  -10.7210 C.2   278  GLN278      0.2592
    118  O         -7.9590    3.8540  -10.0620 O.2   278  GLN278     -0.2718
    119  CB        -9.0850    4.2920  -13.1690 C.3   278  GLN278      0.0381
    120  CG        -7.7790    3.6060  -13.3790 C.3   278  GLN278      0.0905
    121  CD        -7.9700    2.1190  -13.4920 C.2   278  GLN278      0.2608
    122  OE1       -9.0780    1.6680  -13.4990 O.2   278  GLN278     -0.2717
    123  NE2       -6.9000    1.3730  -13.7170 N.am  278  GLN278     -0.0878
    124  N         -8.3510    6.0570  -10.5680 N.am  279  PHE279     -0.1976
    125  CA        -7.1200    6.4990   -9.9000 C.3   279  PHE279      0.1639
    126  C         -7.2480    6.5030   -8.3740 C.2   279  PHE279      0.2290
    127  O         -6.3770    6.0430   -7.6840 O.2   279  PHE279     -0.2864
    128  CB        -6.7000    7.8670  -10.4360 C.3   279  PHE279      0.0560
    129  CG        -6.9170    7.9910  -11.9070 C.ar  279  PHE279     -0.0200
    130  CD1       -6.3750    7.0470  -12.7780 C.ar  279  PHE279     -0.0042
    131  CD2       -7.7220    8.9850  -12.4150 C.ar  279  PHE279     -0.0042
    132  CE1       -6.5930    7.1510  -14.1460 C.ar  279  PHE279     -0.0003
    133  CE2       -7.9320    9.1120  -13.7870 C.ar  279  PHE279     -0.0003
    134  CZ        -7.3890    8.1700  -14.6400 C.ar  279  PHE279     -0.0000
    135  N         -6.2570    3.2000   -6.5860 N.3   282  HIS282     -0.1241
    136  CA        -4.8710    2.6980   -6.4130 C.3   282  HIS282      0.1621
    137  C         -4.3300    2.9700   -5.0420 C.2   282  HIS282      0.2264
    138  O         -3.7160    2.1010   -4.4580 O.2   282  HIS282     -0.2867
    139  CB        -3.9400    3.2520   -7.4730 C.3   282  HIS282      0.0745
    140  CG        -4.3550    2.9040   -8.8820 C.ar  282  HIS282      0.0817
    141  ND1       -4.9030    1.6840   -9.2190 N.ar  282  HIS282     -0.2268
    142  CD2       -4.2990    3.6210  -10.0300 C.ar  282  HIS282      0.1154
    143  CE1       -5.1800    1.6640  -10.5100 C.ar  282  HIS282      0.1986
    144  NE2       -4.8380    2.8290  -11.0250 N.ar  282  HIS282     -0.2212
@<TRIPOS>BOND
     1    63    62    2
     2    62    61    1
     3    60    61    1
     4    61    64    1
     5    64    65    1
     6    66    65   ar
     7    66    68   ar
     8    84    85    1
     9    65    67   ar
    10    68    70   ar
    11    75    74    2
    12    85    86    1
    13    85    88    1
    14    86    87    2
    15    74    73    1
    16    67    69   ar
    17    70    69   ar
    18    70    71    1
    19    88    89    1
    20    95    96    1
    21    73    72    1
    22    73    76    1
    23    79    81   ar
    24    79    77   ar
    25    81    82   ar
    26    89    90    1
    27    76    77    1
    28    77    78   ar
    29    98    97    2
    30    82    83    1
    31    82    80   ar
    32    96    97    1
    33    96    99    1
    34   101   102    1
    35    91    90    1
    36    91    92    2
    37    78    80   ar
    38    94    92    1
    39    92    93    1
    40    99   100    1
    41   107   109   ar
    42   107   106   ar
    43   111   112    1
    44   111   103   am
    45   102   103    1
    46   102   105    1
    47   113   112    1
    48   113   114    2
    49   109   110   ar
    50   103   104    2
    51   105   106    1
    52   106   108   ar
    53    37    35    1
    54   110   108   ar
    55    36    35    1
    56    35    32    1
    57    50    51    1
    58    50    47    1
    59    51    52    1
    60    32    31    1
    61    32    33    1
    62    31    26   am
    63    33    34    2
    64    29    28    1
    65    28    30    1
    66    28    25    1
    67     7     6    1
    68    52    46    1
    69   134   132   ar
    70   134   133   ar
    71    49    48    2
    72    48    47    1
    73     8     6    1
    74    47    46    1
    75    26    25    1
    76    26    27    2
    77   132   130   ar
    78    25    24    1
    79     6     5    1
    80   133   131   ar
    81   123   121   am
    82   122   121    2
    83   121   120    1
    84   120   119    1
    85   119   116    1
    86   130   129   ar
    87    21    20    2
    88    24    20   am
    89     5     2    1
    90    57    54    1
    91    57    58    1
    92    55    56    2
    93    55    54    1
    94   131   129   ar
    95     1     2    1
    96    20    19    1
    97   129   128    1
    98   116   115    1
    99   116   117    1
   100     2     3    1
   101    54    53    1
   102    58    59    1
   103   144   143   ar
   104   144   142   ar
   105   117   124   am
   106   117   118    2
   107   124   125    1
   108   143   141   ar
   109    53    59    1
   110    19    22    1
   111    19    18    1
   112   128   125    1
   113     3     4    2
   114    22    23    1
   115   142   140   ar
   116   125   126    1
   117    41    40    2
   118    40    39    1
   119   141   140   ar
   120   140   139    1
   121    17    15   ar
   122   126   127    2
   123    39    38    1
   124    39    42    1
   125    15    16   ar
   126    15    14    1
   127   139   136    1
   128    14    13    1
   129    42    43    1
   130   135   136    1
   131   136   137    1
   132     9    10    1
   133    13    10    1
   134    43    45    1
   135    43    44    1
   136    10    11    1
   137   137   138    2
   138    11    12    2
