@<TRIPOS>MOLECULE
tmp/4jb7A00.pdb
 86 83 0 0 0
SMALL
GASTEIGER

@<TRIPOS>ATOM
      1  N         18.4370   16.5250   15.0020 N.3     8  PRO8       -0.2102
      2  CA        17.3150   17.4470   14.8510 C.3     8  PRO8        0.1504
      3  C         16.3810   17.5020   16.0480 C.2     8  PRO8        0.2576
      4  O         16.3180   16.5910   16.8760 O.2     8  PRO8       -0.2718
      5  CB        16.5370   16.8410   13.6660 C.3     8  PRO8        0.0282
      6  CG        16.8540   15.3710   13.7420 C.3     8  PRO8        0.0208
      7  CD        18.3030   15.3430   14.1410 C.3     8  PRO8        0.0893
      8  N         15.6630   18.6100   16.1500 N.am    9  GLY9       -0.1957
      9  CA        14.5900   18.6470   17.0990 C.3     9  GLY9        0.1869
     10  C         13.4840   17.6430   16.7540 C.2     9  GLY9        0.2309
     11  O         13.1730   17.3780   15.5830 O.2     9  GLY9       -0.2863
     12  N         17.9920   20.4450   17.5890 N.3    35  GLY35      -0.1210
     13  CA        17.4460   21.5640   16.8290 C.3    35  GLY35       0.1940
     14  C         17.9570   21.5050   15.4050 C.2    35  GLY35       0.2453
     15  O         18.6020   20.5350   15.0050 O.2    35  GLY35      -0.2732
     16  N         17.6900   22.5550   14.6130 N.am   36  PRO36      -0.2728
     17  CA        18.2000   22.5730   13.2570 C.3    36  PRO36       0.1401
     18  C         19.7260   22.4190   13.2380 C.2    36  PRO36       0.2269
     19  O         20.4200   22.9590   14.1000 O.2    36  PRO36      -0.2865
     20  CB        17.7320   23.9410   12.7150 C.3    36  PRO36       0.0296
     21  CG        16.5230   24.2810   13.5670 C.3    36  PRO36       0.0237
     22  CD        16.8320   23.7110   14.9310 C.3    36  PRO36       0.0939
     23  N         16.3120   11.8020   12.0780 N.3    54  ALA54      -0.1245
     24  CA        14.8650   11.6630   12.0410 C.3    54  ALA54       0.1562
     25  C         14.3010   11.1550   10.6910 C.2    54  ALA54       0.2260
     26  O         13.1050   11.0720   10.5220 O.2    54  ALA54      -0.2867
     27  CB        14.1880   12.9850   12.5060 C.3    54  ALA54       0.0290
     28  N         17.8280   12.6800    5.6170 N.3    58  SER58      -0.1217
     29  CA        18.3230   13.8240    6.3680 C.3    58  SER58       0.1889
     30  C         19.5560   13.4370    7.1680 C.2    58  SER58       0.2288
     31  O         20.5100   14.2170    7.2730 O.2    58  SER58      -0.2866
     32  CB        17.2690   14.4700    7.2570 C.3    58  SER58       0.2089
     33  OG        16.7730   13.5710    8.2530 O.3    58  SER58      -0.2183
     34  N         18.4780   20.5060    6.0410 N.3   116  ASN116     -0.1225
     35  CA        18.3580   19.0480    6.1190 C.3   116  ASN116      0.1785
     36  C         17.3190   18.6740    7.1520 C.2   116  ASN116      0.2598
     37  O         17.6130   18.5930    8.3470 O.2   116  ASN116     -0.2718
     38  CB        19.7380   18.4310    6.3970 C.3   116  ASN116      0.1169
     39  CG        20.7080   18.7040    5.2780 C.2   116  ASN116      0.2627
     40  OD1       20.3580   18.5940    4.0840 O.2   116  ASN116     -0.2716
     41  ND2       21.9430   19.0500    5.6510 N.am  116  ASN116     -0.0877
     42  N         16.1000   18.4910    6.6740 N.am  117  THR117     -0.1939
     43  CA        14.9310   18.2650    7.5270 C.3   117  THR117      0.2028
     44  C         14.2830   16.9390    7.1590 C.2   117  THR117      0.2642
     45  O         14.2670   16.5350    5.9930 O.2   117  THR117     -0.2714
     46  CB        13.9790   19.4780    7.4830 C.3   117  THR117      0.1808
     47  OG1       13.0540   19.3970    8.5670 O.3   117  THR117     -0.2208
     48  CG2       13.1780   19.5590    6.1690 C.3   117  THR117      0.0379
     49  N         13.7570   16.2400    8.1570 N.am  118  SER118     -0.1949
     50  CA        13.2880   14.8920    7.9400 C.3   118  SER118      0.1924
     51  C         12.0980   14.7330    7.0350 C.2   118  SER118      0.2314
     52  O         11.9700   13.6950    6.4010 O.2   118  SER118     -0.2863
     53  CB        12.9950   14.2230    9.2770 C.3   118  SER118      0.2116
     54  OG        11.8600   14.7910    9.8990 O.3   118  SER118     -0.2180
     55  N         11.7950   23.5470    8.2330 N.3   148  ASN148     -0.1225
     56  CA        12.1390   22.9110    9.4850 C.3   148  ASN148      0.1785
     57  C         10.8940   22.8010   10.3680 C.2   148  ASN148      0.2598
     58  O          9.8030   23.2360    9.9900 O.2   148  ASN148     -0.2718
     59  CB        13.2940   23.6740   10.1590 C.3   148  ASN148      0.1169
     60  CG        12.9840   25.1280   10.3310 C.2   148  ASN148      0.2627
     61  OD1       11.8760   25.4730   10.7340 O.2   148  ASN148     -0.2716
     62  ND2       13.9550   26.0140   10.0480 N.am  148  ASN148     -0.0877
     63  N         11.0340   22.2170   11.5520 N.am  149  SER149     -0.1938
     64  CA         9.8710   21.9620   12.4040 C.3   149  SER149      0.2055
     65  C          9.3190   23.2530   12.9800 C.2   149  SER149      0.2643
     66  O          8.0990   23.4260   12.9870 O.2   149  SER149     -0.2714
     67  CB        10.2430   20.9720   13.5120 C.3   149  SER149      0.2130
     68  OG         9.1180   20.7070   14.3390 O.3   149  SER149     -0.2179
     69  N         10.1720   24.1610   13.4520 N.am  150  GLY150     -0.1954
     70  CA         9.6840   25.3780   14.0730 C.3   150  GLY150      0.1869
     71  C          8.8880   26.2550   13.1350 C.2   150  GLY150      0.2309
     72  O          7.8610   26.8430   13.5290 O.2   150  GLY150     -0.2863
     73  N          5.0390   14.2100   11.8890 N.3   168  TRP168     -0.1241
     74  CA         5.2660   12.8820   12.4650 C.3   168  TRP168      0.1605
     75  C          4.4040   12.5830   13.6670 C.2   168  TRP168      0.2264
     76  O          4.1500   13.4730   14.4910 O.2   168  TRP168     -0.2867
     77  CB         6.7470   12.7570   12.8460 C.3   168  TRP168      0.0550
     78  CG         7.6800   12.8980   11.6810 C.ar  168  TRP168      0.0003
     79  CD1        8.6080   13.8890   11.4540 C.ar  168  TRP168      0.0946
     80  CD2        7.7750   12.0060   10.5680 C.ar  168  TRP168      0.0152
     81  NE1        9.2540   13.6700   10.2730 N.ar  168  TRP168     -0.2442
     82  CE2        8.7530   12.5350    9.6850 C.ar  168  TRP168      0.0810
     83  CE3        7.1060   10.8320   10.2000 C.ar  168  TRP168      0.0012
     84  CZ2        9.0880   11.9090    8.4810 C.ar  168  TRP168      0.0191
     85  CZ3        7.4400   10.2130    9.0090 C.ar  168  TRP168      0.0001
     86  CH2        8.3940   10.7700    8.1470 C.ar  168  TRP168      0.0015
@<TRIPOS>BOND
     1    40    39    2
     2    39    41   am
     3    39    38    1
     4    28    29    1
     5    45    44    2
     6    34    35    1
     7    35    38    1
     8    35    36    1
     9    48    46    1
    10    29    30    1
    11    29    32    1
    12    52    51    2
    13    42    36   am
    14    42    43    1
    15    51    50    1
    16    36    37    2
    17    44    43    1
    18    44    49   am
    19    30    31    2
    20    32    33    1
    21    46    43    1
    22    46    47    1
    23    50    49    1
    24    50    53    1
    25    86    84   ar
    26    86    85   ar
    27    55    56    1
    28    84    82   ar
    29    85    83   ar
    30    53    54    1
    31    56    59    1
    32    56    57    1
    33    82    81   ar
    34    82    80   ar
    35    58    57    2
    36    62    60   am
    37    59    60    1
    38    83    80   ar
    39    81    79   ar
    40    60    61    2
    41    57    63   am
    42    26    25    2
    43    80    78   ar
    44    25    24    1
    45    79    78   ar
    46    63    64    1
    47    78    77    1
    48    73    74    1
    49    24    23    1
    50    24    27    1
    51    64    65    1
    52    64    67    1
    53    74    77    1
    54    74    75    1
    55    20    17    1
    56    20    21    1
    57    65    66    2
    58    65    69   am
    59    71    72    2
    60    71    70    1
    61    18    17    1
    62    18    19    2
    63    17    16    1
    64    69    70    1
    65    67    68    1
    66    21    22    1
    67     5     6    1
    68     5     2    1
    69    75    76    2
    70     6     7    1
    71     7     1    1
    72    16    22    1
    73    16    14   am
    74     2     1    1
    75     2     3    1
    76    15    14    2
    77    14    13    1
    78    11    10    2
    79     3     8   am
    80     3     4    2
    81     8     9    1
    82    10     9    1
    83    13    12    1
