@<TRIPOS>MOLECULE
tmp/4jbdA00.pdb
 95 89 0 0 0
SMALL
GASTEIGER

@<TRIPOS>ATOM
      1  N          5.6980   12.9120   11.2150 N.3    14  GLU14      -0.1245
      2  CA         4.2780   12.6120   11.2330 C.3    14  GLU14       0.1567
      3  C          3.5180   13.9050   10.9150 C.2    14  GLU14       0.2260
      4  O          3.6130   14.8770   11.6630 O.2    14  GLU14      -0.2867
      5  CB         3.9060   12.0280   12.6060 C.3    14  GLU14       0.0388
      6  CG         2.6170   11.2250   12.6480 C.3    14  GLU14       0.1160
      7  CD         2.6380    9.8580   11.9450 C.2    14  GLU14       0.3649
      8  OE1        3.6710    9.3660   11.4480 O.co2  14  GLU14      -0.2457
      9  OE2        1.5520    9.2390   11.8970 O.co2  14  GLU14      -0.2457
     10  N         -3.0580   13.7460    9.2670 N.3    60  VAL60      -0.1245
     11  CA        -4.1010   14.1160   10.2140 C.3    60  VAL60       0.1561
     12  C         -4.4050   15.6030   10.0130 C.2    60  VAL60       0.2260
     13  O         -3.4870   16.4270    9.8970 O.2    60  VAL60      -0.2867
     14  CB        -3.6900   13.8240   11.6770 C.3    60  VAL60       0.0252
     15  CG1       -4.6880   14.4390   12.6540 C.3    60  VAL60       0.0019
     16  CG2       -3.5720   12.3260   11.9210 C.3    60  VAL60       0.0019
     17  N         -8.1460   12.6320   20.5970 N.3    87  MET87      -0.1230
     18  CA        -6.9200   13.4020   20.7740 C.3    87  MET87       0.1702
     19  C         -5.8950   12.9910   19.7220 C.2    87  MET87       0.2592
     20  O         -6.0510   11.9870   19.0330 O.2    87  MET87      -0.2718
     21  CB        -6.3530   13.1670   22.1660 C.3    87  MET87       0.0401
     22  CG        -7.1130   13.9130   23.2260 C.3    87  MET87       0.0596
     23  SD        -6.5920   13.5210   24.9090 S.3    87  MET87      -0.1393
     24  CE        -6.8520   11.7460   24.9750 C.3    87  MET87       0.0692
     25  N         -4.8380   13.7850   19.5960 N.am   88  CYS88      -0.1956
     26  CA        -3.7620   13.4870   18.6550 C.3    88  CYS88       0.1843
     27  C         -2.4930   14.1370   19.1480 C.2    88  CYS88       0.2626
     28  O         -2.3470   15.3710   19.0960 O.2    88  CYS88      -0.2714
     29  CB        -4.1030   13.9650   17.2430 C.3    88  CYS88       0.0997
     30  SG        -2.8090   13.6260   16.0630 S.3    88  CYS88      -0.0797
     31  N         -1.5710   13.3350   19.6740 N.am   89  GLY89      -0.1940
     32  CA        -0.3670   13.8750   20.2750 C.3    89  GLY89       0.2014
     33  C          0.4720   14.6690   19.2870 C.2    89  GLY89       0.2638
     34  O          0.8420   15.8170   19.5330 O.2    89  GLY89      -0.2714
     35  N          0.7700   14.0530   18.1560 N.am   90  HIS90      -0.1973
     36  CA         1.6600   14.6710   17.1850 C.3    90  HIS90       0.1656
     37  C          1.0080   15.9110   16.5900 C.2    90  HIS90       0.2291
     38  O          1.6750   16.9130   16.3190 O.2    90  HIS90      -0.2864
     39  CB         2.1100   13.6710   16.1140 C.3    90  HIS90       0.0771
     40  CG         1.2490   13.6170   14.8870 C.ar   90  HIS90       0.0820
     41  ND1        0.2830   12.6530   14.6950 N.ar   90  HIS90      -0.2267
     42  CD2        1.2480   14.3730   13.7640 C.ar   90  HIS90       0.1154
     43  CE1       -0.3020   12.8400   13.5280 C.ar   90  HIS90       0.1986
     44  NE2        0.2650   13.8750   12.9440 N.ar   90  HIS90      -0.2212
     45  N          1.6240   13.6380   29.0860 N.3   133  ASN133     -0.1240
     46  CA         0.9080   12.4750   28.6050 C.3   133  ASN133      0.1653
     47  C          0.1480   11.7900   29.7490 C.2   133  ASN133      0.2266
     48  O          0.2750   12.2120   30.9030 O.2   133  ASN133     -0.2867
     49  CB         1.9090   11.5630   27.8880 C.3   133  ASN133      0.1155
     50  CG         2.1170   11.9810   26.4340 C.2   133  ASN133      0.2627
     51  OD1        2.6400   13.0760   26.1230 O.2   133  ASN133     -0.2716
     52  ND2        1.6530   11.1580   25.5430 N.am  133  ASN133     -0.0877
     53  N         -2.3210    3.9620   24.9580 N.3   162  ASN162     -0.1240
     54  CA        -2.7000    2.8040   24.1750 C.3   162  ASN162      0.1653
     55  C         -1.9450    1.6330   24.7910 C.2   162  ASN162      0.2266
     56  O         -0.9750    1.8310   25.5330 O.2   162  ASN162     -0.2867
     57  CB        -2.2510    2.9390   22.7180 C.3   162  ASN162      0.1155
     58  CG        -3.0190    3.9800   21.9500 C.2   162  ASN162      0.2627
     59  OD1       -4.1810    3.7770   21.6090 O.2   162  ASN162     -0.2716
     60  ND2       -2.3570    5.0830   21.6260 N.am  162  ASN162     -0.0877
     61  N         -0.7610   -2.1530   19.4170 N.3   208  HIS208     -0.1241
     62  CA         0.4760   -1.5580   18.9560 C.3   208  HIS208      0.1621
     63  C          1.6440   -2.4110   19.3850 C.2   208  HIS208      0.2264
     64  O          1.6330   -2.9720   20.4920 O.2   208  HIS208     -0.2867
     65  CB         0.7330   -0.1730   19.5780 C.3   208  HIS208      0.0745
     66  CG        -0.2150    0.9110   19.1650 C.ar  208  HIS208      0.0817
     67  ND1       -1.5430    0.9210   19.5350 N.ar  208  HIS208     -0.2268
     68  CD2       -0.0050    2.0620   18.4780 C.ar  208  HIS208      0.1154
     69  CE1       -2.1140    2.0140   19.0620 C.ar  208  HIS208      0.1986
     70  NE2       -1.2040    2.7170   18.4160 N.ar  208  HIS208     -0.2212
     71  N          4.3710    4.6080   12.6580 N.3   232  ASP232     -0.1239
     72  CA         4.5600    5.9890   13.0400 C.3   232  ASP232      0.1674
     73  C          5.9220    6.4560   12.5450 C.2   232  ASP232      0.2266
     74  O          6.9370    5.8070   12.7560 O.2   232  ASP232     -0.2867
     75  CB         4.4700    6.0850   14.5680 C.3   232  ASP232      0.1410
     76  CG         4.2210    7.4940   15.0720 C.2   232  ASP232      0.3668
     77  OD1        4.6690    8.4750   14.4560 O.co2 232  ASP232     -0.2456
     78  OD2        3.5710    7.6120   16.1340 O.co2 232  ASP232     -0.2456
     79  N          6.5300    8.2670   18.5540 N.3   236  CYS236     -0.1221
     80  CA         5.1920    7.9680   19.0670 C.3   236  CYS236      0.1808
     81  C          5.0320    8.4320   20.5290 C.2   236  CYS236      0.2602
     82  O          5.7200    7.9490   21.4300 O.2   236  CYS236     -0.2717
     83  CB         4.8630    6.4810   18.9200 C.3   236  CYS236      0.0970
     84  SG         3.1700    6.0840   19.4420 S.3   236  CYS236     -0.0800
     85  N          4.1230    9.3700   20.7810 N.am  237  GLY237     -0.1942
     86  CA         3.9820    9.9220   22.1140 C.3   237  GLY237      0.2014
     87  C          3.4910    8.9180   23.1280 C.2   237  GLY237      0.2639
     88  O          4.0990    8.7450   24.1900 O.2   237  GLY237     -0.2714
     89  N          2.3760    8.2750   22.8250 N.am  238  THR238     -0.1950
     90  CA         1.8680    7.2450   23.7260 C.3   238  THR238      0.1897
     91  C          2.8330    6.0670   23.8140 C.2   238  THR238      0.2313
     92  O          2.9950    5.4760   24.8820 O.2   238  THR238     -0.2863
     93  CB         0.4540    6.7550   23.3330 C.3   238  THR238      0.1794
     94  OG1        0.4650    6.2610   21.9890 O.3   238  THR238     -0.2208
     95  CG2       -0.5560    7.8800   23.4430 C.3   238  THR238      0.0378
@<TRIPOS>BOND
     1    10    11    1
     2    13    12    2
     3    12    11    1
     4    11    14    1
     5     3     2    1
     6     3     4    2
     7     1     2    1
     8     2     5    1
     9     8     7   ar
    10    14    16    1
    11    14    15    1
    12     9     7   ar
    13     7     6    1
    14    73    74    2
    15    73    72    1
    16     5     6    1
    17    71    72    1
    18    44    43   ar
    19    44    42   ar
    20    72    75    1
    21    43    41   ar
    22    42    40   ar
    23    77    76   ar
    24    75    76    1
    25    41    40   ar
    26    40    39    1
    27    76    78   ar
    28    30    29    1
    29    39    36    1
    30    38    37    2
    31    37    36    1
    32    36    35    1
    33    29    26    1
    34    35    33   am
    35    70    68   ar
    36    70    69   ar
    37    68    66   ar
    38    79    80    1
    39    26    27    1
    40    26    25    1
    41    83    80    1
    42    83    84    1
    43    62    63    1
    44    62    61    1
    45    62    65    1
    46    20    19    2
    47    69    67   ar
    48    80    81    1
    49    28    27    2
    50    27    31   am
    51    66    67   ar
    52    66    65    1
    53    33    34    2
    54    33    32    1
    55    63    64    2
    56    25    19   am
    57    31    32    1
    58    19    18    1
    59    81    85   am
    60    81    82    2
    61    17    18    1
    62    18    21    1
    63    85    86    1
    64    59    58    2
    65    60    58   am
    66    58    57    1
    67    94    93    1
    68    86    87    1
    69    21    22    1
    70    57    54    1
    71    89    87   am
    72    89    90    1
    73    87    88    2
    74    22    23    1
    75    93    95    1
    76    93    90    1
    77    90    91    1
    78    91    92    2
    79    54    55    1
    80    54    53    1
    81    55    56    2
    82    23    24    1
    83    52    50   am
    84    51    50    2
    85    50    49    1
    86    49    46    1
    87    46    45    1
    88    46    47    1
    89    47    48    2
