@<TRIPOS>MOLECULE
tmp/4jblB00.pdb
 96 90 0 0 0
SMALL
GASTEIGER

@<TRIPOS>ATOM
      1  N        -13.7140   18.7060    2.1510 N.3    83  THR83      -0.1203
      2  CA       -13.6390   20.1460    1.9010 C.3    83  THR83       0.1994
      3  C        -13.7760   20.5860    0.4130 C.2    83  THR83       0.2618
      4  O        -13.5500   19.7700   -0.5160 O.2    83  THR83      -0.2717
      5  CB       -12.3830   20.6960    2.6410 C.3    83  THR83       0.1784
      6  OG1      -11.8620   21.8240    1.9700 O.3    83  THR83      -0.2211
      7  CG2      -11.2970   19.6760    2.7460 C.3    83  THR83       0.0376
      8  N        -13.9950   21.8560    0.1420 N.am   84  SER84      -0.1951
      9  CA       -13.7150   22.3130   -1.2070 C.3    84  SER84       0.1924
     10  C        -12.2690   22.8230   -1.4030 C.2    84  SER84       0.2314
     11  O        -11.9000   23.2810   -2.4660 O.2    84  SER84      -0.2863
     12  CB       -14.7070   23.3360   -1.6920 C.3    84  SER84       0.2116
     13  OG       -14.4730   24.5750   -1.1050 O.3    84  SER84      -0.2180
     14  N        -10.0140   25.0220    0.8780 N.3    86  ASN86      -0.1225
     15  CA        -9.4420   25.8930    1.8660 C.3    86  ASN86       0.1785
     16  C         -9.5210   25.3120    3.2630 C.2    86  ASN86       0.2597
     17  O         -8.6070   25.3640    3.9710 O.2    86  ASN86      -0.2718
     18  CB       -10.0420   27.2620    1.7860 C.3    86  ASN86       0.1169
     19  CG        -9.5610   28.0530    0.5830 C.2    86  ASN86       0.2627
     20  OD1      -10.2690   28.8630    0.0850 O.2    86  ASN86      -0.2716
     21  ND2       -8.4070   27.7680    0.1120 N.am   86  ASN86      -0.0877
     22  N        -10.6320   24.7340    3.6230 N.am   87  THR87      -0.1953
     23  CA       -10.7080   24.0640    4.9540 C.3    87  THR87       0.1897
     24  C         -9.6330   22.9800    5.1570 C.2    87  THR87       0.2313
     25  O         -9.0320   22.9000    6.2550 O.2    87  THR87      -0.2863
     26  CB       -12.1240   23.5170    5.3090 C.3    87  THR87       0.1794
     27  OG1      -13.0900   24.5680    5.2850 O.3    87  THR87      -0.2208
     28  CG2      -12.1980   22.9080    6.7520 C.3    87  THR87       0.0378
     29  N        -12.2740   20.9360   -8.0190 N.3   110  MET110     -0.1245
     30  CA       -11.6720   22.0940   -7.3430 C.3   110  MET110      0.1570
     31  C        -10.2540   22.3620   -7.8400 C.2   110  MET110      0.2261
     32  O         -9.5700   21.4230   -8.2070 O.2   110  MET110     -0.2867
     33  CB       -11.6120   21.8930   -5.8250 C.3   110  MET110      0.0387
     34  CG       -12.9190   21.7590   -5.0740 C.3   110  MET110      0.0595
     35  SD       -14.2720   22.7020   -5.7250 S.3   110  MET110     -0.1393
     36  CE       -14.5380   23.9430   -4.5250 C.3   110  MET110      0.0692
     37  N        -19.8430   18.5880   -3.0580 N.3   134  MET134     -0.1245
     38  CA       -19.5440   18.5490   -1.6480 C.3   134  MET134      0.1570
     39  C        -20.2170   17.3350   -0.9650 C.2   134  MET134      0.2261
     40  O        -19.5970   16.6760   -0.1600 O.2   134  MET134     -0.2867
     41  CB       -19.8920   19.9030   -1.0160 C.3   134  MET134      0.0387
     42  CG       -18.8800   21.0380   -1.2830 C.3   134  MET134      0.0595
     43  SD       -17.1160   20.6450   -1.1470 S.3   134  MET134     -0.1393
     44  CE       -16.9590   20.0630    0.5160 C.3   134  MET134      0.0692
     45  N        -17.2090   20.5470    9.1130 N.3   157  GLN157     -0.1231
     46  CA       -17.2240   22.0490    9.0310 C.3   157  GLN157      0.1698
     47  C        -18.6260   22.5870    8.7520 C.2   157  GLN157      0.2592
     48  O        -18.9190   23.7490    9.0540 O.2   157  GLN157     -0.2718
     49  CB       -16.2870   22.5000    7.9280 C.3   157  GLN157      0.0381
     50  CG       -16.6830   21.9840    6.5290 C.3   157  GLN157      0.0905
     51  CD       -15.8570   22.6410    5.4330 C.2   157  GLN157      0.2608
     52  OE1      -15.4740   23.8280    5.5450 O.2   157  GLN157     -0.2717
     53  NE2      -15.5570   21.9030    4.4250 N.am  157  GLN157     -0.0878
     54  N        -19.5070   21.7740    8.1460 N.am  158  PHE158     -0.1976
     55  CA       -20.8780   22.2450    7.9010 C.3   158  PHE158      0.1639
     56  C        -21.8020   22.1260    9.0870 C.2   158  PHE158      0.2290
     57  O        -22.9240   22.6380    9.0170 O.2   158  PHE158     -0.2864
     58  CB       -21.4850   21.4570    6.7350 C.3   158  PHE158      0.0560
     59  CG       -20.7530   21.6860    5.4340 C.ar  158  PHE158     -0.0200
     60  CD1      -21.0590   22.7870    4.6590 C.ar  158  PHE158     -0.0042
     61  CD2      -19.7780   20.8100    5.0160 C.ar  158  PHE158     -0.0042
     62  CE1      -20.3910   23.0310    3.4550 C.ar  158  PHE158     -0.0003
     63  CE2      -19.0970   21.0360    3.8370 C.ar  158  PHE158     -0.0003
     64  CZ       -19.4260   22.1310    3.0560 C.ar  158  PHE158     -0.0000
     65  N        -20.6020   29.3920    1.8510 N.3   190  GLY190     -0.1210
     66  CA       -20.1610   28.0340    1.6100 C.3   190  GLY190      0.1956
     67  C        -20.6300   27.1520    2.7310 C.2   190  GLY190      0.2612
     68  O        -21.7590   26.5350    2.6580 O.2   190  GLY190     -0.2717
     69  N        -19.8900   27.1940    3.8500 N.am  191  THR191     -0.1952
     70  CA       -20.3930   26.5540    5.0580 C.3   191  THR191      0.1897
     71  C        -21.4650   27.3550    5.7780 C.2   191  THR191      0.2313
     72  O        -22.1900   26.7880    6.5850 O.2   191  THR191     -0.2863
     73  CB       -19.2750   26.2160    6.0780 C.3   191  THR191      0.1794
     74  OG1      -18.7270   27.4370    6.6410 O.3   191  THR191     -0.2208
     75  CG2      -18.1490   25.3600    5.4330 C.3   191  THR191      0.0378
     76  N        -15.6830   27.5290   -3.9350 N.3   234  GLY234     -0.1210
     77  CA       -15.6870   27.8460   -2.5480 C.3   234  GLY234      0.1956
     78  C        -17.0320   28.0870   -1.9240 C.2   234  GLY234      0.2612
     79  O        -17.0930   28.1670   -0.7370 O.2   234  GLY234     -0.2717
     80  N        -18.0650   28.2480   -2.7550 N.am  235  ILE235     -0.1965
     81  CA       -19.4530   28.4110   -2.3490 C.3   235  ILE235      0.1727
     82  C        -20.4590   27.4410   -3.0280 C.2   235  ILE235      0.2617
     83  O        -20.0690   26.5400   -3.6860 O.2   235  ILE235     -0.2715
     84  CB       -19.9270   29.8940   -2.4140 C.3   235  ILE235      0.0290
     85  CG1      -20.1000   30.3580   -3.8410 C.3   235  ILE235      0.0022
     86  CG2      -18.9950   30.7990   -1.6300 C.3   235  ILE235      0.0023
     87  CD1      -20.7680   31.6810   -3.9660 C.3   235  ILE235      0.0001
     88  N        -21.7500   27.6660   -2.8720 N.am  236  GLY236     -0.1940
     89  CA       -22.6850   26.6720   -3.4940 C.3   236  GLY236      0.2014
     90  C        -22.4150   25.2270   -3.1140 C.2   236  GLY236      0.2638
     91  O        -22.1110   24.3870   -3.9860 O.2   236  GLY236     -0.2714
     92  N        -22.5760   24.9160   -1.8190 N.am  237  ALA237     -0.1977
     93  CA       -22.3670   23.5520   -1.3030 C.3   237  ALA237      0.1597
     94  C        -23.3830   22.5520   -1.8820 C.2   237  ALA237      0.2287
     95  O        -23.0820   21.3870   -1.9200 O.2   237  ALA237     -0.2864
     96  CB       -22.5390   23.5570    0.2140 C.3   237  ALA237      0.0319
@<TRIPOS>BOND
     1    32    31    2
     2    29    30    1
     3    31    30    1
     4    30    33    1
     5    33    34    1
     6    35    34    1
     7    35    36    1
     8    91    90    2
     9    87    85    1
    10    76    77    1
    11    85    84    1
    12    83    82    2
    13    89    90    1
    14    89    88    1
    15    90    92   am
    16    37    38    1
    17    82    88   am
    18    82    81    1
    19    80    81    1
    20    80    78   am
    21    77    78    1
    22    11    10    2
    23    84    81    1
    24    84    86    1
    25    78    79    2
    26    95    94    2
    27    94    93    1
    28    92    93    1
    29    12     9    1
    30    12    13    1
    31    38    41    1
    32    38    39    1
    33    10     9    1
    34    93    96    1
    35    42    43    1
    36    42    41    1
    37     9     8    1
    38    43    44    1
    39    39    40    2
    40     4     3    2
    41    20    19    2
    42    21    19   am
    43     8     3   am
    44     3     2    1
    45    19    18    1
    46    14    15    1
    47    66    65    1
    48    66    67    1
    49    18    15    1
    50    15    16    1
    51     2     1    1
    52     2     5    1
    53     6     5    1
    54     5     7    1
    55    68    67    2
    56    67    69   am
    57    64    62   ar
    58    64    63   ar
    59    16    22   am
    60    16    17    2
    61    62    60   ar
    62    22    23    1
    63    63    61   ar
    64    69    70    1
    65    53    51   am
    66    60    59   ar
    67    23    24    1
    68    23    26    1
    69    61    59   ar
    70    70    71    1
    71    70    73    1
    72    24    25    2
    73    27    26    1
    74    26    28    1
    75    75    73    1
    76    51    52    2
    77    51    50    1
    78    59    58    1
    79    71    72    2
    80    73    74    1
    81    50    49    1
    82    58    55    1
    83    55    54    1
    84    55    56    1
    85    49    46    1
    86    54    47   am
    87    47    46    1
    88    47    48    2
    89    57    56    2
    90    46    45    1
