@<TRIPOS>MOLECULE
tmp/4jbnA00.pdb
 156 149 0 0 0
SMALL
GASTEIGER

@<TRIPOS>ATOM
      1  N        -12.6670   17.1010    2.3940 N.3    83  THR83      -0.1203
      2  CA       -12.7080   18.4340    1.8730 C.3    83  THR83       0.1994
      3  C        -11.6610   18.5050    0.8070 C.2    83  THR83       0.2619
      4  O        -10.6110   17.9250    0.9400 O.2    83  THR83      -0.2717
      5  CB       -12.3580   19.4880    2.9550 C.3    83  THR83       0.1784
      6  OG1      -12.0760   20.7130    2.3430 O.3    83  THR83      -0.2211
      7  CG2      -11.1670   19.1170    3.6760 C.3    83  THR83       0.0376
      8  N        -11.9610   19.2340   -0.2520 N.am   84  SER84      -0.1937
      9  CA       -10.9550   19.4300   -1.3220 C.3    84  SER84       0.2055
     10  C        -10.5210   20.8840   -1.3790 C.2    84  SER84       0.2644
     11  O         -9.6720   21.2450   -2.2390 O.2    84  SER84      -0.2714
     12  CB       -11.4360   18.9500   -2.6950 C.3    84  SER84       0.2130
     13  OG       -12.5980   19.6190   -3.1080 O.3    84  SER84      -0.2179
     14  N        -11.0670   21.6730   -0.4370 N.am   85  GLY85      -0.1939
     15  CA       -10.7770   23.1180   -0.3040 C.3    85  GLY85       0.2014
     16  C         -9.8510   23.6680    0.7830 C.2    85  GLY85       0.2639
     17  O         -8.9520   23.0070    1.3730 O.2    85  GLY85      -0.2714
     18  N        -10.0320   24.9470    1.0200 N.am   86  ASN86      -0.1958
     19  CA        -9.1840   25.6690    1.9430 C.3    86  ASN86       0.1819
     20  C         -9.3260   25.1000    3.3250 C.2    86  ASN86       0.2621
     21  O         -8.4420   25.2500    4.1530 O.2    86  ASN86      -0.2715
     22  CB        -9.6330   27.1550    1.9150 C.3    86  ASN86       0.1195
     23  CG        -9.3240   27.8490    0.5560 C.2    86  ASN86       0.2630
     24  OD1      -10.1450   28.6940    0.0450 O.2    86  ASN86      -0.2716
     25  ND2       -8.2260   27.4540   -0.0690 N.am   86  ASN86      -0.0877
     26  N        -10.4880   24.5090    3.6580 N.am   87  THR87      -0.1951
     27  CA       -10.5710   23.9370    5.0140 C.3    87  THR87       0.1897
     28  C         -9.4970   22.8810    5.2380 C.2    87  THR87       0.2313
     29  O         -8.9320   22.7920    6.3470 O.2    87  THR87      -0.2863
     30  CB       -12.0370   23.3850    5.3070 C.3    87  THR87       0.1794
     31  OG1      -12.9420   24.4900    5.3250 O.3    87  THR87      -0.2208
     32  CG2      -12.1750   22.6440    6.6540 C.3    87  THR87       0.0378
     33  N         -9.4630   15.7260   -7.5930 N.3   110  MET110     -0.1230
     34  CA        -9.4980   17.1760   -7.3150 C.3   110  MET110      0.1702
     35  C         -8.1550   17.8980   -7.1530 C.2   110  MET110      0.2593
     36  O         -7.0740   17.3410   -7.4660 O.2   110  MET110     -0.2718
     37  CB       -10.5150   17.5590   -6.1960 C.3   110  MET110      0.0401
     38  CG       -11.8520   18.0050   -6.7630 C.3   110  MET110      0.0596
     39  SD       -13.2710   17.7250   -5.6860 S.3   110  MET110     -0.1393
     40  CE       -14.6000   17.3680   -6.8490 C.3   110  MET110      0.0692
     41  N         -8.2900   19.1720   -6.7600 N.am  111  SER111     -0.1952
     42  CA        -7.2230   20.1210   -6.3860 C.3   111  SER111      0.1924
     43  C         -5.8560   19.5080   -6.0720 C.2   111  SER111      0.2314
     44  O         -5.4710   19.3790   -4.8970 O.2   111  SER111     -0.2863
     45  CB        -7.6940   20.9660   -5.1960 C.3   111  SER111      0.2116
     46  OG        -8.8330   21.7330   -5.5320 O.3   111  SER111     -0.2180
     47  N         -3.6480   21.6190   -4.5120 N.3   114  ARG114     -0.1245
     48  CA        -3.9850   21.6530   -3.1020 C.3   114  ARG114      0.1563
     49  C         -3.5470   20.3500   -2.4350 C.2   114  ARG114      0.2260
     50  O         -3.1940   20.3640   -1.2610 O.2   114  ARG114     -0.2867
     51  CB        -5.4620   21.9560   -2.8420 C.3   114  ARG114      0.0307
     52  CG        -5.8630   23.4120   -3.0160 C.3   114  ARG114      0.0489
     53  CD        -7.1370   23.6640   -2.1950 C.3   114  ARG114      0.2205
     54  NE        -7.7090   25.0100   -2.3650 N.pl3 114  ARG114     -0.0865
     55  CZ        -8.5730   25.3450   -3.3220 C.cat 114  ARG114      0.5346
     56  NH1       -8.9570   24.4220   -4.2060 N.pl3 114  ARG114      0.1354
     57  NH2       -9.0490   26.6000   -3.4000 N.pl3 114  ARG114      0.1354
     58  N        -17.2170   14.1890   -3.9810 N.3   134  MET134     -0.1245
     59  CA       -17.1360   14.3470   -2.5080 C.3   134  MET134      0.1570
     60  C        -17.9850   13.3330   -1.7110 C.2   134  MET134      0.2261
     61  O        -17.5330   12.8640   -0.6720 O.2   134  MET134     -0.2867
     62  CB       -17.4080   15.8000   -2.0730 C.3   134  MET134      0.0387
     63  CG       -16.2120   16.7520   -2.2780 C.3   134  MET134      0.0595
     64  SD       -14.8210   16.5440   -1.1020 S.3   134  MET134     -0.1393
     65  CE       -15.8010   15.9450    0.2600 C.3   134  MET134      0.0692
     66  N        -17.0370   20.4520    9.1020 N.3   157  GLN157     -0.1231
     67  CA       -17.0690   21.9080    8.9640 C.3   157  GLN157      0.1698
     68  C        -18.4730   22.4400    8.7600 C.2   157  GLN157      0.2592
     69  O        -18.7230   23.5850    9.0900 O.2   157  GLN157     -0.2718
     70  CB       -16.1860   22.3690    7.7760 C.3   157  GLN157      0.0381
     71  CG       -16.6850   21.8260    6.3990 C.3   157  GLN157      0.0905
     72  CD       -15.8070   22.2940    5.2490 C.2   157  GLN157      0.2608
     73  OE1      -15.3370   23.4000    5.2730 O.2   157  GLN157     -0.2717
     74  NE2      -15.5190   21.4190    4.2930 N.am  157  GLN157     -0.0878
     75  N        -19.3900   21.6560    8.1530 N.am  158  PHE158     -0.1976
     76  CA       -20.7510   22.1630    7.9300 C.3   158  PHE158      0.1639
     77  C        -21.6890   21.9960    9.1280 C.2   158  PHE158      0.2290
     78  O        -22.8000   22.5510    9.1090 O.2   158  PHE158     -0.2864
     79  CB       -21.3950   21.4460    6.7100 C.3   158  PHE158      0.0560
     80  CG       -20.6930   21.7410    5.3950 C.ar  158  PHE158     -0.0200
     81  CD1      -21.0530   22.8790    4.6610 C.ar  158  PHE158     -0.0042
     82  CD2      -19.7440   20.8610    4.8840 C.ar  158  PHE158     -0.0042
     83  CE1      -20.4480   23.1920    3.4510 C.ar  158  PHE158     -0.0003
     84  CE2      -19.1360   21.1540    3.6950 C.ar  158  PHE158     -0.0003
     85  CZ       -19.5000   22.2940    2.9680 C.ar  158  PHE158     -0.0000
     86  N        -20.4810   29.4040    1.9430 N.3   190  GLY190     -0.1210
     87  CA       -20.0160   28.0480    1.6910 C.3   190  GLY190      0.1956
     88  C        -20.4870   27.1860    2.8080 C.2   190  GLY190      0.2612
     89  O        -21.5830   26.5880    2.7410 O.2   190  GLY190     -0.2717
     90  N        -19.7060   27.1390    3.8860 N.am  191  THR191     -0.1952
     91  CA       -20.2580   26.5300    5.1110 C.3   191  THR191      0.1897
     92  C        -21.3190   27.3530    5.8250 C.2   191  THR191      0.2313
     93  O        -22.0770   26.7750    6.6120 O.2   191  THR191     -0.2863
     94  CB       -19.1780   26.1860    6.1540 C.3   191  THR191      0.1794
     95  OG1      -18.6700   27.4230    6.6980 O.3   191  THR191     -0.2208
     96  CG2      -18.0250   25.3610    5.4860 C.3   191  THR191      0.0378
     97  N        -29.9490   22.0740   -5.8610 N.3   227  LYS227     -0.1245
     98  CA       -28.5290   22.0540   -6.1420 C.3   227  LYS227      0.1561
     99  C        -28.3480   21.9280   -7.6480 C.2   227  LYS227      0.2260
    100  O        -29.0290   21.0980   -8.2910 O.2   227  LYS227     -0.2867
    101  CB       -28.0090   20.8120   -5.4800 C.3   227  LYS227      0.0271
    102  CG       -26.5850   20.4590   -5.7890 C.3   227  LYS227      0.0035
    103  CD       -26.2500   19.1520   -5.0480 C.3   227  LYS227      0.0206
    104  CE       -24.7700   19.0130   -4.8500 C.3   227  LYS227      0.1093
    105  NZ       -24.0320   18.9400   -6.1170 N.3   227  LYS227     -0.1314
    106  N        -22.3970   24.7280  -10.8960 N.3   230  HIS230     -0.1241
    107  CA       -22.0120   26.1230  -10.9690 C.3   230  HIS230      0.1621
    108  C        -20.4870   26.2080  -10.8990 C.2   230  HIS230      0.2264
    109  O        -19.8110   25.2100  -10.6710 O.2   230  HIS230     -0.2867
    110  CB       -22.6600   26.8980   -9.7950 C.3   230  HIS230      0.0745
    111  CG       -22.0650   26.5790   -8.4490 C.ar  230  HIS230      0.0817
    112  ND1      -20.9600   27.2400   -7.9340 N.ar  230  HIS230     -0.2268
    113  CD2      -22.4390   25.6810   -7.5050 C.ar  230  HIS230      0.1154
    114  CE1      -20.6660   26.7490   -6.7400 C.ar  230  HIS230      0.1986
    115  NE2      -21.5580   25.8110   -6.4430 N.ar  230  HIS230     -0.2212
    116  N        -16.1110   28.6380   -7.0900 N.3   233  GLN233     -0.1231
    117  CA       -15.3720   27.8210   -6.1410 C.3   233  GLN233      0.1698
    118  C        -15.4400   28.3820   -4.7070 C.2   233  GLN233      0.2593
    119  O        -15.3620   29.6120   -4.4940 O.2   233  GLN233     -0.2718
    120  CB       -13.9200   27.7140   -6.5780 C.3   233  GLN233      0.0381
    121  CG       -13.7900   26.6910   -7.7030 C.3   233  GLN233      0.0905
    122  CD       -12.3250   26.2660   -7.9800 C.2   233  GLN233      0.2608
    123  OE1      -11.4280   26.4050   -7.1260 O.2   233  GLN233     -0.2717
    124  NE2      -12.0920   25.7760   -9.1860 N.am  233  GLN233     -0.0878
    125  N        -15.6150   27.4810   -3.7500 N.am  234  GLY234     -0.1942
    126  CA       -15.7230   27.8270   -2.3430 C.3   234  GLY234      0.2014
    127  C        -17.1080   28.0720   -1.8040 C.2   234  GLY234      0.2639
    128  O        -17.2550   28.2140   -0.5580 O.2   234  GLY234     -0.2714
    129  N        -18.1160   28.2550   -2.6910 N.am  235  ILE235     -0.1963
    130  CA       -19.4900   28.4720   -2.2190 C.3   235  ILE235      0.1727
    131  C        -20.4850   27.5390   -2.9350 C.2   235  ILE235      0.2617
    132  O        -20.0560   26.6890   -3.7230 O.2   235  ILE235     -0.2715
    133  CB       -19.9720   29.9320   -2.3390 C.3   235  ILE235      0.0290
    134  CG1      -20.0840   30.4340   -3.8090 C.3   235  ILE235      0.0022
    135  CG2      -19.0090   30.9200   -1.5400 C.3   235  ILE235      0.0023
    136  CD1      -20.8330   31.7800   -3.9150 C.3   235  ILE235      0.0001
    137  N        -21.7720   27.7430   -2.6900 N.am  236  GLY236     -0.1940
    138  CA       -22.7650   26.8210   -3.3460 C.3   236  GLY236      0.2014
    139  C        -22.5570   25.3480   -3.0470 C.2   236  GLY236      0.2638
    140  O        -22.2890   24.5010   -3.9710 O.2   236  GLY236     -0.2714
    141  N        -22.6260   24.9870   -1.7510 N.am  237  ALA237     -0.1977
    142  CA       -22.3620   23.5750   -1.3520 C.3   237  ALA237      0.1597
    143  C        -23.4570   22.5880   -1.8480 C.2   237  ALA237      0.2287
    144  O        -23.2240   21.3740   -1.8270 O.2   237  ALA237     -0.2864
    145  CB       -22.3120   23.4690    0.1480 C.3   237  ALA237      0.0319
    146  N        -26.5210   22.2410   -0.4460 N.3   239  PHE239     -0.1241
    147  CA       -27.4530   21.8880    0.6820 C.3   239  PHE239      0.1605
    148  C        -27.3990   23.0320    1.6670 C.2   239  PHE239      0.2264
    149  O        -26.4970   23.8640    1.5400 O.2   239  PHE239     -0.2867
    150  CB       -27.0220   20.5670    1.3570 C.3   239  PHE239      0.0534
    151  CG       -25.6410   20.5580    1.8840 C.ar  239  PHE239     -0.0203
    152  CD1      -25.3840   20.8890    3.2150 C.ar  239  PHE239     -0.0042
    153  CD2      -24.5790   20.1180    1.0780 C.ar  239  PHE239     -0.0042
    154  CE1      -24.0790   20.8860    3.6790 C.ar  239  PHE239     -0.0003
    155  CE2      -23.2640   20.1070    1.5540 C.ar  239  PHE239     -0.0003
    156  CZ       -23.0290   20.4790    2.8630 C.ar  239  PHE239     -0.0000
@<TRIPOS>BOND
     1   107   108    1
     2   107   106    1
     3   107   110    1
     4   108   109    2
     5   110   111    1
     6   124   122   am
     7   111   112   ar
     8   111   113   ar
     9   100    99    2
    10   122   121    1
    11   122   123    2
    12   112   114   ar
    13   121   120    1
    14    99    98    1
    15    33    34    1
    16   113   115   ar
    17    36    35    2
    18    34    35    1
    19    34    37    1
    20    35    41   am
    21   116   117    1
    22    40    39    1
    23    38    37    1
    24    38    39    1
    25    41    42    1
    26   114   115   ar
    27   120   117    1
    28    42    43    1
    29    42    45    1
    30    98    97    1
    31    98   101    1
    32   117   118    1
    33   105   104    1
    34    43    44    2
    35   102   101    1
    36   102   103    1
    37    46    45    1
    38   103   104    1
    39   118   119    2
    40   118   125   am
    41    47    48    1
    42    56    55    1
    43    58    59    1
    44   140   139    2
    45   136   134    1
    46   134   133    1
    47   125   126    1
    48   132   131    2
    49    57    55    1
    50   138   139    1
    51   138   137    1
    52    55    54    2
    53    13    12    1
    54    48    51    1
    55    48    49    1
    56   139   141   am
    57    52    51    1
    58    52    53    1
    59   131   137   am
    60   131   130    1
    61    12     9    1
    62   129   130    1
    63   129   127   am
    64    59    62    1
    65    59    60    1
    66    49    50    2
    67    54    53    1
    68   126   127    1
    69   133   130    1
    70   133   135    1
    71    63    62    1
    72    63    64    1
    73    11    10    2
    74   143   144    2
    75   143   142    1
    76   127   128    2
    77   141   142    1
    78    60    61    2
    79    10     9    1
    80    10    14   am
    81   142   145    1
    82     9     8    1
    83    64    65    1
    84   146   147    1
    85    14    15    1
    86    15    16    1
    87     8     3   am
    88    25    23   am
    89    24    23    2
    90    23    22    1
    91   147   150    1
    92   147   148    1
    93    16    18   am
    94    16    17    2
    95     3     4    2
    96     3     2    1
    97    18    19    1
    98   153   155   ar
    99   153   151   ar
   100   150   151    1
   101   149   148    2
   102   155   156   ar
   103    87    86    1
   104    87    88    1
   105     2     1    1
   106     2     5    1
   107   151   152   ar
   108    22    19    1
   109    19    20    1
   110     6     5    1
   111    89    88    2
   112    88    90   am
   113   156   154   ar
   114     5     7    1
   115    85    83   ar
   116    85    84   ar
   117   152   154   ar
   118    20    26   am
   119    20    21    2
   120    83    81   ar
   121    26    27    1
   122    84    82   ar
   123    90    91    1
   124    74    72   am
   125    81    80   ar
   126    82    80   ar
   127    27    28    1
   128    27    30    1
   129    91    92    1
   130    91    94    1
   131    28    29    2
   132    72    73    2
   133    72    71    1
   134    30    31    1
   135    30    32    1
   136    80    79    1
   137    96    94    1
   138    92    93    2
   139    94    95    1
   140    71    70    1
   141    79    76    1
   142    70    67    1
   143    76    75    1
   144    76    77    1
   145    75    68   am
   146    68    67    1
   147    68    69    2
   148    67    66    1
   149    78    77    2
