@<TRIPOS>MOLECULE
tmp/4jbqA00.pdb
 189 179 0 0 0
SMALL
GASTEIGER

@<TRIPOS>ATOM
      1  N         -6.4700   27.2520    4.6150 N.3    12  ARG12      -0.1245
      2  CA        -5.8940   27.0710    3.3030 C.3    12  ARG12       0.1563
      3  C         -4.3830   26.8370    3.3890 C.2    12  ARG12       0.2260
      4  O         -3.7440   27.2800    4.3540 O.2    12  ARG12      -0.2867
      5  CB        -6.2480   28.2660    2.4180 C.3    12  ARG12       0.0307
      6  CG        -5.8390   29.6150    2.9750 C.3    12  ARG12       0.0489
      7  CD        -4.6690   30.1600    2.1870 C.3    12  ARG12       0.2205
      8  NE        -4.2520   31.4660    2.6740 N.pl3  12  ARG12      -0.0865
      9  CZ        -3.1880   32.1220    2.2240 C.cat  12  ARG12       0.5346
     10  NH1       -2.4280   31.5960    1.2680 N.pl3  12  ARG12       0.1354
     11  NH2       -2.8860   33.3040    2.7300 N.pl3  12  ARG12       0.1354
     12  N         -0.5570   27.3440    3.0710 N.3    14  LEU14      -0.1231
     13  CA         0.2830   28.5360    3.0850 C.3    14  LEU14       0.1693
     14  C          1.4820   28.3300    2.1760 C.2    14  LEU14       0.2592
     15  O          1.7950   29.1770    1.3390 O.2    14  LEU14      -0.2718
     16  CB         0.7380   28.8770    4.5110 C.3    14  LEU14       0.0284
     17  CG        -0.3070   29.4680    5.4640 C.3    14  LEU14       0.0019
     18  CD1        0.2510   29.5790    6.8750 C.3    14  LEU14       0.0001
     19  CD2       -0.8040   30.8250    4.9770 C.3    14  LEU14       0.0001
     20  N          2.1400   27.1910    2.3440 N.am   15  GLY15      -0.1957
     21  CA         3.2960   26.8450    1.5410 C.3    15  GLY15       0.1869
     22  C          3.3510   25.3570    1.2740 C.2    15  GLY15       0.2309
     23  O          2.9180   24.5470    2.1020 O.2    15  GLY15      -0.2863
     24  N          2.3610   23.3080    4.8540 N.3    22  VAL22      -0.1245
     25  CA         2.0100   24.2150    5.9440 C.3    22  VAL22       0.1561
     26  C          0.6130   24.7920    5.7130 C.2    22  VAL22       0.2260
     27  O          0.2990   25.2690    4.6230 O.2    22  VAL22      -0.2867
     28  CB         3.0310   25.3570    6.1180 C.3    22  VAL22       0.0252
     29  CG1        2.6870   26.1830    7.3540 C.3    22  VAL22       0.0019
     30  CG2        4.4430   24.7990    6.2310 C.3    22  VAL22       0.0019
     31  N          0.0150   28.6420   12.4020 N.3    35  ALA35      -0.1245
     32  CA         0.3800   27.8130   11.2710 C.3    35  ALA35       0.1562
     33  C          0.7050   26.3920   11.7230 C.2    35  ALA35       0.2260
     34  O          1.3430   26.1650   12.7560 O.2    35  ALA35      -0.2867
     35  CB         1.5300   28.4320   10.5060 C.3    35  ALA35       0.0290
     36  N          2.4030   22.8990   10.4200 N.3    37  LYS37      -0.1245
     37  CA         3.2070   22.2110    9.4280 C.3    37  LYS37       0.1561
     38  C          3.0310   20.7180    9.6600 C.2    37  LYS37       0.2260
     39  O          3.1810   20.2430   10.7820 O.2    37  LYS37      -0.2867
     40  CB         4.6750   22.6270    9.5230 C.3    37  LYS37       0.0271
     41  CG         5.5930   21.9250    8.5390 C.3    37  LYS37       0.0035
     42  CD         7.0480   22.2290    8.8510 C.3    37  LYS37       0.0206
     43  CE         7.6610   23.1610    7.8270 C.3    37  LYS37       0.1093
     44  NZ         8.1650   22.4030    6.6500 N.3    37  LYS37      -0.1314
     45  N         10.6240   33.3740   14.4170 N.3    69  LEU69      -0.1245
     46  CA         9.3110   32.7380   14.3670 C.3    69  LEU69       0.1561
     47  C          9.1780   31.7630   15.5250 C.2    69  LEU69       0.2260
     48  O         10.0700   30.9440   15.7630 O.2    69  LEU69      -0.2867
     49  CB         9.0880   32.0040   13.0450 C.3    69  LEU69       0.0270
     50  CG         7.6220   31.6270   12.8390 C.3    69  LEU69       0.0019
     51  CD1        6.8930   32.8350   12.2890 C.3    69  LEU69       0.0001
     52  CD2        7.4840   30.4190   11.9150 C.3    69  LEU69       0.0001
     53  N          3.9540   20.3800   13.5910 N.3    83  LEU83      -0.1245
     54  CA         4.5390   21.5550   14.2450 C.3    83  LEU83       0.1561
     55  C          3.5190   22.6860   14.2980 C.2    83  LEU83       0.2260
     56  O          2.9470   23.0500   13.2660 O.2    83  LEU83      -0.2867
     57  CB         5.8010   22.0190   13.5070 C.3    83  LEU83       0.0270
     58  CG         6.8250   20.9250   13.1590 C.3    83  LEU83       0.0019
     59  CD1        8.0250   21.5420   12.4590 C.3    83  LEU83       0.0001
     60  CD2        7.2580   20.1410   14.3950 C.3    83  LEU83       0.0001
     61  N          2.9930   26.4950   14.8170 N.3    85  LEU85      -0.1231
     62  CA         3.8970   27.6240   14.6070 C.3    85  LEU85       0.1693
     63  C          3.1780   28.9560   14.6300 C.2    85  LEU85       0.2592
     64  O          1.9810   29.0240   14.3240 O.2    85  LEU85      -0.2718
     65  CB         4.6000   27.4750   13.2450 C.3    85  LEU85       0.0284
     66  CG         5.5140   26.2490   13.1310 C.3    85  LEU85       0.0019
     67  CD1        5.6720   25.7930   11.6860 C.3    85  LEU85       0.0001
     68  CD2        6.8520   26.5430   13.7870 C.3    85  LEU85       0.0001
     69  N          3.9200   30.0090   14.9730 N.am   86  GLU86      -0.1966
     70  CA         3.4410   31.3820   14.8190 C.3    86  GLU86       0.1733
     71  C          3.0800   31.6150   13.3460 C.2    86  GLU86       0.2616
     72  O          3.8270   31.2030   12.4380 O.2    86  GLU86      -0.2715
     73  CB         4.5150   32.3940   15.2760 C.3    86  GLU86       0.0429
     74  CG         4.2180   33.8580   14.9570 C.3    86  GLU86       0.1163
     75  CD         5.2990   34.8250   15.4400 C.2    86  GLU86       0.3649
     76  OE1        6.3320   34.3720   16.0090 O.co2  86  GLU86      -0.2457
     77  OE2        5.1190   36.0570   15.2390 O.co2  86  GLU86      -0.2457
     78  N          1.9360   32.2570   13.1270 N.am   87  TYR87      -0.1960
     79  CA         1.4890   32.6420   11.7930 C.3    87  TYR87       0.1771
     80  C          1.9640   34.0660   11.4990 C.2    87  TYR87       0.2619
     81  O          1.6430   34.9980   12.2340 O.2    87  TYR87      -0.2715
     82  CB        -0.0420   32.5180   11.6990 C.3    87  TYR87       0.0574
     83  CG        -0.7220   33.3330   10.6000 C.ar   87  TYR87      -0.0198
     84  CD1       -0.4220   33.1310    9.2470 C.ar   87  TYR87      -0.0009
     85  CD2       -1.7010   34.2700   10.9220 C.ar   87  TYR87      -0.0009
     86  CE1       -1.0560   33.8730    8.2470 C.ar   87  TYR87       0.0417
     87  CE2       -2.3430   35.0080    9.9380 C.ar   87  TYR87       0.0417
     88  CZ        -2.0140   34.8090    8.6020 C.ar   87  TYR87       0.1957
     89  OH        -2.6680   35.5540    7.6350 O.3    87  TYR87      -0.2866
     90  N          2.7770   34.2060   10.4540 N.am   88  ALA88      -0.1964
     91  CA         3.2640   35.5020   10.0000 C.3    88  ALA88       0.1713
     92  C          2.4720   35.8930    8.7560 C.2    88  ALA88       0.2458
     93  O          2.6280   35.2690    7.7040 O.2    88  ALA88      -0.2730
     94  CB         4.7530   35.4320    9.6870 C.3    88  ALA88       0.0333
     95  N          1.6010   36.8870    8.8870 N.am   89  PRO89      -0.2716
     96  CA         0.5820   37.1790    7.8690 C.3    89  PRO89       0.1536
     97  C          1.0870   37.7380    6.5360 C.2    89  PRO89       0.2598
     98  O          0.4640   37.4790    5.5060 O.2    89  PRO89      -0.2715
     99  CB        -0.3070   38.2180    8.5610 C.3    89  PRO89       0.0310
    100  CG         0.6010   38.8960    9.5280 C.3    89  PRO89       0.0237
    101  CD         1.5470   37.8350   10.0140 C.3    89  PRO89       0.0939
    102  N          2.1760   38.4970    6.5510 N.am   90  LEU90      -0.1964
    103  CA         2.6150   39.2160    5.3580 C.3    90  LEU90       0.1728
    104  C          3.5490   38.4050    4.4450 C.2    90  LEU90       0.2617
    105  O          4.0380   38.9280    3.4440 O.2    90  LEU90      -0.2715
    106  CB         3.2230   40.5770    5.7320 C.3    90  LEU90       0.0311
    107  CG         2.3030   41.8060    5.7120 C.3    90  LEU90       0.0022
    108  CD1        1.0720   41.6390    6.5930 C.3    90  LEU90       0.0001
    109  CD2        3.0860   43.0620    6.0930 C.3    90  LEU90       0.0001
    110  N          3.7900   37.1380    4.7830 N.am   91  GLY91      -0.1940
    111  CA         4.5460   36.2450    3.9050 C.3    91  GLY91       0.2014
    112  C          6.0530   36.4080    3.9510 C.2    91  GLY91       0.2639
    113  O          6.6010   36.9260    4.9280 O.2    91  GLY91      -0.2714
    114  N          6.7260   35.9530    2.8970 N.am   92  THR92      -0.1950
    115  CA         8.1890   35.8120    2.9200 C.3    92  THR92       0.1897
    116  C          8.8850   37.0440    2.3870 C.2    92  THR92       0.2313
    117  O          8.2980   37.8130    1.6280 O.2    92  THR92      -0.2863
    118  CB         8.6770   34.5900    2.1080 C.3    92  THR92       0.1794
    119  OG1        8.2870   34.7350    0.7340 O.3    92  THR92      -0.2208
    120  CG2        8.1120   33.2800    2.6690 C.3    92  THR92       0.0378
    121  N          9.1730   36.5970   -1.4680 N.3    95  ARG95      -0.1245
    122  CA         8.0720   37.0520   -2.3160 C.3    95  ARG95       0.1563
    123  C          8.0990   38.5780   -2.4380 C.2    95  ARG95       0.2260
    124  O          7.8320   39.1200   -3.5060 O.2    95  ARG95      -0.2867
    125  CB         6.6980   36.5260   -1.8360 C.3    95  ARG95       0.0307
    126  CG         5.5490   36.8110   -2.7970 C.3    95  ARG95       0.0489
    127  CD         4.1890   36.3300   -2.2910 C.3    95  ARG95       0.2205
    128  NE         3.0920   37.2120   -2.7340 N.pl3  95  ARG95      -0.0865
    129  CZ         2.1200   36.8850   -3.5920 C.cat  95  ARG95       0.5346
    130  NH1        2.0610   35.6690   -4.1300 N.pl3  95  ARG95       0.1354
    131  NH2        1.1870   37.7830   -3.9080 N.pl3  95  ARG95       0.1354
    132  N          8.0970   40.9580   -5.8150 N.3    99  LYS99      -0.1245
    133  CA         7.1790   42.0680   -6.0990 C.3    99  LYS99       0.1561
    134  C          7.9520   43.3600   -6.3590 C.2    99  LYS99       0.2260
    135  O          7.6510   44.0710   -7.3110 O.2    99  LYS99      -0.2867
    136  CB         6.1490   42.2900   -4.9760 C.3    99  LYS99       0.0271
    137  CG         5.2130   41.1210   -4.6890 C.3    99  LYS99       0.0035
    138  CD         4.0170   41.5480   -3.8330 C.3    99  LYS99       0.0206
    139  CE         3.3880   40.3550   -3.1140 C.3    99  LYS99       0.1093
    140  NZ         1.9300   40.4970   -2.8030 N.3    99  LYS99      -0.1314
    141  N         13.5950   33.0480    1.4580 N.3   135  GLU135     -0.1231
    142  CA        12.3950   32.1880    1.4890 C.3   135  GLU135      0.1699
    143  C         12.0520   31.8110    2.9190 C.2   135  GLU135      0.2592
    144  O         10.9140   31.4240    3.2060 O.2   135  GLU135     -0.2718
    145  CB        12.5840   30.8650    0.7340 C.3   135  GLU135      0.0402
    146  CG        13.1060   30.9670   -0.6780 C.3   135  GLU135      0.1161
    147  CD        14.6110   30.8100   -0.7230 C.2   135  GLU135      0.3649
    148  OE1       15.3220   31.7880   -0.3900 O.co2 135  GLU135     -0.2457
    149  OE2       15.0590   29.7010   -1.0800 O.co2 135  GLU135     -0.2457
    150  N         13.0540   31.8670    3.7930 N.am  136  ASN136     -0.1974
    151  CA        12.8950   31.4290    5.1730 C.3   136  ASN136      0.1688
    152  C         12.7860   32.6100    6.1180 C.2   136  ASN136      0.2292
    153  O         12.9440   32.4730    7.3290 O.2   136  ASN136     -0.2864
    154  CB        14.0370   30.4820    5.5820 C.3   136  ASN136      0.1181
    155  CG        14.0130   29.1630    4.8130 C.2   136  ASN136      0.2629
    156  OD1       12.9470   28.6620    4.4490 O.2   136  ASN136     -0.2716
    157  ND2       15.1940   28.5930    4.5640 N.am  136  ASN136     -0.0877
    158  N         10.1470   35.4990    7.2650 N.3   138  LEU138     -0.1245
    159  CA         8.7380   35.8500    7.2170 C.3   138  LEU138      0.1561
    160  C          8.4820   37.2640    7.7490 C.2   138  LEU138      0.2260
    161  O          9.3420   37.8640    8.4030 O.2   138  LEU138     -0.2867
    162  CB         7.9120   34.8110    7.9840 C.3   138  LEU138      0.0270
    163  CG         7.7090   33.4740    7.2640 C.3   138  LEU138      0.0019
    164  CD1        7.2430   32.3980    8.2330 C.3   138  LEU138      0.0001
    165  CD2        6.7150   33.5970    6.1050 C.3   138  LEU138      0.0001
    166  N         12.5240   32.0850   10.1680 N.3   148  ALA148     -0.1231
    167  CA        11.5350   31.0140   10.1870 C.3   148  ALA148      0.1694
    168  C         12.0680   29.6070    9.9000 C.2   148  ALA148      0.2592
    169  O         11.3340   28.6420   10.0110 O.2   148  ALA148     -0.2718
    170  CB        10.3940   31.3410    9.2420 C.3   148  ALA148      0.0304
    171  N         13.3190   29.4490    9.5870 N.am  149  ASP149     -0.1960
    172  CA        13.8110   28.1160    9.3550 C.3   149  ASP149      0.1840
    173  C         14.1100   27.4780   10.6850 C.2   149  ASP149      0.2622
    174  O         13.8340   28.0350   11.7220 O.2   149  ASP149     -0.2715
    175  CB        15.0630   28.2230    8.5520 C.3   149  ASP149      0.1450
    176  CG        16.0210   29.1320    9.1870 C.2   149  ASP149      0.3671
    177  OD1       16.0280   29.1920   10.4210 O.co2 149  ASP149     -0.2456
    178  OD2       16.7370   29.8190    8.4710 O.co2 149  ASP149     -0.2456
    179  N         14.7090   26.3130   10.6700 N.am  150  PHE150     -0.1974
    180  CA        15.0520   25.6620   11.9250 C.3   150  PHE150      0.1639
    181  C         16.5480   25.3380   11.9190 C.2   150  PHE150      0.2290
    182  O         17.0140   24.5010   12.6920 O.2   150  PHE150     -0.2864
    183  CB        14.1890   24.4230   12.1970 C.3   150  PHE150      0.0560
    184  CG        12.8400   24.7350   12.8070 C.ar  150  PHE150     -0.0200
    185  CD1       12.1920   25.9420   12.5530 C.ar  150  PHE150     -0.0042
    186  CD2       12.2070   23.8080   13.6220 C.ar  150  PHE150     -0.0042
    187  CE1       10.9560   26.2250   13.1120 C.ar  150  PHE150     -0.0003
    188  CE2       10.9690   24.0810   14.1820 C.ar  150  PHE150     -0.0003
    189  CZ        10.3410   25.2910   13.9240 C.ar  150  PHE150     -0.0000
@<TRIPOS>BOND
     1   135   134    2
     2   134   133    1
     3   133   132    1
     4   133   136    1
     5   136   137    1
     6   137   138    1
     7   130   129    1
     8   131   129    1
     9   138   139    1
    10   129   128    2
    11   124   123    2
    12   139   140    1
    13   126   127    1
    14   126   125    1
    15   128   127    1
    16   123   122    1
    17   122   125    1
    18   122   121    1
    19   149   147   ar
    20   147   146    1
    21   147   148   ar
    22   146   145    1
    23   145   142    1
    24   119   118    1
    25    10     9    1
    26    22    21    1
    27    22    23    2
    28    15    14    2
    29   141   142    1
    30   142   143    1
    31    21    20    1
    32   117   116    2
    33   118   120    1
    34   118   115    1
    35    14    20   am
    36    14    13    1
    37     7     8    1
    38     7     6    1
    39     9     8    2
    40     9    11    1
    41   116   115    1
    42     5     6    1
    43     5     2    1
    44   114   115    1
    45   114   112   am
    46   143   144    2
    47   143   150   am
    48    12    13    1
    49    13    16    1
    50     2     3    1
    51     2     1    1
    52     3     4    2
    53   105   104    2
    54   150   151    1
    55   111   112    1
    56   111   110    1
    57   112   113    2
    58   104   110   am
    59   104   103    1
    60   156   155    2
    61    16    17    1
    62   157   155   am
    63    27    26    2
    64   155   154    1
    65    24    25    1
    66    19    17    1
    67   151   154    1
    68   151   152    1
    69   103   106    1
    70   103   102    1
    71    17    18    1
    72    98    97    2
    73   107   106    1
    74   107   109    1
    75   107   108    1
    76    26    25    1
    77    25    28    1
    78   165   163    1
    79   152   153    2
    80    28    30    1
    81    28    29    1
    82    97   102   am
    83    97    96    1
    84    44    43    1
    85   159   158    1
    86   159   160    1
    87   159   162    1
    88   163   162    1
    89   163   164    1
    90    89    88    1
    91    93    92    2
    92   160   161    2
    93    43    42    1
    94    96    99    1
    95    96    95    1
    96    86    88   ar
    97    86    84   ar
    98   178   176   ar
    99    41    42    1
   100    41    40    1
   101   175   176    1
   102   175   172    1
   103    99   100    1
   104    88    87   ar
   105    92    95   am
   106    92    91    1
   107    95   101    1
   108   176   177   ar
   109   170   167    1
   110    84    83   ar
   111   172   171    1
   112   172   173    1
   113    37    40    1
   114    37    38    1
   115    37    36    1
   116   100   101    1
   117   171   168   am
   118    38    39    2
   119    94    91    1
   120   168   169    2
   121   168   167    1
   122    87    85   ar
   123    91    90    1
   124   166   167    1
   125    90    80   am
   126    35    32    1
   127    83    85   ar
   128    83    82    1
   129   179   173   am
   130   179   180    1
   131   173   174    2
   132    32    33    1
   133    32    31    1
   134    80    79    1
   135    80    81    2
   136    67    66    1
   137    82    79    1
   138    33    34    2
   139    79    78    1
   140    52    50    1
   141   181   180    1
   142   181   182    2
   143   180   183    1
   144   183   184    1
   145    51    50    1
   146    72    71    2
   147    59    58    1
   148   185   184   ar
   149   185   187   ar
   150   184   186   ar
   151    50    49    1
   152    49    46    1
   153   187   189   ar
   154    78    71   am
   155    66    65    1
   156    66    68    1
   157    58    57    1
   158    58    60    1
   159    65    62    1
   160    56    55    2
   161    71    70    1
   162    57    54    1
   163    53    54    1
   164   186   188   ar
   165   189   188   ar
   166    54    55    1
   167    64    63    2
   168    46    45    1
   169    46    47    1
   170    62    63    1
   171    62    61    1
   172    63    69   am
   173    70    69    1
   174    70    73    1
   175    74    73    1
   176    74    75    1
   177    77    75   ar
   178    75    76   ar
   179    47    48    2
