@<TRIPOS>MOLECULE
tmp/4jbsA00.pdb
 81 78 0 0 0
SMALL
GASTEIGER

@<TRIPOS>ATOM
      1  N          3.5310   20.0990   15.3480 N.3    30  HIS30      -0.1227
      2  CA         3.7320   20.5170   16.7260 C.3    30  HIS30       0.1737
      3  C          3.9160   19.2840   17.6040 C.2    30  HIS30       0.2438
      4  O          2.9480   18.7350   18.1280 O.2    30  HIS30      -0.2733
      5  CB         2.5370   21.3520   17.1970 C.3    30  HIS30       0.0758
      6  CG         2.4730   21.5500   18.6810 C.ar   30  HIS30       0.0818
      7  ND1        3.0990   22.5970   19.3210 N.ar   30  HIS30      -0.2268
      8  CD2        1.8430   20.8400   19.6480 C.ar   30  HIS30       0.1154
      9  CE1        2.8650   22.5200   20.6190 C.ar   30  HIS30       0.1986
     10  NE2        2.1060   21.4640   20.8440 N.ar   30  HIS30      -0.2212
     11  N          5.1690   18.8280   17.7470 N.am   31  PRO31      -0.2718
     12  CA         5.5000   17.6480   18.5540 C.3    31  PRO31       0.1535
     13  C          5.7190   17.9820   20.0320 C.2    31  PRO31       0.2598
     14  O          6.1970   19.0700   20.3580 O.2    31  PRO31      -0.2715
     15  CB         6.8260   17.1590   17.9410 C.3    31  PRO31       0.0310
     16  CG         7.0970   18.0520   16.7520 C.3    31  PRO31       0.0237
     17  CD         6.3340   19.3100   16.9920 C.3    31  PRO31       0.0939
     18  N          5.3750   17.0480   20.9130 N.am   32  ASN32      -0.1973
     19  CA         5.6990   17.1790   22.3260 C.3    32  ASN32       0.1688
     20  C          6.5070   15.9850   22.8170 C.2    32  ASN32       0.2292
     21  O          6.0540   14.8470   22.7320 O.2    32  ASN32      -0.2864
     22  CB         4.4390   17.3370   23.1620 C.3    32  ASN32       0.1181
     23  CG         4.7270   17.9110   24.5260 C.2    32  ASN32       0.2629
     24  OD1        5.5110   17.3520   25.2920 O.2    32  ASN32      -0.2716
     25  ND2        4.1020   19.0450   24.8350 N.am   32  ASN32      -0.0877
     26  N          7.7030   15.3960   25.9080 N.3    34  THR34      -0.1203
     27  CA         7.3660   14.9200   27.2410 C.3    34  THR34       0.1994
     28  C          6.0800   14.1250   27.1150 C.2    34  THR34       0.2618
     29  O          5.9170   13.0690   27.7210 O.2    34  THR34      -0.2717
     30  CB         7.1590   16.0790   28.2260 C.3    34  THR34       0.1784
     31  OG1        8.2220   17.0300   28.0830 O.3    34  THR34      -0.2211
     32  CG2        7.1380   15.5560   29.6540 C.3    34  THR34       0.0376
     33  N          5.1790   14.6440   26.2910 N.am   35  SER35      -0.1951
     34  CA         3.9060   13.9990   26.0130 C.3    35  SER35       0.1924
     35  C          4.0910   12.8220   25.0570 C.2    35  SER35       0.2314
     36  O          3.2380   11.9340   24.9710 O.2    35  SER35      -0.2863
     37  CB         2.9450   15.0230   25.4090 C.3    35  SER35       0.2116
     38  OG         1.6820   14.4490   25.1450 O.3    35  SER35      -0.2180
     39  N          6.7930   23.7480   15.8490 N.3   169  ARG169     -0.1231
     40  CA         6.7100   24.3700   17.1590 C.3   169  ARG169      0.1694
     41  C          7.5260   23.5310   18.1380 C.2   169  ARG169      0.2592
     42  O          7.4880   22.3000   18.0830 O.2   169  ARG169     -0.2718
     43  CB         5.2530   24.4550   17.6000 C.3   169  ARG169      0.0321
     44  CG         4.9740   25.5280   18.6300 C.3   169  ARG169      0.0489
     45  CD         3.4790   25.8090   18.7500 C.3   169  ARG169      0.2205
     46  NE         2.9480   26.5030   17.5790 N.pl3 169  ARG169     -0.0865
     47  CZ         1.7480   27.0730   17.5300 C.cat 169  ARG169      0.5346
     48  NH1        0.9520   27.0360   18.5890 N.pl3 169  ARG169      0.1354
     49  NH2        1.3430   27.6830   16.4250 N.pl3 169  ARG169      0.1354
     50  N          8.2650   24.1930   19.0280 N.am  170  ARG170     -0.1966
     51  CA         9.2230   23.5030   19.8910 C.3   170  ARG170      0.1729
     52  C          9.4870   24.2620   21.1940 C.2   170  ARG170      0.2616
     53  O          9.1150   25.4290   21.3310 O.2   170  ARG170     -0.2715
     54  CB        10.5450   23.3300   19.1490 C.3   170  ARG170      0.0348
     55  CG        11.3250   24.6230   19.0730 C.3   170  ARG170      0.0492
     56  CD        12.5170   24.5710   18.1430 C.3   170  ARG170      0.2205
     57  NE        12.9480   25.9310   17.8460 N.pl3 170  ARG170     -0.0865
     58  CZ        13.5780   26.7220   18.7110 C.cat 170  ARG170      0.5346
     59  NH1       13.8720   26.2840   19.9290 N.pl3 170  ARG170      0.1354
     60  NH2       13.9180   27.9540   18.3560 N.pl3 170  ARG170      0.1354
     61  N         10.1380   23.5910   22.1440 N.am  171  GLU171     -0.1977
     62  CA        10.5550   24.2220   23.3950 C.3   171  GLU171      0.1602
     63  C         11.8880   24.9310   23.2020 C.2   171  GLU171      0.2287
     64  O         12.4820   24.8720   22.1260 O.2   171  GLU171     -0.2864
     65  CB        10.6980   23.1900   24.5170 C.3   171  GLU171      0.0415
     66  CG         9.3920   22.5950   25.0340 C.3   171  GLU171      0.1163
     67  CD         9.6170   21.6280   26.1880 C.2   171  GLU171      0.3649
     68  OE1       10.4370   21.9450   27.0760 O.co2 171  GLU171     -0.2457
     69  OE2        8.9780   20.5530   26.2070 O.co2 171  GLU171     -0.2457
     70  N          3.1600   31.4020   25.4680 N.3   190  GLY190     -0.1225
     71  CA         3.5920   30.6350   26.6250 C.3   190  GLY190      0.1811
     72  C          5.0620   30.2530   26.6520 C.2   190  GLY190      0.2280
     73  O          5.4390   29.2480   27.2620 O.2   190  GLY190     -0.2866
     74  N          6.8540   29.4170   24.0630 N.3   192  LEU192     -0.1245
     75  CA         7.1910   28.5130   22.9670 C.3   192  LEU192      0.1561
     76  C          7.7660   29.2490   21.7590 C.2   192  LEU192      0.2260
     77  O          7.6410   30.4680   21.6370 O.2   192  LEU192     -0.2867
     78  CB         5.9860   27.6550   22.5640 C.3   192  LEU192      0.0270
     79  CG         6.0580   26.1660   22.9410 C.3   192  LEU192      0.0019
     80  CD1        6.6690   25.9490   24.3220 C.3   192  LEU192      0.0001
     81  CD2        4.6920   25.4890   22.8390 C.3   192  LEU192      0.0001
@<TRIPOS>BOND
     1     1     2    1
     2    39    40    1
     3    49    47    1
     4     2     5    1
     5     2     3    1
     6    16    17    1
     7    16    15    1
     8    17    11    1
     9    40    43    1
    10    40    41    1
    11     5     6    1
    12    47    46    2
    13    47    48    1
    14    46    45    1
    15    43    44    1
    16     3    11   am
    17     3     4    2
    18    11    12    1
    19    57    56    1
    20    57    58    2
    21    15    12    1
    22    42    41    2
    23    41    50   am
    24    56    55    1
    25    60    58    1
    26    12    13    1
    27    44    45    1
    28     6     7   ar
    29     6     8   ar
    30    58    59    1
    31    50    51    1
    32    55    54    1
    33    54    51    1
    34     7     9   ar
    35     8    10   ar
    36    51    52    1
    37    13    14    2
    38    13    18   am
    39     9    10   ar
    40    18    19    1
    41    52    53    2
    42    52    61   am
    43    77    76    2
    44    76    75    1
    45    64    63    2
    46    61    62    1
    47    19    20    1
    48    19    22    1
    49    78    79    1
    50    78    75    1
    51    21    20    2
    52    81    79    1
    53    79    80    1
    54    75    74    1
    55    22    23    1
    56    63    62    1
    57    62    65    1
    58    65    66    1
    59    23    25   am
    60    23    24    2
    61    36    35    2
    62    66    67    1
    63    35    34    1
    64    38    37    1
    65    37    34    1
    66    70    71    1
    67    26    27    1
    68    34    33    1
    69    67    69   ar
    70    67    68   ar
    71    33    28   am
    72    71    72    1
    73    72    73    2
    74    28    27    1
    75    28    29    2
    76    27    30    1
    77    31    30    1
    78    30    32    1
