@<TRIPOS>MOLECULE
tmp/4jbsA04.pdb
 223 218 0 0 0
SMALL
GASTEIGER

@<TRIPOS>ATOM
      1  N         11.5340    9.1380    9.3620 N.3   142  ASP142     -0.1239
      2  CA        12.1040    8.2990    8.3060 C.3   142  ASP142      0.1674
      3  C         10.9610    7.7400    7.4580 C.2   142  ASP142      0.2266
      4  O         10.1260    6.9870    7.9580 O.2   142  ASP142     -0.2867
      5  CB        12.9510    7.1680    8.8920 C.3   142  ASP142      0.1410
      6  CG        13.6550    6.3410    7.8200 C.2   142  ASP142      0.3668
      7  OD1       14.3860    6.9200    6.9820 O.co2 142  ASP142     -0.2456
      8  OD2       13.4860    5.1010    7.8270 O.co2 142  ASP142     -0.2456
      9  N         10.9890    6.6360    3.6400 N.3   144  GLU144     -0.1231
     10  CA        11.0790    5.7230    2.5010 C.3   144  GLU144      0.1684
     11  C         10.7240    4.2890    2.8820 C.2   144  GLU144      0.2434
     12  O         11.1820    3.7890    3.9090 O.2   144  GLU144     -0.2733
     13  CB        12.4620    5.7660    1.8520 C.3   144  GLU144      0.0402
     14  CG        12.4820    5.1600    0.4580 C.3   144  GLU144      0.1161
     15  CD        13.8690    5.0750   -0.1170 C.2   144  GLU144      0.3649
     16  OE1       14.8320    5.3440    0.6280 O.co2 144  GLU144     -0.2457
     17  OE2       14.0010    4.7390   -1.3120 O.co2 144  GLU144     -0.2457
     18  N          9.9010    3.6250    2.0510 N.am  145  PRO145     -0.2729
     19  CA         9.3070    4.2270    0.8550 C.3   145  PRO145      0.1401
     20  C          7.9070    4.7840    1.1130 C.2   145  PRO145      0.2269
     21  O          7.4920    5.7380    0.4560 O.2   145  PRO145     -0.2865
     22  CB         9.2060    3.0410   -0.1180 C.3   145  PRO145      0.0296
     23  CG         9.6460    1.8140    0.6540 C.3   145  PRO145      0.0237
     24  CD         9.6440    2.1790    2.0990 C.3   145  PRO145      0.0939
     25  N         17.0400    2.6950   12.0790 N.3   276  ALA276     -0.1231
     26  CA        16.9230    1.4030   11.4070 C.3   276  ALA276      0.1679
     27  C         17.7800    1.2960   10.1400 C.2   276  ALA276      0.2434
     28  O         18.6470    0.4250   10.0530 O.2   276  ALA276     -0.2733
     29  CB        15.4640    1.0750   11.1080 C.3   276  ALA276      0.0304
     30  N         17.5470    2.1770    9.1540 N.am  277  PRO277     -0.2718
     31  CA        18.3290    2.0870    7.9160 C.3   277  PRO277      0.1535
     32  C         19.8030    2.3760    8.1900 C.2   277  PRO277      0.2599
     33  O         20.1390    2.7930    9.2970 O.2   277  PRO277     -0.2715
     34  CB        17.7420    3.2040    7.0420 C.3   277  PRO277      0.0310
     35  CG        16.5110    3.6780    7.7370 C.3   277  PRO277      0.0237
     36  CD        16.6870    3.3710    9.1820 C.3   277  PRO277      0.0939
     37  N         20.6660    2.1610    7.2010 N.am  278  GLY278     -0.1941
     38  CA        22.0610    2.5400    7.3260 C.3   278  GLY278      0.2014
     39  C         22.1660    4.0520    7.3400 C.2   278  GLY278      0.2639
     40  O         22.9260    4.6310    8.1190 O.2   278  GLY278     -0.2714
     41  N         21.3880    4.6830    6.4660 N.am  279  ALA279     -0.1963
     42  CA        21.2270    6.1350    6.4350 C.3   279  ALA279      0.1728
     43  C         20.0920    6.4950    5.4670 C.2   279  ALA279      0.2616
     44  O         19.6170    5.6350    4.7320 O.2   279  ALA279     -0.2715
     45  CB        22.5260    6.8020    6.0190 C.3   279  ALA279      0.0334
     46  N         19.6490    7.7500    5.4700 N.am  280  MET280     -0.1963
     47  CA        18.6020    8.1880    4.5420 C.3   280  MET280      0.1736
     48  C         18.9050    9.5410    3.9020 C.2   280  MET280      0.2616
     49  O         19.2910   10.4990    4.5730 O.2   280  MET280     -0.2715
     50  CB        17.2280    8.2100    5.2190 C.3   280  MET280      0.0427
     51  CG        16.0920    8.6200    4.2860 C.3   280  MET280      0.0599
     52  SD        15.8980    7.5220    2.8630 S.3   280  MET280     -0.1393
     53  CE        14.8300    8.4960    1.8020 C.3   280  MET280      0.0692
     54  N         18.7010    9.6110    2.5950 N.am  281  GLU281     -0.1977
     55  CA        19.1910   10.7290    1.8090 C.3   281  GLU281      0.1602
     56  C         18.2500   11.9340    1.7610 C.2   281  GLU281      0.2287
     57  O         18.3170   12.7290    0.8220 O.2   281  GLU281     -0.2864
     58  CB        19.5320   10.2570    0.3900 C.3   281  GLU281      0.0415
     59  CG        18.3330    9.9880   -0.5200 C.3   281  GLU281      0.1163
     60  CD        17.8770    8.5360   -0.5280 C.2   281  GLU281      0.3649
     61  OE1       17.1510    8.1550   -1.4750 O.co2 281  GLU281     -0.2457
     62  OE2       18.2380    7.7820    0.4000 O.co2 281  GLU281     -0.2457
     63  N         34.3160    2.6940    5.6610 N.3   307  TRP307     -0.1241
     64  CA        32.8680    2.5720    5.7630 C.3   307  TRP307      0.1605
     65  C         32.1970    3.9390    5.7150 C.2   307  TRP307      0.2264
     66  O         31.4720    4.2390    4.7650 O.2   307  TRP307     -0.2867
     67  CB        32.4650    1.8420    7.0510 C.3   307  TRP307      0.0550
     68  CG        30.9620    1.7100    7.2750 C.ar  307  TRP307      0.0003
     69  CD1       30.2370    2.2130    8.3270 C.ar  307  TRP307      0.0946
     70  CD2       30.0210    1.0250    6.4370 C.ar  307  TRP307      0.0152
     71  NE1       28.9130    1.8850    8.1890 N.ar  307  TRP307     -0.2442
     72  CE2       28.7510    1.1570    7.0380 C.ar  307  TRP307      0.0810
     73  CE3       30.1260    0.3150    5.2350 C.ar  307  TRP307      0.0012
     74  CZ2       27.5950    0.6030    6.4740 C.ar  307  TRP307      0.0191
     75  CZ3       28.9780   -0.2330    4.6790 C.ar  307  TRP307      0.0001
     76  CH2       27.7320   -0.0860    5.2980 C.ar  307  TRP307      0.0015
     77  N         29.5670    5.3530    2.9230 N.3   311  VAL311     -0.1245
     78  CA        28.1560    5.6930    3.1190 C.3   311  VAL311      0.1561
     79  C         27.8700    7.1850    2.9540 C.2   311  VAL311      0.2260
     80  O         26.7980    7.5680    2.4910 O.2   311  VAL311     -0.2867
     81  CB        27.5680    5.1200    4.4460 C.3   311  VAL311      0.0252
     82  CG1       28.6640    4.8100    5.4380 C.3   311  VAL311      0.0019
     83  CG2       26.5330    6.0620    5.0450 C.3   311  VAL311      0.0019
     84  N         27.7730    7.6220   -0.7400 N.3   314  HIS314     -0.1226
     85  CA        26.4860    7.0930   -1.1850 C.3   314  HIS314      0.1752
     86  C         25.3550    8.1050   -1.0390 C.2   314  HIS314      0.2595
     87  O         24.6000    8.3370   -1.9780 O.2   314  HIS314     -0.2718
     88  CB        26.1400    5.8250   -0.4000 C.3   314  HIS314      0.0759
     89  CG        24.9510    5.0820   -0.9290 C.ar  314  HIS314      0.0818
     90  ND1       25.0390    4.1870   -1.9720 N.ar  314  HIS314     -0.2268
     91  CD2       23.6540    5.0800   -0.5400 C.ar  314  HIS314      0.1154
     92  CE1       23.8450    3.6720   -2.2110 C.ar  314  HIS314      0.1986
     93  NE2       22.9890    4.1920   -1.3520 N.ar  314  HIS314     -0.2212
     94  N         25.2380    8.7060    0.1400 N.am  315  GLU315     -0.1979
     95  CA        24.1130    9.5960    0.4160 C.3   315  GLU315      0.1602
     96  C         24.1840   10.8990   -0.3720 C.2   315  GLU315      0.2287
     97  O         23.1540   11.4240   -0.7910 O.2   315  GLU315     -0.2864
     98  CB        23.9880    9.8910    1.9130 C.3   315  GLU315      0.0415
     99  CG        23.8410    8.6550    2.7730 C.3   315  GLU315      0.1163
    100  CD        22.6110    7.8360    2.4280 C.2   315  GLU315      0.3649
    101  OE1       22.7000    6.5920    2.4710 O.co2 315  GLU315     -0.2457
    102  OE2       21.5580    8.4290    2.1170 O.co2 315  GLU315     -0.2457
    103  N         23.0130   10.6160   -3.8190 N.3   318  HIS318     -0.1241
    104  CA        21.5530   10.5230   -3.8580 C.3   318  HIS318      0.1621
    105  C         20.8870   11.8590   -4.1280 C.2   318  HIS318      0.2264
    106  O         19.8630   11.9170   -4.8060 O.2   318  HIS318     -0.2867
    107  CB        21.0110    9.9560   -2.5450 C.3   318  HIS318      0.0745
    108  CG        20.8240    8.4710   -2.5580 C.ar  318  HIS318      0.0817
    109  ND1       20.4540    7.7810   -3.6880 N.ar  318  HIS318     -0.2268
    110  CD2       20.9360    7.5530   -1.5700 C.ar  318  HIS318      0.1154
    111  CE1       20.3570    6.4920   -3.4010 C.ar  318  HIS318      0.1986
    112  NE2       20.6390    6.3310   -2.1240 N.ar  318  HIS318     -0.2212
    113  N         18.0390    4.7480   -8.7380 N.3   336  LYS336     -0.1231
    114  CA        18.4700    5.5530   -7.6050 C.3   336  LYS336      0.1693
    115  C         19.6040    4.8230   -6.8900 C.2   336  LYS336      0.2591
    116  O         20.6930    5.3690   -6.7020 O.2   336  LYS336     -0.2718
    117  CB        17.2770    5.7620   -6.6580 C.3   336  LYS336      0.0285
    118  CG        17.5380    6.6230   -5.4310 C.3   336  LYS336      0.0035
    119  CD        16.2320    7.0070   -4.7270 C.3   336  LYS336      0.0206
    120  CE        15.6720    5.8790   -3.8680 C.3   336  LYS336      0.1093
    121  NZ        16.3220    5.8160   -2.5330 N.3   336  LYS336     -0.1314
    122  N         19.3470    3.5670   -6.5340 N.am  337  GLU337     -0.1979
    123  CA        20.2550    2.7820   -5.6960 C.3   337  GLU337      0.1602
    124  C         21.5050    2.2340   -6.3940 C.2   337  GLU337      0.2287
    125  O         22.6020    2.2870   -5.8340 O.2   337  GLU337     -0.2864
    126  CB        19.4850    1.6490   -5.0180 C.3   337  GLU337      0.0415
    127  CG        18.3930    2.1520   -4.0860 C.3   337  GLU337      0.1163
    128  CD        18.9300    3.0870   -3.0130 C.2   337  GLU337      0.3649
    129  OE1       20.1630    3.1660   -2.8690 O.co2 337  GLU337     -0.2457
    130  OE2       18.1220    3.7270   -2.3120 O.co2 337  GLU337     -0.2457
    131  N         25.2540    3.5440   -5.4050 N.3   341  LYS341     -0.1245
    132  CA        26.2120    2.4880   -5.1090 C.3   341  LYS341      0.1561
    133  C         27.4360    2.5780   -6.0180 C.2   341  LYS341      0.2260
    134  O         28.5640    2.3340   -5.5860 O.2   341  LYS341     -0.2867
    135  CB        25.5410    1.1280   -5.2790 C.3   341  LYS341      0.0271
    136  CG        26.3890   -0.0430   -4.8460 C.3   341  LYS341      0.0035
    137  CD        26.3570   -0.2060   -3.3440 C.3   341  LYS341      0.0206
    138  CE        27.2740   -1.3250   -2.9080 C.3   341  LYS341      0.1093
    139  NZ        26.9500   -1.7610   -1.5280 N.3   341  LYS341     -0.1314
    140  N         29.7530    5.6860   -5.3410 N.3   344  GLU344     -0.1245
    141  CA        30.6150    5.4360   -4.1850 C.3   344  GLU344      0.1567
    142  C         32.0280    5.2190   -4.7010 C.2   344  GLU344      0.2260
    143  O         32.9850    5.8500   -4.2480 O.2   344  GLU344     -0.2867
    144  CB        30.1810    4.1800   -3.4210 C.3   344  GLU344      0.0388
    145  CG        28.9140    4.3060   -2.5750 C.3   344  GLU344      0.1160
    146  CD        28.6110    3.0270   -1.7980 C.2   344  GLU344      0.3649
    147  OE1       29.5470    2.2390   -1.5690 O.co2 344  GLU344     -0.2457
    148  OE2       27.4440    2.7990   -1.4210 O.co2 344  GLU344     -0.2457
    149  N          9.4730   -2.7170   -0.3270 N.3   391  GLN391     -0.1245
    150  CA        10.6010   -2.8590    0.5670 C.3   391  GLN391      0.1566
    151  C         11.5390   -3.9210    0.0240 C.2   391  GLN391      0.2260
    152  O         12.7510   -3.7270   -0.0380 O.2   391  GLN391     -0.2867
    153  CB        10.1230   -3.2340    1.9600 C.3   391  GLN391      0.0367
    154  CG         9.5570   -2.0780    2.7340 C.3   391  GLN391      0.0905
    155  CD         9.1460   -2.4840    4.1190 C.2   391  GLN391      0.2608
    156  OE1        8.7000   -3.6100    4.3340 O.2   391  GLN391     -0.2717
    157  NE2        9.2980   -1.5760    5.0750 N.am  391  GLN391     -0.0878
    158  N         14.7040   -3.5460   -2.2180 N.3   394  PHE394     -0.1227
    159  CA        15.9800   -3.0350   -1.7480 C.3   394  PHE394      0.1736
    160  C         16.8910   -4.1930   -1.4020 C.2   394  PHE394      0.2595
    161  O         16.8060   -4.7590   -0.3200 O.2   394  PHE394     -0.2718
    162  CB        15.7760   -2.1320   -0.5320 C.3   394  PHE394      0.0547
    163  CG        15.0020   -0.8840   -0.8330 C.ar  394  PHE394     -0.0202
    164  CD1       15.6320    0.2240   -1.3680 C.ar  394  PHE394     -0.0042
    165  CD2       13.6460   -0.8200   -0.5850 C.ar  394  PHE394     -0.0042
    166  CE1       14.9230    1.3730   -1.6450 C.ar  394  PHE394     -0.0003
    167  CE2       12.9330    0.3280   -0.8620 C.ar  394  PHE394     -0.0003
    168  CZ        13.5720    1.4240   -1.3920 C.ar  394  PHE394     -0.0000
    169  N         17.7600   -4.5540   -2.3340 N.am  395  ASP395     -0.1960
    170  CA        18.6360   -5.6900   -2.1210 C.3   395  ASP395      0.1840
    171  C         19.8590   -5.6140   -3.0170 C.2   395  ASP395      0.2621
    172  O         20.0640   -4.6280   -3.7260 O.2   395  ASP395     -0.2715
    173  CB        17.8810   -6.9940   -2.3600 C.3   395  ASP395      0.1450
    174  CG        17.4960   -7.1850   -3.8060 C.2   395  ASP395      0.3671
    175  OD1       17.8510   -6.3270   -4.6420 O.co2 395  ASP395     -0.2456
    176  OD2       16.8400   -8.2010   -4.1030 O.co2 395  ASP395     -0.2456
    177  N         20.6680   -6.6640   -2.9880 N.am  396  GLU396     -0.1977
    178  CA        21.9410   -6.6560   -3.6990 C.3   396  GLU396      0.1602
    179  C         21.7840   -6.7320   -5.2080 C.2   396  GLU396      0.2287
    180  O         22.7690   -6.6950   -5.9400 O.2   396  GLU396     -0.2864
    181  CB        22.8340   -7.7740   -3.1840 C.3   396  GLU396      0.0415
    182  CG        22.0910   -8.7630   -2.3240 C.3   396  GLU396      0.1163
    183  CD        22.8230   -9.0490   -1.0380 C.2   396  GLU396      0.3649
    184  OE1       24.0130   -9.4270   -1.1030 O.co2 396  GLU396     -0.2457
    185  OE2       22.2070   -8.8840    0.0370 O.co2 396  GLU396     -0.2457
    186  N         21.0290   -2.7850   -5.8850 N.3   399  TYR399     -0.1227
    187  CA        22.2140   -2.0670   -5.4240 C.3   399  TYR399      0.1736
    188  C         23.4920   -2.5530   -6.1060 C.2   399  TYR399      0.2595
    189  O         24.0420   -1.8650   -6.9640 O.2   399  TYR399     -0.2718
    190  CB        22.3560   -2.1940   -3.9010 C.3   399  TYR399      0.0548
    191  CG        21.4300   -1.3060   -3.0850 C.ar  399  TYR399     -0.0200
    192  CD1       20.0590   -1.5060   -3.0860 C.ar  399  TYR399     -0.0009
    193  CD2       21.9370   -0.2850   -2.2950 C.ar  399  TYR399     -0.0009
    194  CE1       19.2160   -0.7050   -2.3360 C.ar  399  TYR399      0.0417
    195  CE2       21.1050    0.5210   -1.5390 C.ar  399  TYR399      0.0417
    196  CZ        19.7460    0.3060   -1.5630 C.ar  399  TYR399      0.1957
    197  OH        18.9170    1.1070   -0.8130 O.3   399  TYR399     -0.2866
    198  N         23.9620   -3.7360   -5.7150 N.am  400  ASN400     -0.1974
    199  CA        25.2220   -4.2680   -6.2290 C.3   400  ASN400      0.1688
    200  C         25.1840   -4.5320   -7.7290 C.2   400  ASN400      0.2292
    201  O         25.9910   -3.9800   -8.4780 O.2   400  ASN400     -0.2864
    202  CB        25.6280   -5.5480   -5.4950 C.3   400  ASN400      0.1181
    203  CG        25.7620   -5.3540   -3.9930 C.2   400  ASN400      0.2629
    204  OD1       24.9880   -4.6220   -3.3720 O.2   400  ASN400     -0.2716
    205  ND2       26.7390   -6.0300   -3.3980 N.am  400  ASN400     -0.0877
    206  N         11.0130   -5.8940    6.3650 N.3   799  SER799     -0.1202
    207  CA        12.0490   -4.9210    6.6610 C.3   799  SER799      0.2020
    208  C         13.3930   -5.6310    6.5150 C.2   799  SER799      0.2618
    209  O         13.4680   -6.8580    6.6140 O.2   799  SER799     -0.2717
    210  CB        11.8880   -4.4100    8.0860 C.3   799  SER799      0.2103
    211  OG        11.9480   -5.4800    9.0110 O.3   799  SER799     -0.2182
    212  N         14.4590   -4.8770    6.2790 N.am  800  TYR800     -0.1975
    213  CA        15.7720   -5.5010    6.1900 C.3   800  TYR800      0.1639
    214  C         16.0570   -6.3000    7.4530 C.2   800  TYR800      0.2290
    215  O         16.6790   -7.3550    7.3930 O.2   800  TYR800     -0.2864
    216  CB        16.8690   -4.4680    5.9680 C.3   800  TYR800      0.0560
    217  CG        18.1630   -5.0770    5.4830 C.ar  800  TYR800     -0.0198
    218  CD1       18.3110   -5.4710    4.1580 C.ar  800  TYR800     -0.0009
    219  CD2       19.2360   -5.2650    6.3470 C.ar  800  TYR800     -0.0009
    220  CE1       19.4920   -6.0320    3.7060 C.ar  800  TYR800      0.0417
    221  CE2       20.4230   -5.8240    5.9020 C.ar  800  TYR800      0.0417
    222  CZ        20.5450   -6.2060    4.5810 C.ar  800  TYR800      0.1957
    223  OH        21.7240   -6.7620    4.1360 O.3   800  TYR800     -0.2866
@<TRIPOS>BOND
     1   113   114    1
     2   201   200    2
     3   200   199    1
     4   114   115    1
     5   114   117    1
     6   189   188    2
     7   115   116    2
     8   115   122   am
     9   117   118    1
    10   122   123    1
    11   124   125    2
    12   124   123    1
    13   199   198    1
    14   199   202    1
    15   188   198   am
    16   188   187    1
    17   133   134    2
    18   133   132    1
    19   180   179    2
    20   186   187    1
    21   123   126    1
    22   202   203    1
    23   118   119    1
    24   187   190    1
    25   131   132    1
    26   140   141    1
    27   135   132    1
    28   135   136    1
    29   179   178    1
    30   126   127    1
    31   136   137    1
    32   106   105    2
    33   119   120    1
    34   142   143    2
    35   142   141    1
    36   175   174   ar
    37   141   144    1
    38   105   104    1
    39   176   174   ar
    40   127   128    1
    41   203   205   am
    42   203   204    2
    43   190   191    1
    44   120   121    1
    45   104   103    1
    46   104   107    1
    47   174   173    1
    48   172   171    2
    49   178   181    1
    50   178   177    1
    51   109   111   ar
    52   109   108   ar
    53   144   145    1
    54   111   112   ar
    55   137   138    1
    56   181   182    1
    57   192   191   ar
    58   192   194   ar
    59   191   193   ar
    60   171   177   am
    61   171   170    1
    62   128   129   ar
    63   128   130   ar
    64   138   139    1
    65   145   146    1
    66   108   107    1
    67   108   110   ar
    68   173   170    1
    69   194   196   ar
    70   169   170    1
    71   169   160   am
    72   182   183    1
    73   193   195   ar
    74   158   159    1
    75    92    90   ar
    76    92    93   ar
    77   112   110   ar
    78    87    86    2
    79    90    89   ar
    80   146   147   ar
    81   146   148   ar
    82   159   160    1
    83   159   162    1
    84   166   168   ar
    85   166   164   ar
    86   196   195   ar
    87   196   197    1
    88    61    60   ar
    89   160   161    2
    90   168   167   ar
    91   164   163   ar
    92    93    91   ar
    93    17    15   ar
    94    85    86    1
    95    85    84    1
    96    85    88    1
    97   184   183   ar
    98    86    94   am
    99   183   185   ar
   100    89    91   ar
   101    89    88    1
   102   167   165   ar
   103   163   165   ar
   104   163   162    1
   105    97    96    2
   106    60    59    1
   107    60    62   ar
   108    59    58    1
   109    96    95    1
   110   149   150    1
   111    22    23    1
   112    22    19    1
   113    15    14    1
   114    15    16   ar
   115   152   151    2
   116   151   150    1
   117    94    95    1
   118    58    55    1
   119    95    98    1
   120    21    20    2
   121    14    13    1
   122   150   153    1
   123    23    24    1
   124    57    56    2
   125    19    20    1
   126    19    18    1
   127    56    55    1
   128    53    52    1
   129    55    54    1
   130    13    10    1
   131    98    99    1
   132   153   154    1
   133    18    24    1
   134    18    11   am
   135   102   100   ar
   136   100   101   ar
   137   100    99    1
   138    80    79    2
   139    10    11    1
   140    10     9    1
   141    54    48   am
   142   154   155    1
   143    52    51    1
   144    11    12    2
   145    77    78    1
   146    79    78    1
   147    78    81    1
   148   220   218   ar
   149   220   222   ar
   150    48    47    1
   151    48    49    2
   152   155   156    2
   153   155   157   am
   154   223   222    1
   155   218   217   ar
   156    51    50    1
   157    81    83    1
   158    81    82    1
   159    47    50    1
   160    47    46    1
   161   222   221   ar
   162    75    73   ar
   163    75    76   ar
   164    44    43    2
   165    66    65    2
   166    73    70   ar
   167    76    74   ar
   168    43    46   am
   169    43    42    1
   170   217   216    1
   171   217   219   ar
   172    63    64    1
   173    65    64    1
   174    64    67    1
   175   221   219   ar
   176   216   213    1
   177    45    42    1
   178   213   212    1
   179   213   214    1
   180   212   208   am
   181   206   207    1
   182    42    41    1
   183    70    72   ar
   184    70    68   ar
   185    41    39   am
   186    74    72   ar
   187   208   209    2
   188   208   207    1
   189   207   210    1
   190     7     6   ar
   191    72    71   ar
   192    34    35    1
   193    34    31    1
   194    67    68    1
   195    37    38    1
   196    37    32   am
   197    68    69   ar
   198    38    39    1
   199    39    40    2
   200   215   214    2
   201     3     4    2
   202     3     2    1
   203    35    36    1
   204     6     8   ar
   205     6     5    1
   206    31    32    1
   207    31    30    1
   208   210   211    1
   209    71    69   ar
   210    32    33    2
   211     2     5    1
   212     2     1    1
   213    30    36    1
   214    30    27   am
   215    28    27    2
   216    27    26    1
   217    29    26    1
   218    26    25    1
