@<TRIPOS>MOLECULE
tmp/4jbtB01.pdb
 164 155 0 0 0
SMALL
GASTEIGER

@<TRIPOS>ATOM
      1  N         10.9170   30.1240   -7.6010 N.3    80  GLY80      -0.1210
      2  CA        10.4430   31.2560   -8.3920 C.3    80  GLY80       0.1956
      3  C         11.1950   31.4200   -9.7050 C.2    80  GLY80       0.2611
      4  O         10.8460   32.2880  -10.5100 O.2    80  GLY80      -0.2717
      5  N         12.2260   30.6000   -9.9190 N.am   81  MET81      -0.1979
      6  CA        12.9910   30.6350  -11.1680 C.3    81  MET81       0.1605
      7  C         12.2960   29.7770  -12.2210 C.2    81  MET81       0.2287
      8  O         12.6310   29.8490  -13.4020 O.2    81  MET81      -0.2864
      9  CB        14.4310   30.1420  -10.9450 C.3    81  MET81       0.0413
     10  CG        15.2230   30.9530   -9.9310 C.3    81  MET81       0.0598
     11  SD        15.3920   32.6740  -10.4560 S.3    81  MET81      -0.1393
     12  CE        16.3080   32.4450  -11.9680 C.3    81  MET81       0.0692
     13  N          6.4040   29.7670  -12.6280 N.3    84  VAL84      -0.1245
     14  CA         5.9380   31.0980  -12.9970 C.3    84  VAL84       0.1561
     15  C          4.8160   30.9070  -13.9960 C.2    84  VAL84       0.2260
     16  O          4.5880   29.7980  -14.4590 O.2    84  VAL84      -0.2867
     17  CB         7.0670   31.9360  -13.6330 C.3    84  VAL84       0.0252
     18  CG1        8.1500   32.2300  -12.6040 C.3    84  VAL84       0.0019
     19  CG2        7.6670   31.2140  -14.8330 C.3    84  VAL84       0.0019
     20  N          8.3990   31.5260  -21.7600 N.3    89  PHE89      -0.1241
     21  CA         9.3870   30.8880  -20.9070 C.3    89  PHE89       0.1605
     22  C          8.9920   29.4830  -20.4960 C.2    89  PHE89       0.2264
     23  O          9.8560   28.6070  -20.3270 O.2    89  PHE89      -0.2867
     24  CB         9.6250   31.7490  -19.6650 C.3    89  PHE89       0.0534
     25  CG        10.8000   31.3210  -18.8380 C.ar   89  PHE89      -0.0203
     26  CD1       12.0930   31.4640  -19.3140 C.ar   89  PHE89      -0.0042
     27  CD2       10.6120   30.7930  -17.5560 C.ar   89  PHE89      -0.0042
     28  CE1       13.1720   31.0950  -18.5380 C.ar   89  PHE89      -0.0003
     29  CE2       11.6890   30.4120  -16.7760 C.ar   89  PHE89      -0.0003
     30  CZ        12.9690   30.5560  -17.2680 C.ar   89  PHE89      -0.0000
     31  N         13.3520   42.9560   -7.3680 N.3   173  TYR173     -0.1241
     32  CA        14.3010   42.0440   -7.9790 C.3   173  TYR173      0.1605
     33  C         15.4640   41.6680   -7.0410 C.2   173  TYR173      0.2264
     34  O         15.8380   40.5070   -6.9390 O.2   173  TYR173     -0.2867
     35  CB        14.7790   42.5830   -9.3360 C.3   173  TYR173      0.0534
     36  CG        13.6880   42.4970  -10.3810 C.ar  173  TYR173     -0.0201
     37  CD1       13.0060   41.3100  -10.5850 C.ar  173  TYR173     -0.0009
     38  CD2       13.3400   43.5930  -11.1540 C.ar  173  TYR173     -0.0009
     39  CE1       12.0120   41.2140  -11.5320 C.ar  173  TYR173      0.0417
     40  CE2       12.3300   43.5150  -12.0970 C.ar  173  TYR173      0.0417
     41  CZ        11.6660   42.3170  -12.2800 C.ar  173  TYR173      0.1957
     42  OH        10.6520   42.1990  -13.2060 O.3   173  TYR173     -0.2866
     43  N         14.2350   39.1410   -4.7620 N.3   176  PHE176     -0.1227
     44  CA        13.8680   37.9260   -5.4940 C.3   176  PHE176      0.1736
     45  C         15.0810   37.0280   -5.7810 C.2   176  PHE176      0.2595
     46  O         15.0080   35.8010   -5.6980 O.2   176  PHE176     -0.2718
     47  CB        13.1910   38.3360   -6.8140 C.3   176  PHE176      0.0547
     48  CG        12.9620   37.2020   -7.7660 C.ar  176  PHE176     -0.0202
     49  CD1       11.8480   36.4020   -7.6520 C.ar  176  PHE176     -0.0042
     50  CD2       13.8640   36.9430   -8.7760 C.ar  176  PHE176     -0.0042
     51  CE1       11.6420   35.3450   -8.5140 C.ar  176  PHE176     -0.0003
     52  CE2       13.6620   35.8850   -9.6400 C.ar  176  PHE176     -0.0003
     53  CZ        12.5460   35.0910   -9.5160 C.ar  176  PHE176     -0.0000
     54  N         16.1950   37.6500   -6.1370 N.am  177  PHE177     -0.1976
     55  CA        17.3800   36.9150   -6.5800 C.3   177  PHE177      0.1639
     56  C         18.2590   36.4570   -5.4400 C.2   177  PHE177      0.2290
     57  O         18.8990   35.4150   -5.5330 O.2   177  PHE177     -0.2864
     58  CB        18.1930   37.7560   -7.5420 C.3   177  PHE177      0.0560
     59  CG        17.6600   37.7560   -8.9370 C.ar  177  PHE177     -0.0200
     60  CD1       17.6080   36.5810   -9.6720 C.ar  177  PHE177     -0.0042
     61  CD2       17.2290   38.9280   -9.5220 C.ar  177  PHE177     -0.0042
     62  CE1       17.1140   36.5780  -10.9630 C.ar  177  PHE177     -0.0003
     63  CE2       16.7510   38.9320  -10.8200 C.ar  177  PHE177     -0.0003
     64  CZ        16.6760   37.7510  -11.5360 C.ar  177  PHE177     -0.0000
     65  N          5.1080   41.5050   -7.1830 N.3   193  MET193     -0.1245
     66  CA         5.5260   41.7520   -8.5520 C.3   193  MET193      0.1570
     67  C          4.4250   41.3620   -9.5060 C.2   193  MET193      0.2261
     68  O          4.1730   42.0510  -10.4840 O.2   193  MET193     -0.2867
     69  CB         6.7770   40.9630   -8.8900 C.3   193  MET193      0.0387
     70  CG         7.9910   41.4860   -8.1750 C.3   193  MET193      0.0595
     71  SD         9.4460   40.5970   -8.6890 S.3   193  MET193     -0.1393
     72  CE         9.0690   38.9980   -8.0070 C.3   193  MET193      0.0692
     73  N          2.8680   37.2070  -18.2210 N.3   233  GLY233     -0.1225
     74  CA         4.0390   36.3490  -18.1750 C.3   233  GLY233      0.1811
     75  C          5.1830   36.8490  -19.0410 C.2   233  GLY233      0.2280
     76  O          6.3310   36.9350  -18.5950 O.2   233  GLY233     -0.2866
     77  N          6.6830   40.0010  -17.5100 N.3   236  GLN236     -0.1231
     78  CA         7.5710   39.7130  -16.3850 C.3   236  GLN236      0.1698
     79  C          8.9190   39.1840  -16.8410 C.2   236  GLN236      0.2592
     80  O          9.9760   39.6790  -16.4070 O.2   236  GLN236     -0.2718
     81  CB         6.9390   38.7210  -15.4240 C.3   236  GLN236      0.0381
     82  CG         5.7610   39.3000  -14.6720 C.3   236  GLN236      0.0905
     83  CD         5.5470   38.6270  -13.3440 C.2   236  GLN236      0.2608
     84  OE1        4.5660   37.9230  -13.1510 O.2   236  GLN236     -0.2717
     85  NE2        6.4800   38.8270  -12.4240 N.am  236  GLN236     -0.0878
     86  N          8.8690   38.1930  -17.7320 N.am  237  ALA237     -0.1980
     87  CA        10.0790   37.5980  -18.3000 C.3   237  ALA237      0.1597
     88  C         10.9700   38.6630  -18.9260 C.2   237  ALA237      0.2287
     89  O         12.1810   38.7470  -18.6380 O.2   237  ALA237     -0.2864
     90  CB         9.7260   36.5360  -19.3270 C.3   237  ALA237      0.0319
     91  N         12.3900   41.1890  -16.0240 N.3   240  ALA240     -0.1231
     92  CA        13.3300   40.4900  -15.1750 C.3   240  ALA240      0.1694
     93  C         14.6390   40.1850  -15.9210 C.2   240  ALA240      0.2591
     94  O         15.7250   40.5690  -15.4680 O.2   240  ALA240     -0.2718
     95  CB        12.6950   39.2220  -14.6400 C.3   240  ALA240      0.0304
     96  N         14.5280   39.5060  -17.0670 N.am  241  ALA241     -0.1980
     97  CA        15.6930   39.1330  -17.8670 C.3   241  ALA241      0.1597
     98  C         16.4110   40.3530  -18.4150 C.2   241  ALA241      0.2287
     99  O         17.6400   40.4430  -18.3850 O.2   241  ALA241     -0.2864
    100  CB        15.2780   38.2410  -19.0120 C.3   241  ALA241      0.0319
    101  N         18.2860   42.1800  -15.2140 N.3   244  GLU244     -0.1231
    102  CA        19.2860   41.4450  -14.4340 C.3   244  GLU244      0.1699
    103  C         20.5270   41.0240  -15.2230 C.2   244  GLU244      0.2592
    104  O         21.6490   41.2170  -14.7460 O.2   244  GLU244     -0.2718
    105  CB        18.6660   40.2100  -13.7750 C.3   244  GLU244      0.0402
    106  CG        19.6760   39.3360  -13.0360 C.3   244  GLU244      0.1161
    107  CD        20.1150   39.8700  -11.6760 C.2   244  GLU244      0.3649
    108  OE1       19.8480   41.0470  -11.3620 O.co2 244  GLU244     -0.2457
    109  OE2       20.7450   39.0970  -10.9030 O.co2 244  GLU244     -0.2457
    110  N         20.3270   40.4600  -16.4150 N.am  245  THR245     -0.1953
    111  CA        21.4310   39.9730  -17.2410 C.3   245  THR245      0.1897
    112  C         22.3230   41.0940  -17.7430 C.2   245  THR245      0.2313
    113  O         23.5560   40.9950  -17.7170 O.2   245  THR245     -0.2863
    114  CB        20.9220   39.2180  -18.4660 C.3   245  THR245      0.1794
    115  OG1       19.9220   39.9960  -19.1310 O.3   245  THR245     -0.2208
    116  CG2       20.3350   37.8710  -18.0640 C.3   245  THR245      0.0378
    117  N         24.6380   34.4740  -17.1110 N.3   288  VAL288     -0.1245
    118  CA        23.9250   33.3240  -16.5860 C.3   288  VAL288      0.1561
    119  C         24.9020   32.2700  -16.1210 C.2   288  VAL288      0.2260
    120  O         25.8100   31.8920  -16.8560 O.2   288  VAL288     -0.2867
    121  CB        23.0320   32.6630  -17.6520 C.3   288  VAL288      0.0252
    122  CG1       22.3870   31.4030  -17.0860 C.3   288  VAL288      0.0019
    123  CG2       21.9810   33.6410  -18.1550 C.3   288  VAL288      0.0019
    124  N         23.6410   29.2270  -14.1720 N.3   290  HIS290     -0.1226
    125  CA        22.8230   28.0370  -14.4190 C.3   290  HIS290      0.1752
    126  C         21.4310   28.4620  -14.8880 C.2   290  HIS290      0.2596
    127  O         20.8780   29.4530  -14.4190 O.2   290  HIS290     -0.2718
    128  CB        22.6990   27.1590  -13.1620 C.3   290  HIS290      0.0759
    129  CG        24.0060   26.6020  -12.6780 C.ar  290  HIS290      0.0818
    130  ND1       24.6410   25.5380  -13.2840 N.ar  290  HIS290     -0.2268
    131  CD2       24.8060   26.9800  -11.6550 C.ar  290  HIS290      0.1154
    132  CE1       25.7730   25.2870  -12.6560 C.ar  290  HIS290      0.1986
    133  NE2       25.8990   26.1510  -11.6640 N.ar  290  HIS290     -0.2212
    134  N         20.8660   27.7110  -15.8220 N.am  291  LEU291     -0.1966
    135  CA        19.5440   28.0110  -16.3220 C.3   291  LEU291      0.1728
    136  C         18.5810   26.9150  -15.8900 C.2   291  LEU291      0.2616
    137  O         18.5880   25.8180  -16.4770 O.2   291  LEU291     -0.2715
    138  CB        19.5570   28.1100  -17.8440 C.3   291  LEU291      0.0311
    139  CG        18.3000   28.6470  -18.5280 C.3   291  LEU291      0.0022
    140  CD1       17.1160   27.6930  -18.4260 C.3   291  LEU291      0.0001
    141  CD2       17.9390   30.0120  -17.9670 C.3   291  LEU291      0.0001
    142  N         17.7640   27.2400  -14.8800 N.am  292  LEU292     -0.1977
    143  CA        16.7040   26.3720  -14.3820 C.3   292  LEU292      0.1596
    144  C         15.5230   26.1870  -15.3360 C.2   292  LEU292      0.2287
    145  O         15.2030   27.0330  -16.1450 O.2   292  LEU292     -0.2864
    146  CB        16.2260   26.7930  -12.9840 C.3   292  LEU292      0.0297
    147  CG        17.0170   26.1990  -11.8200 C.3   292  LEU292      0.0022
    148  CD1       18.5160   26.4050  -11.9910 C.3   292  LEU292      0.0001
    149  CD2       16.5530   26.7820  -10.5070 C.3   292  LEU292      0.0001
    150  N         17.4310   33.4140  -26.3090 N.3   354  CYS354     -0.1235
    151  CA        17.1450   34.7890  -25.9030 C.3   354  CYS354      0.1677
    152  C         16.6530   35.6870  -27.0370 C.2   354  CYS354      0.2270
    153  O         17.3610   35.8970  -28.0440 O.2   354  CYS354     -0.2867
    154  CB        18.3670   35.4580  -25.2700 C.3   354  CYS354      0.0956
    155  SG        17.9170   37.0340  -24.5090 S.3   354  CYS354     -0.0801
    156  N         22.7380   33.4770  -11.3310 N.3   395  GLN395     -0.1245
    157  CA        23.0880   34.6790  -12.0700 C.3   395  GLN395      0.1566
    158  C         24.4390   35.1780  -11.6010 C.2   395  GLN395      0.2260
    159  O         24.7510   35.1530  -10.3940 O.2   395  GLN395     -0.2867
    160  CB        22.0530   35.8010  -11.8430 C.3   395  GLN395      0.0367
    161  CG        20.5920   35.3580  -11.7730 C.3   395  GLN395      0.0905
    162  CD        20.0810   34.8060  -13.0920 C.2   395  GLN395      0.2608
    163  OE1       19.4850   33.7300  -13.1370 O.2   395  GLN395     -0.2717
    164  NE2       20.3020   35.5500  -14.1730 N.am  395  GLN395     -0.0878
@<TRIPOS>BOND
     1   153   152    2
     2   152   151    1
     3   150   151    1
     4   151   154    1
     5   154   155    1
     6    20    21    1
     7    21    22    1
     8    21    24    1
     9    22    23    2
    10    24    25    1
    11    90    87    1
    12    26    25   ar
    13    26    28   ar
    14   115   114    1
    15    75    76    2
    16    75    74    1
    17   100    97    1
    18    88    89    2
    19    88    87    1
    20    25    27   ar
    21    28    30   ar
    22   139   140    1
    23   139   141    1
    24   139   138    1
    25   114   116    1
    26   114   111    1
    27    98    99    2
    28    98    97    1
    29    87    86    1
    30    73    74    1
    31   123   121    1
    32    97    96    1
    33   138   135    1
    34   112   113    2
    35   112   111    1
    36    86    79   am
    37   121   122    1
    38   121   118    1
    39    27    29   ar
    40    77    78    1
    41    30    29   ar
    42   111   110    1
    43   117   118    1
    44    96    93   am
    45   120   119    2
    46    79    80    2
    47    79    78    1
    48   118   119    1
    49   137   136    2
    50   110   103   am
    51    78    81    1
    52   135   136    1
    53   135   134    1
    54   145   144    2
    55    91    92    1
    56    93    94    2
    57    93    92    1
    58   136   142   am
    59   134   126   am
    60    81    82    1
    61   144   143    1
    62   103   104    2
    63   103   102    1
    64   101   102    1
    65    92    95    1
    66   126   127    2
    67   126   125    1
    68   142   143    1
    69    19    17    1
    70    82    83    1
    71    16    15    2
    72   102   105    1
    73   125   124    1
    74   125   128    1
    75   143   146    1
    76   164   162   am
    77    15    14    1
    78   105   106    1
    79    17    14    1
    80    17    18    1
    81     8     7    2
    82    83    84    2
    83    83    85   am
    84   130   129   ar
    85   130   132   ar
    86    42    41    1
    87   128   129    1
    88   163   162    2
    89   162   161    1
    90   106   107    1
    91    14    13    1
    92   146   147    1
    93   129   131   ar
    94   132   133   ar
    95    41    40   ar
    96    41    39   ar
    97     7     6    1
    98    40    38   ar
    99   157   160    1
   100   157   158    1
   101   157   156    1
   102   148   147    1
   103    12    11    1
   104   160   161    1
   105   147   149    1
   106   107   108   ar
   107   107   109   ar
   108   133   131   ar
   109   158   159    2
   110    64    62   ar
   111    64    63   ar
   112    39    37   ar
   113     6     9    1
   114     6     5    1
   115    38    36   ar
   116    62    60   ar
   117     9    10    1
   118    63    61   ar
   119    37    36   ar
   120     4     3    2
   121    68    67    2
   122    11    10    1
   123    36    35    1
   124     5     3   am
   125     3     2    1
   126    60    59   ar
   127    52    53   ar
   128    52    50   ar
   129    61    59   ar
   130    53    51   ar
   131    67    66    1
   132    35    32    1
   133    59    58    1
   134    69    66    1
   135    69    70    1
   136    50    48   ar
   137    71    70    1
   138    71    72    1
   139    66    65    1
   140    51    49   ar
   141     2     1    1
   142    32    31    1
   143    32    33    1
   144    48    49   ar
   145    48    47    1
   146    58    55    1
   147    33    34    2
   148    47    44    1
   149    55    54    1
   150    55    56    1
   151    54    45   am
   152    45    46    2
   153    45    44    1
   154    57    56    2
   155    44    43    1
