@<TRIPOS>MOLECULE
tmp/4jbvA00.pdb
 219 205 0 0 0
SMALL
GASTEIGER

@<TRIPOS>ATOM
      1  N         21.2940   17.4410   67.0690 N.3    13  LEU13      -0.1231
      2  CA        21.3800   17.2740   65.6160 C.3    13  LEU13       0.1693
      3  C         21.2420   18.6200   64.9100 C.2    13  LEU13       0.2593
      4  O         22.0200   18.9350   64.0030 O.2    13  LEU13      -0.2718
      5  CB        20.3360   16.2780   65.1120 C.3    13  LEU13       0.0284
      6  CG        20.5570   14.8440   65.6040 C.3    13  LEU13       0.0019
      7  CD1       19.3300   13.9870   65.3440 C.3    13  LEU13       0.0001
      8  CD2       21.7910   14.2290   64.9580 C.3    13  LEU13       0.0001
      9  N         20.2710   19.4210   65.3380 N.am   14  GLY14      -0.1942
     10  CA        20.1320   20.7810   64.8290 C.3    14  GLY14       0.2014
     11  C         18.7310   21.3480   64.9270 C.2    14  GLY14       0.2639
     12  O         17.7930   20.6660   65.3360 O.2    14  GLY14      -0.2714
     13  N         18.6060   22.6140   64.5380 N.am   15  LYS15      -0.1963
     14  CA        17.3270   23.3090   64.5360 C.3    15  LYS15       0.1728
     15  C         16.5790   22.9410   63.2590 C.2    15  LYS15       0.2616
     16  O         17.0610   23.2010   62.1600 O.2    15  LYS15      -0.2715
     17  CB        17.5440   24.8270   64.6130 C.3    15  LYS15       0.0311
     18  CG        16.5940   25.5570   65.5530 C.3    15  LYS15       0.0038
     19  CD        15.1620   25.5650   65.0480 C.3    15  LYS15       0.0206
     20  CE        14.3030   26.5250   65.8570 C.3    15  LYS15       0.1093
     21  NZ        12.9180   26.6170   65.3190 N.3    15  LYS15      -0.1314
     22  N         15.4230   22.3030   63.4090 N.am   16  GLY16      -0.1955
     23  CA        14.5290   22.0320   62.2860 C.3    16  GLY16       0.1869
     24  C         13.3030   22.9050   62.4310 C.2    16  GLY16       0.2309
     25  O         13.2750   23.7950   63.2800 O.2    16  GLY16      -0.2863
     26  N         16.2840   19.5820   67.3580 N.3    21  VAL21      -0.1245
     27  CA        16.2120   18.1290   67.3640 C.3    21  VAL21       0.1561
     28  C         17.4570   17.5390   68.0150 C.2    21  VAL21       0.2260
     29  O         18.5890   17.8500   67.6210 O.2    21  VAL21      -0.2867
     30  CB        16.0370   17.5560   65.9490 C.3    21  VAL21       0.0252
     31  CG1       15.9420   16.0320   66.0100 C.3    21  VAL21       0.0019
     32  CG2       14.7990   18.1570   65.2960 C.3    21  VAL21       0.0019
     33  N         15.2460   10.2940   67.9410 N.3    34  ALA34      -0.1245
     34  CA        15.4320   11.6960   67.5760 C.3    34  ALA34       0.1562
     35  C         14.2320   12.4790   68.0900 C.2    34  ALA34       0.2260
     36  O         13.0940   12.2600   67.6510 O.2    34  ALA34      -0.2867
     37  CB        15.5710   11.8450   66.0690 C.3    34  ALA34       0.0290
     38  N         12.2400   15.9400   68.6690 N.3    36  LYS36      -0.1245
     39  CA        12.0160   17.3360   68.3070 C.3    36  LYS36       0.1561
     40  C         11.3880   18.0350   69.5100 C.2    36  LYS36       0.2260
     41  O         10.3520   17.5970   70.0320 O.2    36  LYS36      -0.2867
     42  CB        11.1290   17.4640   67.0580 C.3    36  LYS36       0.0271
     43  CG        10.8180   18.9060   66.6690 C.3    36  LYS36       0.0035
     44  CD        10.3830   19.0520   65.2150 C.3    36  LYS36       0.0206
     45  CE        11.5760   19.0570   64.2670 C.3    36  LYS36       0.1093
     46  NZ        11.1970   19.4090   62.8720 N.3    36  LYS36      -0.1314
     47  N         -4.7190   17.8210   69.3220 N.3    52  LEU52      -0.1245
     48  CA        -3.3090   17.4180   69.3040 C.3    52  LEU52       0.1561
     49  C         -3.1010   15.9980   69.8480 C.2    52  LEU52       0.2260
     50  O         -2.3950   15.1990   69.2350 O.2    52  LEU52      -0.2867
     51  CB        -2.4450   18.4110   70.1000 C.3    52  LEU52       0.0270
     52  CG        -0.9510   18.0770   70.2290 C.3    52  LEU52       0.0019
     53  CD1       -0.3110   17.8840   68.8610 C.3    52  LEU52       0.0001
     54  CD2       -0.2120   19.1510   71.0120 C.3    52  LEU52       0.0001
     55  N         -4.2920   13.3590   67.4080 N.3    55  GLU55      -0.1231
     56  CA        -3.3900   13.2720   66.2590 C.3    55  GLU55       0.1699
     57  C         -2.1820   12.4020   66.6000 C.2    55  GLU55       0.2592
     58  O         -1.8220   11.5010   65.8480 O.2    55  GLU55      -0.2718
     59  CB        -2.9100   14.6540   65.8220 C.3    55  GLU55       0.0402
     60  CG        -2.2650   14.6530   64.4410 C.3    55  GLU55       0.1161
     61  CD        -3.2980   14.6660   63.3300 C.2    55  GLU55       0.3649
     62  OE1       -3.9510   15.7170   63.1440 O.co2  55  GLU55      -0.2457
     63  OE2       -3.4580   13.6290   62.6500 O.co2  55  GLU55      -0.2457
     64  N         -1.5630   12.6860   67.7400 N.am   56  VAL56      -0.1980
     65  CA        -0.4200   11.9090   68.2180 C.3    56  VAL56       0.1595
     66  C         -0.7940   10.4330   68.3290 C.2    56  VAL56       0.2287
     67  O         -0.0790    9.5670   67.8400 O.2    56  VAL56      -0.2864
     68  CB         0.0700   12.4350   69.5840 C.3    56  VAL56       0.0276
     69  CG1        0.9920   11.4370   70.2660 C.3    56  VAL56       0.0022
     70  CG2        0.7660   13.7750   69.4090 C.3    56  VAL56       0.0022
     71  N         -0.9720    9.0150   64.9250 N.3    59  LEU59      -0.1245
     72  CA         0.3610    8.9270   64.3090 C.3    59  LEU59       0.1561
     73  C          1.1710    7.7540   64.8480 C.2    59  LEU59       0.2260
     74  O          1.8100    7.0460   64.0900 O.2    59  LEU59      -0.2867
     75  CB         1.1340   10.2360   64.4970 C.3    59  LEU59       0.0270
     76  CG         0.5860   11.4230   63.7080 C.3    59  LEU59       0.0019
     77  CD1        1.2670   12.7080   64.1480 C.3    59  LEU59       0.0001
     78  CD2        0.7660   11.1940   62.2210 C.3    59  LEU59       0.0001
     79  N          8.5150    9.0370   58.7580 N.3    68  MET68      -0.1245
     80  CA         9.1730    8.9490   60.0570 C.3    68  MET68       0.1570
     81  C          8.2410    8.2930   61.0640 C.2    68  MET68       0.2261
     82  O          7.0720    8.6710   61.1860 O.2    68  MET68      -0.2867
     83  CB         9.5800   10.3360   60.5620 C.3    68  MET68       0.0387
     84  CG        10.4030   10.3070   61.8440 C.3    68  MET68       0.0595
     85  SD        10.1180   11.6800   62.9720 S.3    68  MET68      -0.1393
     86  CE         8.5120   11.2470   63.6500 C.3    68  MET68       0.0692
     87  N          6.7920    7.7240   64.6380 N.3    70  LEU70      -0.1245
     88  CA         6.6430    8.4130   65.9190 C.3    70  LEU70       0.1561
     89  C          6.4520    7.3840   67.0330 C.2    70  LEU70       0.2260
     90  O          5.5690    6.5310   66.9290 O.2    70  LEU70      -0.2867
     91  CB         5.4270    9.3480   65.8940 C.3    70  LEU70       0.0270
     92  CG         5.1200   10.0930   67.2000 C.3    70  LEU70       0.0019
     93  CD1        6.1590   11.1700   67.4570 C.3    70  LEU70       0.0001
     94  CD2        3.7230   10.6970   67.1680 C.3    70  LEU70       0.0001
     95  N          5.1660   10.8630   72.9280 N.3    73  PHE73      -0.1241
     96  CA         4.8550   12.2790   73.0310 C.3    73  PHE73       0.1605
     97  C          4.8450   12.6950   74.4930 C.2    73  PHE73       0.2264
     98  O          4.2670   12.0070   75.3280 O.2    73  PHE73      -0.2867
     99  CB         3.4930   12.5450   72.4090 C.3    73  PHE73       0.0534
    100  CG         3.0050   13.9500   72.5830 C.ar   73  PHE73      -0.0203
    101  CD1        3.3810   14.9420   71.6940 C.ar   73  PHE73      -0.0042
    102  CD2        2.1610   14.2790   73.6330 C.ar   73  PHE73      -0.0042
    103  CE1        2.9230   16.2410   71.8480 C.ar   73  PHE73      -0.0003
    104  CE2        1.7060   15.5760   73.7980 C.ar   73  PHE73      -0.0003
    105  CZ         2.0860   16.5570   72.9020 C.ar   73  PHE73      -0.0000
    106  N          8.7450   15.5190   71.1030 N.3    82  LEU82      -0.1245
    107  CA         8.2600   14.6380   70.0520 C.3    82  LEU82       0.1561
    108  C          9.3380   13.6130   69.7560 C.2    82  LEU82       0.2260
    109  O         10.3810   13.9460   69.1930 O.2    82  LEU82      -0.2867
    110  CB         7.9190   15.4440   68.7960 C.3    82  LEU82       0.0270
    111  CG         7.1560   16.7530   69.0150 C.3    82  LEU82       0.0019
    112  CD1        6.9850   17.4700   67.6830 C.3    82  LEU82       0.0001
    113  CD2        5.8110   16.5120   69.6900 C.3    82  LEU82       0.0001
    114  N         10.7810   10.4660   67.9320 N.3    84  GLY84      -0.1210
    115  CA        10.6720    9.6840   66.7140 C.3    84  GLY84       0.1956
    116  C         11.8890    8.8310   66.4440 C.2    84  GLY84       0.2612
    117  O         12.8980    8.9000   67.1640 O.2    84  GLY84      -0.2717
    118  N         11.7890    8.0200   65.3960 N.am   85  GLU85      -0.1965
    119  CA        12.8810    7.1490   64.9850 C.3    85  GLU85       0.1733
    120  C         14.0000    8.0070   64.3950 C.2    85  GLU85       0.2616
    121  O         13.7320    8.9760   63.6770 O.2    85  GLU85      -0.2715
    122  CB        12.3770    6.1270   63.9590 C.3    85  GLU85       0.0429
    123  CG        13.3840    5.0480   63.5590 C.3    85  GLU85       0.1163
    124  CD        12.8400    4.0800   62.5180 C.2    85  GLU85       0.3649
    125  OE1       11.7100    4.2800   62.0120 O.co2  85  GLU85      -0.2457
    126  OE2       13.5620    3.1160   62.1810 O.co2  85  GLU85      -0.2457
    127  N         15.2450    7.6570   64.7140 N.am   86  VAL86      -0.1963
    128  CA        16.4000    8.4240   64.2530 C.3    86  VAL86       0.1727
    129  C         16.9210    7.8380   62.9390 C.2    86  VAL86       0.2616
    130  O         17.0670    6.6270   62.7960 O.2    86  VAL86      -0.2715
    131  CB        17.5170    8.5160   65.3250 C.3    86  VAL86       0.0290
    132  CG1       18.0520    7.1450   65.7140 C.3    86  VAL86       0.0023
    133  CG2       18.6510    9.4200   64.8460 C.3    86  VAL86       0.0023
    134  N         17.1460    8.7150   61.9680 N.am   87  TYR87      -0.1974
    135  CA        17.7170    8.3320   60.6780 C.3    87  TYR87       0.1639
    136  C         19.0640    8.9980   60.5290 C.2    87  TYR87       0.2290
    137  O         19.2600   10.1060   61.0000 O.2    87  TYR87      -0.2864
    138  CB        16.7660    8.7270   59.5530 C.3    87  TYR87       0.0560
    139  CG        15.3940    8.1670   59.7910 C.ar   87  TYR87      -0.0198
    140  CD1       15.2030    6.7940   59.9020 C.ar   87  TYR87      -0.0009
    141  CD2       14.2940    9.0010   59.9650 C.ar   87  TYR87      -0.0009
    142  CE1       13.9570    6.2620   60.1580 C.ar   87  TYR87       0.0417
    143  CE2       13.0370    8.4710   60.2130 C.ar   87  TYR87       0.0417
    144  CZ        12.8770    7.1030   60.3090 C.ar   87  TYR87       0.1957
    145  OH        11.6390    6.5670   60.5630 O.3    87  TYR87      -0.2866
    146  N         20.0820   14.6120   54.8140 N.3    91  GLU91      -0.1245
    147  CA        19.1480   15.1690   53.8470 C.3    91  GLU91       0.1567
    148  C         19.4200   14.6470   52.4320 C.2    91  GLU91       0.2260
    149  O         20.5690   14.5300   52.0130 O.2    91  GLU91      -0.2867
    150  CB        19.2050   16.7010   53.8890 C.3    91  GLU91       0.0388
    151  CG        18.6810   17.3010   55.1920 C.3    91  GLU91       0.1160
    152  CD        18.9190   18.8030   55.3130 C.2    91  GLU91       0.3649
    153  OE1       19.1480   19.4780   54.2840 O.co2  91  GLU91      -0.2457
    154  OE2       18.8680   19.3190   56.4520 O.co2  91  GLU91      -0.2457
    155  N         14.6210   19.5150   52.7310 N.3   134  GLU134     -0.1245
    156  CA        15.1400   19.2400   54.0840 C.3   134  GLU134      0.1567
    157  C         14.2060   18.3670   54.9290 C.2   134  GLU134      0.2260
    158  O         14.6140   17.8680   55.9780 O.2   134  GLU134     -0.2867
    159  CB        15.5110   20.5350   54.8300 C.3   134  GLU134      0.0388
    160  CG        14.3560   21.3840   55.3460 C.3   134  GLU134      0.1160
    161  CD        14.8270   22.6110   56.1220 C.2   134  GLU134      0.3649
    162  OE1       15.9410   23.1200   55.8450 O.co2 134  GLU134     -0.2457
    163  OE2       14.0760   23.0730   57.0120 O.co2 134  GLU134     -0.2457
    164  N         14.6880   12.8890   54.5200 N.3   137  LEU137     -0.1245
    165  CA        15.8910   12.2860   55.1000 C.3   137  LEU137      0.1561
    166  C         16.1390   10.9110   54.4980 C.2   137  LEU137      0.2260
    167  O         15.2060   10.2500   54.0540 O.2   137  LEU137     -0.2867
    168  CB        15.7370   12.1480   56.6150 C.3   137  LEU137      0.0270
    169  CG        15.5110   13.4240   57.4300 C.3   137  LEU137      0.0019
    170  CD1       15.6120   13.1040   58.9090 C.3   137  LEU137      0.0001
    171  CD2       16.4970   14.5270   57.0690 C.3   137  LEU137      0.0001
    172  N          9.9540   13.7380   57.1220 N.3   150  ILE150     -0.1231
    173  CA         9.7390   14.2810   58.4630 C.3   150  ILE150      0.1692
    174  C          8.7630   15.4690   58.4590 C.2   150  ILE150      0.2592
    175  O          8.5680   16.1310   57.4330 O.2   150  ILE150     -0.2718
    176  CB        11.0770   14.6770   59.1280 C.3   150  ILE150      0.0266
    177  CG1       11.8710   15.6510   58.2500 C.3   150  ILE150      0.0019
    178  CG2       11.9130   13.4300   59.4000 C.3   150  ILE150      0.0020
    179  CD1       12.9630   16.4020   58.9810 C.3   150  ILE150      0.0001
    180  N          8.1500   15.6980   59.6200 N.am  151  ASP151     -0.1960
    181  CA         7.2480   16.8300   59.9090 C.3   151  ASP151      0.1840
    182  C          5.7950   16.6960   59.4360 C.2   151  ASP151      0.2622
    183  O          5.0140   17.6430   59.5730 O.2   151  ASP151     -0.2715
    184  CB         7.8280   18.1730   59.4390 C.3   151  ASP151      0.1450
    185  CG         8.9840   18.6430   60.2920 C.2   151  ASP151      0.3671
    186  OD1        9.0860   18.2330   61.4720 O.co2 151  ASP151     -0.2456
    187  OD2        9.7890   19.4480   59.7750 O.co2 151  ASP151     -0.2456
    188  N          5.4030   15.5290   58.9330 N.am  152  PHE152     -0.1960
    189  CA         3.9810   15.3100   58.6310 C.3   152  PHE152      0.1771
    190  C          3.1590   15.5130   59.8950 C.2   152  PHE152      0.2620
    191  O          3.4840   14.9600   60.9450 O.2   152  PHE152     -0.2715
    192  CB         3.7290   13.9090   58.0760 C.3   152  PHE152      0.0574
    193  CG         3.3160   13.8850   56.6320 C.ar  152  PHE152     -0.0200
    194  CD1        2.0520   14.3290   56.2560 C.ar  152  PHE152     -0.0042
    195  CD2        4.1580   13.3740   55.6590 C.ar  152  PHE152     -0.0042
    196  CE1        1.6500   14.2940   54.9270 C.ar  152  PHE152     -0.0003
    197  CE2        3.7650   13.3380   54.3320 C.ar  152  PHE152     -0.0003
    198  CZ         2.5140   13.7950   53.9640 C.ar  152  PHE152     -0.0000
    199  N          2.1110   16.3270   59.7920 N.am  153  GLY153     -0.1940
    200  CA         1.1950   16.5560   60.8900 C.3   153  GLY153      0.2014
    201  C          1.4790   17.7940   61.7200 C.2   153  GLY153      0.2638
    202  O          0.6060   18.2410   62.4560 O.2   153  GLY153     -0.2714
    203  N          2.6850   18.3540   61.6170 N.am  154  LEU154     -0.1977
    204  CA         3.0690   19.4870   62.4700 C.3   154  LEU154      0.1596
    205  C          2.3890   20.8120   62.1050 C.2   154  LEU154      0.2287
    206  O          1.9030   21.5090   62.9850 O.2   154  LEU154     -0.2864
    207  CB         4.5930   19.6800   62.4880 C.3   154  LEU154      0.0297
    208  CG         5.3890   18.8320   63.4860 C.3   154  LEU154      0.0022
    209  CD1        6.8590   19.2180   63.4150 C.3   154  LEU154      0.0001
    210  CD2        4.8580   18.9980   64.9060 C.3   154  LEU154      0.0001
    211  N         22.6570   26.5090   51.9700 N.3   289  LYS289     -0.1245
    212  CA        23.2430   26.1840   53.2800 C.3   289  LYS289      0.1561
    213  C         24.0910   27.3320   53.8450 C.2   289  LYS289      0.2260
    214  O         24.1120   27.5380   55.0490 O.2   289  LYS289     -0.2867
    215  CB        24.0490   24.8790   53.2340 C.3   289  LYS289      0.0271
    216  CG        23.2460   23.6940   52.6950 C.3   289  LYS289      0.0035
    217  CD        23.6270   22.3590   53.3180 C.3   289  LYS289      0.0206
    218  CE        22.7330   22.0150   54.5050 C.3   289  LYS289      0.1093
    219  NZ        22.9710   20.6220   54.9800 N.3   289  LYS289     -0.1314
@<TRIPOS>BOND
     1   211   212    1
     2   149   148    2
     3   148   147    1
     4   216   215    1
     5   216   217    1
     6   155   156    1
     7   215   212    1
     8   212   213    1
     9   217   218    1
    10   213   214    2
    11   147   150    1
    12   147   146    1
    13   150   151    1
    14   198   197   ar
    15   198   196   ar
    16   167   166    2
    17   156   159    1
    18   156   157    1
    19   153   152   ar
    20   197   195   ar
    21   166   165    1
    22   218   219    1
    23   164   165    1
    24   159   160    1
    25   196   194   ar
    26   157   158    2
    27   165   168    1
    28   151   152    1
    29   152   154   ar
    30   160   161    1
    31   195   193   ar
    32   162   161   ar
    33   161   163   ar
    34   194   193   ar
    35   168   169    1
    36   193   192    1
    37   171   169    1
    38   172   173    1
    39   169   170    1
    40   175   174    2
    41   192   189    1
    42   177   179    1
    43   177   176    1
    44   174   173    1
    45   174   180   am
    46   173   176    1
    47   189   188    1
    48   189   190    1
    49    79    80    1
    50   188   182   am
    51   176   178    1
    52   182   183    2
    53   182   181    1
    54   184   181    1
    55   184   185    1
    56   138   139    1
    57   138   135    1
    58   180   181    1
    59   187   185   ar
    60   139   140   ar
    61   139   141   ar
    62   199   190   am
    63   199   200    1
    64   190   191    2
    65   140   142   ar
    66   141   143   ar
    67    80    83    1
    68    80    81    1
    69   142   144   ar
    70   143   144   ar
    71   185   186   ar
    72   144   145    1
    73   136   135    1
    74   136   137    2
    75    83    84    1
    76   135   134    1
    77   200   201    1
    78    81    82    2
    79   203   201   am
    80   203   204    1
    81   201   202    2
    82    84    85    1
    83   134   129   am
    84   125   124   ar
    85   205   204    1
    86   205   206    2
    87    16    15    2
    88   126   124   ar
    89    78    76    1
    90    23    24    1
    91    23    22    1
    92    24    25    2
    93   204   207    1
    94   207   208    1
    95   124   123    1
    96    63    61   ar
    97   130   129    2
    98    46    45    1
    99   129   128    1
   100    85    86    1
   101    62    61   ar
   102    15    22   am
   103    15    14    1
   104    61    60    1
   105   209   208    1
   106   208   210    1
   107   123   122    1
   108   121   120    2
   109    76    77    1
   110    76    75    1
   111   122   119    1
   112     4     3    2
   113    74    73    2
   114   128   127    1
   115   128   131    1
   116    45    44    1
   117    72    75    1
   118    72    73    1
   119    72    71    1
   120   120   127   am
   121   120   119    1
   122    60    59    1
   123    14    13    1
   124    14    17    1
   125    13    11   am
   126    17    18    1
   127    87    88    1
   128    10    11    1
   129    10     9    1
   130   133   131    1
   131     3     9   am
   132     3     2    1
   133    11    12    2
   134     8     6    1
   135   119   118    1
   136    19    18    1
   137    19    20    1
   138     5     6    1
   139     5     2    1
   140    44    43    1
   141    32    30    1
   142    21    20    1
   143   131   132    1
   144     7     6    1
   145   118   116   am
   146     2     1    1
   147    59    56    1
   148    58    57    2
   149    91    88    1
   150    91    92    1
   151    88    89    1
   152    30    31    1
   153    30    27    1
   154    37    34    1
   155    56    57    1
   156    56    55    1
   157   116   115    1
   158   116   117    2
   159    57    64   am
   160    43    42    1
   161   115   114    1
   162    90    89    2
   163    42    39    1
   164    94    92    1
   165    92    93    1
   166    26    27    1
   167    27    28    1
   168    34    33    1
   169    34    35    1
   170    29    28    2
   171    36    35    2
   172   112   111    1
   173    64    65    1
   174    67    66    2
   175    65    66    1
   176    65    68    1
   177    39    38    1
   178    39    40    1
   179   110   111    1
   180   110   107    1
   181    53    52    1
   182   111   113    1
   183   109   108    2
   184    50    49    2
   185    48    47    1
   186    48    49    1
   187    48    51    1
   188    70    68    1
   189    40    41    2
   190    68    69    1
   191   108   107    1
   192   107   106    1
   193    51    52    1
   194    52    54    1
   195   101   103   ar
   196   101   100   ar
   197   103   105   ar
   198    99   100    1
   199    99    96    1
   200   100   102   ar
   201   105   104   ar
   202    95    96    1
   203    96    97    1
   204   102   104   ar
   205    97    98    2
