@<TRIPOS>MOLECULE
tmp/4jbwA00.pdb
 121 121 0 0 0
SMALL
GASTEIGER

@<TRIPOS>ATOM
      1  N        -49.4000   -1.2060  -39.6120 N.3   284  VAL284     -0.1245
      2  CA       -49.1080   -1.2640  -38.1840 C.3   284  VAL284      0.1561
      3  C        -47.6640   -1.6940  -37.9500 C.2   284  VAL284      0.2260
      4  O        -46.9570   -1.1040  -37.1330 O.2   284  VAL284     -0.2867
      5  CB       -50.0700   -2.2210  -37.4460 C.3   284  VAL284      0.0252
      6  CG1      -49.5300   -2.5700  -36.0660 C.3   284  VAL284      0.0019
      7  CG2      -51.4560   -1.6010  -37.3400 C.3   284  VAL284      0.0019
      8  N        -44.8830    1.1070  -39.1090 N.3   287  CYS287     -0.1221
      9  CA       -44.6420    2.1730  -38.1450 C.3   287  CYS287      0.1808
     10  C        -43.7800    1.6780  -36.9900 C.2   287  CYS287      0.2601
     11  O        -42.9190    2.4020  -36.4910 O.2   287  CYS287     -0.2717
     12  CB       -45.9660    2.7250  -37.6170 C.3   287  CYS287      0.0970
     13  SG       -47.0450    3.4090  -38.8960 S.3   287  CYS287     -0.0800
     14  N        -44.0220    0.4420  -36.5670 N.am  288  LEU288     -0.1979
     15  CA       -43.2900   -0.1490  -35.4520 C.3   288  LEU288      0.1596
     16  C        -41.8330   -0.4400  -35.8020 C.2   288  LEU288      0.2287
     17  O        -40.9530   -0.3420  -34.9470 O.2   288  LEU288     -0.2864
     18  CB       -43.9780   -1.4320  -34.9810 C.3   288  LEU288      0.0297
     19  CG       -45.3560   -1.2640  -34.3390 C.3   288  LEU288      0.0022
     20  CD1      -45.9750   -2.6190  -34.0330 C.3   288  LEU288      0.0001
     21  CD2      -45.2580   -0.4190  -33.0820 C.3   288  LEU288      0.0001
     22  N        -39.7330    1.1620  -38.0090 N.3   290  GLN290     -0.1231
     23  CA       -38.8860    2.3480  -38.0590 C.3   290  GLN290      0.1698
     24  C        -39.1940    3.3200  -36.9230 C.2   290  GLN290      0.2592
     25  O        -38.8570    4.5030  -36.9940 O.2   290  GLN290     -0.2718
     26  CB       -39.0040    3.0500  -39.4160 C.3   290  GLN290      0.0381
     27  CG       -40.3620    3.6710  -39.6950 C.3   290  GLN290      0.0905
     28  CD       -40.3640    4.5100  -40.9580 C.2   290  GLN290      0.2608
     29  OE1      -39.7350    4.1560  -41.9560 O.2   290  GLN290     -0.2717
     30  NE2      -41.0680    5.6350  -40.9190 N.am  290  GLN290     -0.0878
     31  N        -39.8360    2.8120  -35.8770 N.am  291  TRP291     -0.1962
     32  CA       -40.0860    3.6000  -34.6780 C.3   291  TRP291      0.1771
     33  C        -38.7620    3.8740  -33.9740 C.2   291  TRP291      0.2619
     34  O        -38.0100    2.9460  -33.6760 O.2   291  TRP291     -0.2715
     35  CB       -41.0370    2.8550  -33.7380 C.3   291  TRP291      0.0590
     36  CG       -41.3690    3.6150  -32.4880 C.ar  291  TRP291      0.0006
     37  CD1      -41.3470    4.9700  -32.3200 C.ar  291  TRP291      0.0946
     38  CD2      -41.7710    3.0620  -31.2280 C.ar  291  TRP291      0.0152
     39  NE1      -41.7110    5.2940  -31.0360 N.ar  291  TRP291     -0.2442
     40  CE2      -41.9760    4.1410  -30.3440 C.ar  291  TRP291      0.0810
     41  CE3      -41.9770    1.7610  -30.7610 C.ar  291  TRP291      0.0012
     42  CZ2      -42.3770    3.9590  -29.0230 C.ar  291  TRP291      0.0191
     43  CZ3      -42.3750    1.5820  -29.4480 C.ar  291  TRP291      0.0001
     44  CH2      -42.5690    2.6740  -28.5940 C.ar  291  TRP291      0.0015
     45  N        -38.4780    5.1520  -33.7330 N.am  292  GLU292     -0.1977
     46  CA       -37.2460    5.5820  -33.0700 C.3   292  GLU292      0.1602
     47  C        -36.9280    4.7960  -31.7970 C.2   292  GLU292      0.2287
     48  O        -35.7980    4.3500  -31.5970 O.2   292  GLU292     -0.2864
     49  CB       -37.3100    7.0800  -32.7550 C.3   292  GLU292      0.0415
     50  CG       -36.2390    7.5660  -31.7890 C.3   292  GLU292      0.1163
     51  CD       -34.8310    7.3000  -32.2870 C.2   292  GLU292      0.3649
     52  OE1      -34.6070    7.3730  -33.5140 O.co2 292  GLU292     -0.2457
     53  OE2      -33.9480    7.0170  -31.4500 O.co2 292  GLU292     -0.2457
     54  N        -40.5830   14.6120  -40.1370 N.3   380  ASP380     -0.1239
     55  CA       -40.5390   14.3250  -38.7090 C.3   380  ASP380      0.1674
     56  C        -41.1050   15.4790  -37.8890 C.2   380  ASP380      0.2266
     57  O        -41.4860   15.3000  -36.7320 O.2   380  ASP380     -0.2867
     58  CB       -39.1050   14.0300  -38.2670 C.3   380  ASP380      0.1410
     59  CG       -38.5030   12.8440  -38.9930 C.2   380  ASP380      0.3668
     60  OD1      -38.9620   12.5360  -40.1120 O.co2 380  ASP380     -0.2456
     61  OD2      -37.5710   12.2200  -38.4430 O.co2 380  ASP380     -0.2456
     62  N        -44.5490   14.9580  -36.2310 N.3   383  TYR383     -0.1241
     63  CA       -44.5160   14.1530  -35.0160 C.3   383  TYR383      0.1605
     64  C        -43.8270   14.9030  -33.8780 C.2   383  TYR383      0.2264
     65  O        -44.1180   14.6730  -32.7030 O.2   383  TYR383     -0.2867
     66  CB       -43.8260   12.8160  -35.2840 C.3   383  TYR383      0.0534
     67  CG       -44.5330   11.9830  -36.3300 C.ar  383  TYR383     -0.0201
     68  CD1      -43.8180   11.2810  -37.2910 C.ar  383  TYR383     -0.0009
     69  CD2      -45.9190   11.8930  -36.3500 C.ar  383  TYR383     -0.0009
     70  CE1      -44.4640   10.5170  -38.2480 C.ar  383  TYR383      0.0417
     71  CE2      -46.5730   11.1340  -37.3010 C.ar  383  TYR383      0.0417
     72  CZ       -45.8420   10.4480  -38.2470 C.ar  383  TYR383      0.1957
     73  OH       -46.4940    9.6910  -39.1940 O.3   383  TYR383     -0.2866
     74  N        -48.5660    8.2560  -28.4860 N.3   393  PRO393     -0.2102
     75  CA       -48.2170    7.4070  -29.6300 C.3   393  PRO393      0.1504
     76  C        -49.4390    6.9410  -30.4140 C.2   393  PRO393      0.2575
     77  O        -49.3950    6.8890  -31.6430 O.2   393  PRO393     -0.2718
     78  CB       -47.5390    6.2080  -28.9690 C.3   393  PRO393      0.0282
     79  CG       -46.9470    6.7650  -27.7280 C.3   393  PRO393      0.0208
     80  CD       -47.9360    7.7820  -27.2420 C.3   393  PRO393      0.0893
     81  N        -50.5120    6.6060  -29.7060 N.am  394  PHE394     -0.1977
     82  CA       -51.7410    6.1610  -30.3510 C.3   394  PHE394      0.1639
     83  C        -52.4710    7.3140  -31.0270 C.2   394  PHE394      0.2290
     84  O        -53.0660    7.1440  -32.0900 O.2   394  PHE394     -0.2864
     85  CB       -52.6580    5.4630  -29.3470 C.3   394  PHE394      0.0560
     86  CG       -52.3840    3.9950  -29.1990 C.ar  394  PHE394     -0.0200
     87  CD1      -51.3210    3.5480  -28.4330 C.ar  394  PHE394     -0.0042
     88  CD2      -53.1890    3.0620  -29.8300 C.ar  394  PHE394     -0.0042
     89  CE1      -51.0660    2.1960  -28.2990 C.ar  394  PHE394     -0.0003
     90  CE2      -52.9410    1.7100  -29.6990 C.ar  394  PHE394     -0.0003
     91  CZ       -51.8780    1.2760  -28.9330 C.ar  394  PHE394     -0.0000
     92  N        -51.1220    9.8780  -32.3510 N.3   396  ASN396     -0.1225
     93  CA       -50.3770   10.2450  -33.5500 C.3   396  ASN396      0.1785
     94  C        -50.7450    9.3840  -34.7540 C.2   396  ASN396      0.2597
     95  O        -50.9540    9.8960  -35.8520 O.2   396  ASN396     -0.2718
     96  CB       -48.8700   10.1640  -33.2950 C.3   396  ASN396      0.1169
     97  CG       -48.3640   11.2880  -32.4100 C.2   396  ASN396      0.2627
     98  OD1      -47.9370   12.3330  -32.8990 O.2   396  ASN396     -0.2716
     99  ND2      -48.4080   11.0760  -31.1010 N.am  396  ASN396     -0.0877
    100  N        -50.8320    8.0750  -34.5410 N.am  397  PHE397     -0.1962
    101  CA       -51.1110    7.1390  -35.6270 C.3   397  PHE397      0.1771
    102  C        -52.5200    7.2940  -36.1940 C.2   397  PHE397      0.2619
    103  O        -52.7670    6.9700  -37.3550 O.2   397  PHE397     -0.2715
    104  CB       -50.8890    5.6980  -35.1630 C.3   397  PHE397      0.0574
    105  CG       -51.1220    4.6730  -36.2370 C.ar  397  PHE397     -0.0200
    106  CD1      -52.2360    3.8500  -36.1980 C.ar  397  PHE397     -0.0042
    107  CD2      -50.2370    4.5440  -37.2950 C.ar  397  PHE397     -0.0042
    108  CE1      -52.4560    2.9080  -37.1860 C.ar  397  PHE397     -0.0003
    109  CE2      -50.4530    3.6050  -38.2870 C.ar  397  PHE397     -0.0003
    110  CZ       -51.5640    2.7860  -38.2320 C.ar  397  PHE397     -0.0000
    111  N        -53.4390    7.7920  -35.3760 N.am  398  PHE398     -0.1974
    112  CA       -54.8360    7.9020  -35.7820 C.3   398  PHE398      0.1639
    113  C        -55.2000    9.2840  -36.3160 C.2   398  PHE398      0.2290
    114  O        -56.1130    9.4170  -37.1300 O.2   398  PHE398     -0.2864
    115  CB       -55.7630    7.5290  -34.6240 C.3   398  PHE398      0.0560
    116  CG       -56.0860    6.0640  -34.5550 C.ar  398  PHE398     -0.0200
    117  CD1      -57.3700    5.6380  -34.2580 C.ar  398  PHE398     -0.0042
    118  CD2      -55.1100    5.1140  -34.8030 C.ar  398  PHE398     -0.0042
    119  CE1      -57.6710    4.2910  -34.1970 C.ar  398  PHE398     -0.0003
    120  CE2      -55.4030    3.7660  -34.7460 C.ar  398  PHE398     -0.0003
    121  CZ       -56.6860    3.3530  -34.4420 C.ar  398  PHE398     -0.0000
@<TRIPOS>BOND
     1    29    28    2
     2    28    30   am
     3    28    27    1
     4    54    55    1
     5    60    59   ar
     6    27    26    1
     7     1     2    1
     8    26    23    1
     9    73    72    1
    10     8     9    1
    11    59    61   ar
    12    59    58    1
    13    13    12    1
    14    55    58    1
    15    55    56    1
    16   109   110   ar
    17   109   107   ar
    18    70    72   ar
    19    70    68   ar
    20    72    71   ar
    21   110   108   ar
    22     2     3    1
    23     2     5    1
    24     9    12    1
    25     9    10    1
    26    23    22    1
    27    23    24    1
    28     3     4    2
    29    56    57    2
    30     5     7    1
    31     5     6    1
    32   103   102    2
    33    71    69   ar
    34   107   105   ar
    35    68    67   ar
    36   108   106   ar
    37   114   113    2
    38    25    24    2
    39    10    14   am
    40    10    11    2
    41    24    31   am
    42    14    15    1
    43    69    67   ar
    44    67    66    1
    45   113   112    1
    46   105   106   ar
    47   105   104    1
    48    62    63    1
    49   102   101    1
    50   102   111   am
    51    31    32    1
    52    95    94    2
    53    16    15    1
    54    16    17    2
    55   112   111    1
    56   112   115    1
    57   101   104    1
    58   101   100    1
    59    15    18    1
    60    66    63    1
    61    63    64    1
    62    18    19    1
    63   118   120   ar
    64   118   116   ar
    65    94   100   am
    66    94    93    1
    67   120   121   ar
    68    32    33    1
    69    32    35    1
    70   115   116    1
    71   116   117   ar
    72   121   119   ar
    73    19    20    1
    74    19    21    1
    75   117   119   ar
    76    33    45   am
    77    33    34    2
    78    64    65    2
    79    35    36    1
    80    45    46    1
    81    93    96    1
    82    93    92    1
    83    52    51   ar
    84    96    97    1
    85    46    49    1
    86    46    47    1
    87    98    97    2
    88    49    50    1
    89    36    37   ar
    90    36    38   ar
    91    97    99   am
    92    37    39   ar
    93    51    50    1
    94    51    53   ar
    95    84    83    2
    96    47    48    2
    97    77    76    2
    98    38    41   ar
    99    38    40   ar
   100    39    40   ar
   101    83    82    1
   102    41    43   ar
   103    76    81   am
   104    76    75    1
   105    82    81    1
   106    82    85    1
   107    40    42   ar
   108    88    90   ar
   109    88    86   ar
   110    90    91   ar
   111    75    78    1
   112    75    74    1
   113    43    44   ar
   114    85    86    1
   115    86    87   ar
   116    42    44   ar
   117    78    79    1
   118    91    89   ar
   119    74    80    1
   120    87    89   ar
   121    79    80    1
