@<TRIPOS>MOLECULE
tmp/4jc1A00.pdb
 98 91 0 0 0
SMALL
GASTEIGER

@<TRIPOS>ATOM
      1  N         12.1660  -12.3560    7.5640 N.3    32  ARG32      -0.1245
      2  CA        12.5850  -11.0160    7.1250 C.3    32  ARG32       0.1563
      3  C         11.4950   -9.9790    7.2990 C.2    32  ARG32       0.2260
      4  O         10.3050  -10.3060    7.3190 O.2    32  ARG32      -0.2867
      5  CB        12.9990  -11.0550    5.6670 C.3    32  ARG32       0.0307
      6  CG        11.8140  -11.2840    4.7420 C.3    32  ARG32       0.0489
      7  CD        12.2290  -11.5420    3.3160 C.3    32  ARG32       0.2205
      8  NE        12.8600  -10.3840    2.6860 N.pl3  32  ARG32      -0.0865
      9  CZ        12.2210   -9.3630    2.1150 C.cat  32  ARG32       0.5346
     10  NH1       10.8880   -9.2970    2.1040 N.pl3  32  ARG32       0.1354
     11  NH2       12.9270   -8.3840    1.5570 N.pl3  32  ARG32       0.1354
     12  N         16.6070    0.9370    1.7820 N.3    46  HIS46      -0.1241
     13  CA        16.1210   -0.4130    2.0740 C.3    46  HIS46       0.1621
     14  C         16.5560   -0.7340    3.4710 C.2    46  HIS46       0.2264
     15  O         17.7550   -0.7310    3.7540 O.2    46  HIS46      -0.2867
     16  CB        16.7680   -1.3390    1.0310 C.3    46  HIS46       0.0745
     17  CG        16.5130   -2.8200    1.1990 C.ar   46  HIS46       0.0817
     18  ND1       15.3140   -3.4090    0.9220 N.ar   46  HIS46      -0.2268
     19  CD2       17.3920   -3.8550    1.4950 C.ar   46  HIS46       0.1154
     20  CE1       15.4310   -4.7460    1.0900 C.ar   46  HIS46       0.1986
     21  NE2       16.6980   -5.0180    1.4190 N.ar   46  HIS46      -0.2212
     22  N         16.2670   -3.6740    6.1960 N.3    48  ASN48      -0.1240
     23  CA        15.9760   -5.1050    6.0380 C.3    48  ASN48       0.1653
     24  C         16.4830   -5.9570    7.1990 C.2    48  ASN48       0.2266
     25  O         17.5660   -6.5450    7.1340 O.2    48  ASN48      -0.2867
     26  CB        16.5600   -5.5460    4.6880 C.3    48  ASN48       0.1155
     27  CG        16.4060   -7.0270    4.3660 C.2    48  ASN48       0.2627
     28  OD1       17.2640   -7.5740    3.6800 O.2    48  ASN48      -0.2716
     29  ND2       15.3290   -7.6740    4.8290 N.am   48  ASN48      -0.0877
     30  N         16.9090   -9.2380    9.0460 N.3    50  ARG50      -0.1245
     31  CA        16.9950  -10.6340    8.6850 C.3    50  ARG50       0.1563
     32  C         17.1340  -11.4620    9.9490 C.2    50  ARG50       0.2260
     33  O         18.0540  -11.2520   10.7420 O.2    50  ARG50      -0.2867
     34  CB        18.2090  -10.8730    7.7800 C.3    50  ARG50       0.0307
     35  CG        18.1380  -10.1020    6.4820 C.3    50  ARG50       0.0489
     36  CD        19.3200  -10.3700    5.5810 C.3    50  ARG50       0.2205
     37  NE        19.2320   -9.5370    4.3910 N.pl3  50  ARG50      -0.0865
     38  CZ        20.1340   -9.5150    3.4210 C.cat  50  ARG50       0.5346
     39  NH1       21.2130  -10.2710    3.5040 N.pl3  50  ARG50       0.1354
     40  NH2       19.9620   -8.7090    2.3790 N.pl3  50  ARG50       0.1354
     41  N         20.3300  -15.0710    9.0190 N.3    53  GLU53      -0.1245
     42  CA        21.3690  -15.0310    8.0170 C.3    53  GLU53       0.1567
     43  C         22.5550  -15.7670    8.6110 C.2    53  GLU53       0.2260
     44  O         23.2360  -15.2480    9.5040 O.2    53  GLU53      -0.2867
     45  CB        21.7380  -13.6140    7.6430 C.3    53  GLU53       0.0388
     46  CG        22.6760  -13.5960    6.4560 C.3    53  GLU53       0.1160
     47  CD        23.3040  -12.2540    6.2460 C.2    53  GLU53       0.3649
     48  OE1       24.0310  -11.7820    7.1440 O.co2  53  GLU53      -0.2457
     49  OE2       23.0610  -11.6710    5.1860 O.co2  53  GLU53      -0.2457
     50  N         20.2430   -5.2240    7.5620 N.3    60  VAL60      -0.1245
     51  CA        20.9510   -4.7990    6.3670 C.3    60  VAL60       0.1561
     52  C         20.2490   -3.5500    5.8380 C.2    60  VAL60       0.2260
     53  O         19.0260   -3.5160    5.6830 O.2    60  VAL60      -0.2867
     54  CB        20.9560   -5.9010    5.2930 C.3    60  VAL60       0.0252
     55  CG1       21.5810   -5.4040    3.9900 C.3    60  VAL60       0.0019
     56  CG2       21.6950   -7.1290    5.8280 C.3    60  VAL60       0.0019
     57  N         20.6300   -0.6630    2.5490 N.3    62  ASN62      -0.1240
     58  CA        21.2560   -0.4460    1.2520 C.3    62  ASN62       0.1653
     59  C         20.3780    0.4470    0.3750 C.2    62  ASN62       0.2266
     60  O         19.2570    0.8360    0.7720 O.2    62  ASN62      -0.2867
     61  CB        21.5190   -1.8140    0.5660 C.3    62  ASN62       0.1155
     62  CG        22.6970   -1.8100   -0.3930 C.2    62  ASN62       0.2627
     63  OD1       23.2150   -0.7560   -0.7780 O.2    62  ASN62      -0.2716
     64  ND2       23.1330   -3.0150   -0.7940 N.am   62  ASN62      -0.0877
     65  N         22.2200   -3.1510   -6.4990 N.3    69  TRP69      -0.1241
     66  CA        22.4410   -2.8430   -5.0830 C.3    69  TRP69       0.1605
     67  C         23.8330   -2.2930   -4.8500 C.2    69  TRP69       0.2264
     68  O         24.8040   -2.7140   -5.5000 O.2    69  TRP69      -0.2867
     69  CB        22.2360   -4.0930   -4.2380 C.3    69  TRP69       0.0550
     70  CG        20.7970   -4.5060   -4.1650 C.ar   69  TRP69       0.0003
     71  CD1       20.1690   -5.5880   -4.7840 C.ar   69  TRP69       0.0946
     72  CD2       19.7500   -3.8410   -3.3960 C.ar   69  TRP69       0.0152
     73  NE1       18.8350   -5.6250   -4.4510 N.ar   69  TRP69      -0.2442
     74  CE2       18.5250   -4.5970   -3.6190 C.ar   69  TRP69       0.0810
     75  CE3       19.7140   -2.7240   -2.5610 C.ar   69  TRP69       0.0012
     76  CZ2       17.3250   -4.2310   -3.0300 C.ar   69  TRP69       0.0191
     77  CZ3       18.5000   -2.3700   -1.9710 C.ar   69  TRP69       0.0001
     78  CH2       17.3320   -3.1060   -2.2130 C.ar   69  TRP69       0.0015
     79  N         26.4060   -2.5500    1.2600 N.3    72  GLU72      -0.1245
     80  CA        25.5540   -2.7640    2.4230 C.3    72  GLU72       0.1567
     81  C         26.1410   -2.1220    3.6690 C.2    72  GLU72       0.2260
     82  O         27.3560   -2.1270    3.8780 O.2    72  GLU72      -0.2867
     83  CB        25.3750   -4.2550    2.6860 C.3    72  GLU72       0.0388
     84  CG        24.5660   -4.9690    1.6390 C.3    72  GLU72       0.1160
     85  CD        24.3890   -6.4560    1.9270 C.2    72  GLU72       0.3649
     86  OE1       25.1670   -7.0380    2.7260 O.co2  72  GLU72      -0.2457
     87  OE2       23.4780   -7.0590    1.3180 O.co2  72  GLU72      -0.2457
     88  N         25.5770   -2.7490    7.7060 N.3    74  ARG74      -0.1245
     89  CA        25.0040   -3.7610    8.5780 C.3    74  ARG74       0.1563
     90  C         25.0700   -3.3360   10.0350 C.2    74  ARG74       0.2260
     91  O         26.0410   -2.7280   10.4650 O.2    74  ARG74      -0.2867
     92  CB        25.7410   -5.0890    8.3890 C.3    74  ARG74       0.0307
     93  CG        25.3970   -5.7550    7.0820 C.3    74  ARG74       0.0489
     94  CD        26.3250   -6.8680    6.6810 C.3    74  ARG74       0.2205
     95  NE        25.7180   -7.6010    5.5720 N.pl3  74  ARG74      -0.0865
     96  CZ        25.1550   -8.8020    5.6670 C.cat  74  ARG74       0.5346
     97  NH1       25.1470   -9.4570    6.8200 N.pl3  74  ARG74       0.1354
     98  NH2       24.6070   -9.3590    4.5910 N.pl3  74  ARG74       0.1354
@<TRIPOS>BOND
     1    65    66    1
     2    68    67    2
     3    66    67    1
     4    66    69    1
     5    71    73   ar
     6    71    70   ar
     7    73    74   ar
     8    69    70    1
     9    70    72   ar
    10    74    72   ar
    11    74    76   ar
    12    72    75   ar
    13    76    78   ar
    14    75    77   ar
    15    78    77   ar
    16    64    62   am
    17    63    62    2
    18    62    61    1
    19    59    60    2
    20    59    58    1
    21    61    58    1
    22    18    20   ar
    23    18    17   ar
    24    16    17    1
    25    16    13    1
    26    20    21   ar
    27    17    19   ar
    28    58    57    1
    29    79    80    1
    30    87    85   ar
    31    21    19   ar
    32    11     9    1
    33    84    85    1
    34    84    83    1
    35    12    13    1
    36    85    86   ar
    37    13    14    1
    38    10     9    1
    39     9     8    2
    40    40    38    1
    41    80    83    1
    42    80    81    1
    43     8     7    1
    44     7     6    1
    45    38    39    1
    46    38    37    2
    47    14    15    2
    48    81    82    2
    49    28    27    2
    50    55    54    1
    51    27    26    1
    52    27    29   am
    53    37    36    1
    54    98    96    1
    55    26    23    1
    56     6     5    1
    57    49    47   ar
    58    54    56    1
    59    54    51    1
    60    95    96    2
    61    95    94    1
    62    36    35    1
    63     5     2    1
    64    96    97    1
    65    53    52    2
    66    52    51    1
    67    23    22    1
    68    23    24    1
    69    47    46    1
    70    47    48   ar
    71    51    50    1
    72    46    45    1
    73    35    34    1
    74    94    93    1
    75    93    92    1
    76     2     3    1
    77     2     1    1
    78    25    24    2
    79     3     4    2
    80    45    42    1
    81    88    89    1
    82    34    31    1
    83    42    43    1
    84    42    41    1
    85    92    89    1
    86    89    90    1
    87    43    44    2
    88    31    30    1
    89    31    32    1
    90    32    33    2
    91    90    91    2
