@<TRIPOS>MOLECULE
tmp/4jc5A00.pdb
 84 82 0 0 0
SMALL
GASTEIGER

@<TRIPOS>ATOM
      1  N        -46.8320    3.2240   13.0360 N.3     8  LEU8       -0.1245
      2  CA       -46.0670    2.1130   13.5740 C.3     8  LEU8        0.1561
      3  C        -45.8960    1.0150   12.5360 C.2     8  LEU8        0.2260
      4  O        -44.7950    0.5140   12.3360 O.2     8  LEU8       -0.2867
      5  CB       -46.7240    1.5670   14.8420 C.3     8  LEU8        0.0270
      6  CG       -46.6310    2.4730   16.0660 C.3     8  LEU8        0.0019
      7  CD1      -47.3710    1.8460   17.2330 C.3     8  LEU8        0.0001
      8  CD2      -45.1800    2.7530   16.4240 C.3     8  LEU8        0.0001
      9  N        -43.5660    2.3520    9.6410 N.3    11  SER11      -0.1202
     10  CA       -42.2200    2.5490   10.1320 C.3    11  SER11       0.2020
     11  C        -41.5200    1.2160   10.3390 C.2    11  SER11       0.2618
     12  O        -40.3650    1.0600    9.9760 O.2    11  SER11      -0.2717
     13  CB       -42.2510    3.3590   11.4210 C.3    11  SER11       0.2103
     14  OG       -41.4170    2.7710   12.3760 O.3    11  SER11      -0.2182
     15  N        -42.2370    0.2500   10.8980 N.am   12  TYR12      -0.1975
     16  CA       -41.6750   -1.0630   11.1580 C.3    12  TYR12       0.1639
     17  C        -41.3220   -1.7590    9.8480 C.2    12  TYR12       0.2290
     18  O        -40.3210   -2.4620    9.7530 O.2    12  TYR12      -0.2864
     19  CB       -42.6760   -1.8960   11.9560 C.3    12  TYR12       0.0560
     20  CG       -42.1470   -3.2200   12.4580 C.ar   12  TYR12      -0.0198
     21  CD1      -41.0110   -3.2830   13.2510 C.ar   12  TYR12      -0.0009
     22  CD2      -42.8050   -4.4070   12.1650 C.ar   12  TYR12      -0.0009
     23  CE1      -40.5370   -4.4960   13.7240 C.ar   12  TYR12       0.0417
     24  CE2      -42.3370   -5.6220   12.6330 C.ar   12  TYR12       0.0417
     25  CZ       -41.2060   -5.6610   13.4120 C.ar   12  TYR12       0.1957
     26  OH       -40.7390   -6.8670   13.8820 O.3    12  TYR12      -0.2866
     27  N        -38.6430    0.5030    8.2650 N.3    15  GLY15      -0.1210
     28  CA       -37.5630    0.6580    9.2210 C.3    15  GLY15       0.1956
     29  C        -36.9060   -0.6220    9.6750 C.2    15  GLY15       0.2611
     30  O        -35.7890   -0.5800   10.1860 O.2    15  GLY15      -0.2717
     31  N        -37.5890   -1.7510    9.4970 N.am   16  TYR16      -0.1976
     32  CA       -37.0040   -3.0350    9.8600 C.3    16  TYR16       0.1639
     33  C        -37.1750   -4.1440    8.8150 C.2    16  TYR16       0.2290
     34  O        -36.1900   -4.7250    8.3610 O.2    16  TYR16      -0.2864
     35  CB       -37.5010   -3.5210   11.2200 C.3    16  TYR16       0.0560
     36  CG       -36.8580   -4.8330   11.5770 C.ar   16  TYR16      -0.0198
     37  CD1      -35.4790   -4.9300   11.6700 C.ar   16  TYR16      -0.0009
     38  CD2      -37.6140   -5.9790   11.7890 C.ar   16  TYR16      -0.0009
     39  CE1      -34.8670   -6.1170   11.9830 C.ar   16  TYR16       0.0417
     40  CE2      -37.0080   -7.1800   12.1010 C.ar   16  TYR16       0.0417
     41  CZ       -35.6340   -7.2430   12.1920 C.ar   16  TYR16       0.1957
     42  OH       -35.0220   -8.4360   12.5060 O.3    16  TYR16      -0.2866
     43  N        -27.3400   -7.0000   11.9820 N.3    89  TYR89      -0.1241
     44  CA       -28.5980   -7.5450   12.4910 C.3    89  TYR89       0.1605
     45  C        -28.4860   -9.0490   12.7270 C.2    89  TYR89       0.2264
     46  O        -27.5850   -9.7000   12.1950 O.2    89  TYR89      -0.2867
     47  CB       -29.7240   -7.2770   11.4900 C.3    89  TYR89       0.0534
     48  CG       -30.2960   -5.8760   11.5400 C.ar   89  TYR89      -0.0201
     49  CD1      -31.3800   -5.5770   12.3550 C.ar   89  TYR89      -0.0009
     50  CD2      -29.7610   -4.8610   10.7610 C.ar   89  TYR89      -0.0009
     51  CE1      -31.9100   -4.3010   12.4040 C.ar   89  TYR89       0.0417
     52  CE2      -30.2790   -3.5830   10.7980 C.ar   89  TYR89       0.0417
     53  CZ       -31.3520   -3.3080   11.6210 C.ar   89  TYR89       0.1957
     54  OH       -31.8440   -2.0260   11.6410 O.3    89  TYR89      -0.2866
     55  N        -41.2500   -5.7740   17.6350 N.3   112  THR112     -0.1204
     56  CA       -40.7560   -4.7080   18.5100 C.3   112  THR112      0.1979
     57  C        -41.6800   -3.5020   18.7940 C.2   112  THR112      0.2459
     58  O        -41.6110   -2.9350   19.8890 O.2   112  THR112     -0.2732
     59  CB       -39.3990   -4.1620   18.0510 C.3   112  THR112      0.1783
     60  OG1      -39.4980   -3.7260   16.6940 O.3   112  THR112     -0.2211
     61  CG2      -38.3150   -5.2200   18.1800 C.3   112  THR112      0.0376
     62  N        -42.5270   -3.0880   17.8290 N.am  113  PRO113     -0.2728
     63  CA       -43.3800   -1.9340   18.1390 C.3   113  PRO113      0.1401
     64  C        -44.3080   -2.1180   19.3400 C.2   113  PRO113      0.2269
     65  O        -44.8520   -1.1380   19.8470 O.2   113  PRO113     -0.2865
     66  CB       -44.1970   -1.7590   16.8600 C.3   113  PRO113      0.0296
     67  CG       -43.3100   -2.2680   15.8050 C.3   113  PRO113      0.0237
     68  CD       -42.6220   -3.4420   16.4010 C.3   113  PRO113      0.0939
     69  N        -43.3750   -2.9480   22.3410 N.3   115  GLN115     -0.1231
     70  CA       -42.6830   -2.2310   23.3990 C.3   115  GLN115      0.1698
     71  C        -43.0650   -0.7610   23.3890 C.2   115  GLN115      0.2592
     72  O        -43.3860   -0.1750   24.4310 O.2   115  GLN115     -0.2718
     73  CB       -41.1830   -2.3760   23.2020 C.3   115  GLN115      0.0381
     74  CG       -40.7560   -3.8110   23.0830 C.3   115  GLN115      0.0905
     75  CD       -39.2620   -3.9630   23.0360 C.2   115  GLN115      0.2608
     76  OE1      -38.7430   -4.8670   22.3890 O.2   115  GLN115     -0.2717
     77  NE2      -38.5570   -3.0820   23.7250 N.am  115  GLN115     -0.0878
     78  N        -43.0460   -0.1750   22.2000 N.am  116  THR116     -0.1953
     79  CA       -43.3600    1.2360   22.0490 C.3   116  THR116      0.1897
     80  C        -44.8170    1.5310   22.3700 C.2   116  THR116      0.2313
     81  O        -45.1170    2.4640   23.1230 O.2   116  THR116     -0.2863
     82  CB       -43.0310    1.7330   20.6300 C.3   116  THR116      0.1794
     83  OG1      -41.6100    1.7270   20.4390 O.3   116  THR116     -0.2208
     84  CG2      -43.5550    3.1430   20.4230 C.3   116  THR116      0.0378
@<TRIPOS>BOND
     1    27    28    1
     2    34    33    2
     3    33    32    1
     4    28    29    1
     5    31    29   am
     6    31    32    1
     7     9    10    1
     8    29    30    2
     9    18    17    2
    10    17    16    1
    11    32    35    1
    12    12    11    2
    13    10    11    1
    14    10    13    1
    15    11    15   am
    16    50    52   ar
    17    50    48   ar
    18    52    53   ar
    19    15    16    1
    20    16    19    1
    21    35    36    1
    22    13    14    1
    23    47    48    1
    24    47    44    1
    25    48    49   ar
    26    36    37   ar
    27    36    38   ar
    28    53    54    1
    29    53    51   ar
    30    37    39   ar
    31    38    40   ar
    32    19    20    1
    33    43    44    1
    34    39    41   ar
    35    40    41   ar
    36    22    20   ar
    37    22    24   ar
    38    41    42    1
    39    46    45    2
    40     4     3    2
    41    49    51   ar
    42    20    21   ar
    43    44    45    1
    44     3     2    1
    45    24    25   ar
    46     1     2    1
    47    21    23   ar
    48    25    23   ar
    49    25    26    1
    50     2     5    1
    51     5     6    1
    52    67    68    1
    53    67    66    1
    54     6     8    1
    55     6     7    1
    56    68    62    1
    57    60    59    1
    58    66    63    1
    59    55    56    1
    60    62    63    1
    61    62    57   am
    62    59    61    1
    63    59    56    1
    64    63    64    1
    65    56    57    1
    66    57    58    2
    67    64    65    2
    68    84    82    1
    69    83    82    1
    70    82    79    1
    71    79    78    1
    72    79    80    1
    73    78    71   am
    74    69    70    1
    75    80    81    2
    76    76    75    2
    77    75    74    1
    78    75    77   am
    79    74    73    1
    80    73    70    1
    81    71    70    1
    82    71    72    2
