@<TRIPOS>MOLECULE
tmp/4jc5A01.pdb
 77 72 0 0 0
SMALL
GASTEIGER

@<TRIPOS>ATOM
      1  N        -43.5660    2.3520    9.6410 N.3    11  SER11      -0.1217
      2  CA       -42.2200    2.5490   10.1320 C.3    11  SER11       0.1889
      3  C        -41.5200    1.2160   10.3390 C.2    11  SER11       0.2288
      4  O        -40.3650    1.0600    9.9760 O.2    11  SER11      -0.2866
      5  CB       -42.2510    3.3590   11.4210 C.3    11  SER11       0.2089
      6  OG       -41.4170    2.7710   12.3760 O.3    11  SER11      -0.2183
      7  N        -40.7380   -0.2150    6.7250 N.3    14  ILE14      -0.1231
      8  CA       -39.6760    0.5310    6.0800 C.3    14  ILE14       0.1692
      9  C        -38.4280    0.4890    6.9520 C.2    14  ILE14       0.2592
     10  O        -37.3010    0.4240    6.4460 O.2    14  ILE14      -0.2718
     11  CB       -40.1030    1.9940    5.8410 C.3    14  ILE14       0.0266
     12  CG1      -41.3280    2.0480    4.9300 C.3    14  ILE14       0.0019
     13  CG2      -38.9610    2.8190    5.2610 C.3    14  ILE14       0.0020
     14  CD1      -41.0810    1.4990    3.5500 C.3    14  ILE14       0.0001
     15  N        -38.6430    0.5030    8.2650 N.am   15  GLY15      -0.1957
     16  CA       -37.5630    0.6580    9.2210 C.3    15  GLY15       0.1869
     17  C        -36.9060   -0.6220    9.6750 C.2    15  GLY15       0.2309
     18  O        -35.7890   -0.5800   10.1860 O.2    15  GLY15      -0.2863
     19  N        -38.0030   -4.0680    5.7390 N.3    18  ARG18      -0.1231
     20  CA       -37.3720   -3.7080    4.4810 C.3    18  ARG18       0.1694
     21  C        -35.8950   -4.0490    4.4800 C.2    18  ARG18       0.2591
     22  O        -35.3380   -4.4200    3.4480 O.2    18  ARG18      -0.2718
     23  CB       -37.5230   -2.2140    4.2280 C.3    18  ARG18       0.0321
     24  CG       -38.5250   -1.8560    3.1590 C.3    18  ARG18       0.0489
     25  CD       -38.1160   -0.5670    2.4720 C.3    18  ARG18       0.2205
     26  NE       -36.7160   -0.5950    2.0500 N.pl3  18  ARG18      -0.0865
     27  CZ       -35.7350    0.0570    2.6670 C.cat  18  ARG18       0.5346
     28  NH1      -34.4910   -0.0280    2.2160 N.pl3  18  ARG18       0.1354
     29  NH2      -35.9990    0.7960    3.7360 N.pl3  18  ARG18       0.1354
     30  N        -35.2610   -3.9080    5.6360 N.am   19  LEU19      -0.1980
     31  CA       -33.8290   -4.1190    5.7390 C.3    19  LEU19       0.1596
     32  C        -33.5260   -5.5950    5.9360 C.2    19  LEU19       0.2287
     33  O        -32.4490   -6.0680    5.5780 O.2    19  LEU19      -0.2864
     34  CB       -33.2660   -3.3310    6.9180 C.3    19  LEU19       0.0297
     35  CG       -33.7980   -1.9180    7.1260 C.3    19  LEU19       0.0022
     36  CD1      -33.2140   -1.3200    8.3960 C.3    19  LEU19       0.0001
     37  CD2      -33.4840   -1.0410    5.9220 C.3    19  LEU19       0.0001
     38  N        -29.1610    3.2760    2.9890 N.3    82  ALA82      -0.1231
     39  CA       -29.9430    4.4670    3.3120 C.3    82  ALA82       0.1694
     40  C        -29.4380    5.1660    4.5620 C.2    82  ALA82       0.2593
     41  O        -28.2480    5.4640    4.6830 O.2    82  ALA82      -0.2718
     42  CB       -31.4240    4.1190    3.4500 C.3    82  ALA82       0.0304
     43  N        -30.3540    5.4170    5.4900 N.am   83  GLY83      -0.1942
     44  CA       -30.0180    6.0620    6.7430 C.3    83  GLY83       0.2014
     45  C        -29.1000    5.2100    7.5920 C.2    83  GLY83       0.2638
     46  O        -28.2950    5.7260    8.3640 O.2    83  GLY83      -0.2714
     47  N        -29.2170    3.8980    7.4340 N.am   84  ILE84      -0.1977
     48  CA       -28.4250    2.9540    8.2090 C.3    84  ILE84       0.1596
     49  C        -27.0050    2.7870    7.6520 C.2    84  ILE84       0.2287
     50  O        -26.8160    2.3580    6.5120 O.2    84  ILE84      -0.2864
     51  CB       -29.1210    1.5900    8.2460 C.3    84  ILE84       0.0276
     52  CG1      -30.6370    1.7820    8.2270 C.3    84  ILE84       0.0022
     53  CG2      -28.7010    0.8210    9.4660 C.3    84  ILE84       0.0022
     54  CD1      -31.1960    2.3900    9.5020 C.3    84  ILE84       0.0001
     55  N        -24.7040   -1.3450   10.0630 N.3    87  ARG87      -0.1245
     56  CA       -25.3940   -1.9220   11.2090 C.3    87  ARG87       0.1563
     57  C        -25.4800   -3.4330   11.0150 C.2    87  ARG87       0.2260
     58  O        -25.7890   -3.9000    9.9220 O.2    87  ARG87      -0.2867
     59  CB       -26.7990   -1.3320   11.3230 C.3    87  ARG87       0.0307
     60  CG       -27.2190   -0.9280   12.7230 C.3    87  ARG87       0.0489
     61  CD       -28.6420   -0.4030   12.7670 C.3    87  ARG87       0.2205
     62  NE       -28.6900    1.0530   12.6770 N.pl3  87  ARG87      -0.0865
     63  CZ       -29.8060    1.7680   12.7700 C.cat  87  ARG87       0.5346
     64  NH1      -30.9700    1.1580   12.9520 N.pl3  87  ARG87       0.1354
     65  NH2      -29.7590    3.0910   12.6820 N.pl3  87  ARG87       0.1354
     66  N        -27.3400   -7.0000   11.9820 N.3    89  TYR89      -0.1241
     67  CA       -28.5980   -7.5450   12.4910 C.3    89  TYR89       0.1605
     68  C        -28.4860   -9.0490   12.7270 C.2    89  TYR89       0.2264
     69  O        -27.5850   -9.7000   12.1950 O.2    89  TYR89      -0.2867
     70  CB       -29.7240   -7.2770   11.4900 C.3    89  TYR89       0.0534
     71  CG       -30.2960   -5.8760   11.5400 C.ar   89  TYR89      -0.0201
     72  CD1      -31.3800   -5.5770   12.3550 C.ar   89  TYR89      -0.0009
     73  CD2      -29.7610   -4.8610   10.7610 C.ar   89  TYR89      -0.0009
     74  CE1      -31.9100   -4.3010   12.4040 C.ar   89  TYR89       0.0417
     75  CE2      -30.2790   -3.5830   10.7980 C.ar   89  TYR89       0.0417
     76  CZ       -31.3520   -3.3080   11.6210 C.ar   89  TYR89       0.1957
     77  OH       -31.8440   -2.0260   11.6410 O.3    89  TYR89      -0.2866
@<TRIPOS>BOND
     1    26    25    1
     2    26    27    2
     3    28    27    1
     4    25    24    1
     5    27    29    1
     6    38    39    1
     7    24    23    1
     8    39    42    1
     9    39    40    1
    10    22    21    2
    11    14    12    1
    12    23    20    1
    13    21    20    1
    14    21    30   am
    15    20    19    1
    16    40    41    2
    17    40    43   am
    18    12    11    1
    19    13    11    1
    20    43    44    1
    21    33    32    2
    22    30    31    1
    23    31    32    1
    24    31    34    1
    25    11     8    1
    26    37    35    1
    27     8     7    1
    28     8     9    1
    29    10     9    2
    30    50    49    2
    31    44    45    1
    32    34    35    1
    33     9    15   am
    34    35    36    1
    35    47    45   am
    36    47    48    1
    37    45    46    2
    38    49    48    1
    39    48    51    1
    40    52    51    1
    41    52    54    1
    42    51    53    1
    43    15    16    1
    44    16    17    1
    45     1     2    1
    46    17    18    2
    47    58    57    2
    48     4     3    2
    49    55    56    1
    50     2     3    1
    51     2     5    1
    52    73    75   ar
    53    73    71   ar
    54    75    76   ar
    55    57    56    1
    56    56    59    1
    57    59    60    1
    58     5     6    1
    59    70    71    1
    60    70    67    1
    61    71    72   ar
    62    76    77    1
    63    76    74   ar
    64    66    67    1
    65    69    68    2
    66    72    74   ar
    67    67    68    1
    68    62    61    1
    69    62    63    2
    70    65    63    1
    71    60    61    1
    72    63    64    1
