@<TRIPOS>MOLECULE
tmp/4jcaA00.pdb
 73 70 0 0 0
SMALL
GASTEIGER

@<TRIPOS>ATOM
      1  N         -9.3280    5.7250  -20.1610 N.3   109  THR109     -0.1203
      2  CA        -9.7780    6.7260  -21.1350 C.3   109  THR109      0.1994
      3  C        -11.3010    6.8500  -21.0530 C.2   109  THR109      0.2618
      4  O        -11.9270    6.2470  -20.1870 O.2   109  THR109     -0.2717
      5  CB        -9.4470    6.3620  -22.5910 C.3   109  THR109      0.1784
      6  OG1      -10.2740    5.2720  -23.0120 O.3   109  THR109     -0.2211
      7  CG2       -7.9750    6.0100  -22.7670 C.3   109  THR109      0.0376
      8  N        -11.9030    7.6210  -21.9570 N.am  110  SER110     -0.1951
      9  CA       -13.3660    7.7810  -21.9750 C.3   110  SER110      0.1924
     10  C        -14.1190    6.5750  -22.5590 C.2   110  SER110      0.2314
     11  O        -15.3580    6.5670  -22.5940 O.2   110  SER110     -0.2863
     12  CB       -13.7620    9.0250  -22.7670 C.3   110  SER110      0.2116
     13  OG       -13.6330    8.7740  -24.1540 O.3   110  SER110     -0.2180
     14  N        -14.7110    5.9960  -25.3560 N.3   112  GLY112     -0.1225
     15  CA       -15.5030    6.5020  -26.4560 C.3   112  GLY112      0.1811
     16  C        -15.4220    5.6560  -27.7110 C.2   112  GLY112      0.2280
     17  O        -16.4210    5.4600  -28.3990 O.2   112  GLY112     -0.2866
     18  N        -21.0220    7.0270  -19.0940 N.3   124  HIS124     -0.1241
     19  CA       -20.2130    7.7400  -18.1110 C.3   124  HIS124      0.1621
     20  C        -20.7870    7.4780  -16.7230 C.2   124  HIS124      0.2264
     21  O        -20.0480    7.2240  -15.7770 O.2   124  HIS124     -0.2867
     22  CB       -20.1730    9.2480  -18.4010 C.3   124  HIS124      0.0745
     23  CG       -19.5730    9.6020  -19.7310 C.ar  124  HIS124      0.0817
     24  ND1      -19.9100   10.7530  -20.4150 N.ar  124  HIS124     -0.2268
     25  CD2      -18.6540    8.9640  -20.4960 C.ar  124  HIS124      0.1154
     26  CE1      -19.2280   10.8040  -21.5460 C.ar  124  HIS124      0.1986
     27  NE2      -18.4610    9.7290  -21.6210 N.ar  124  HIS124     -0.2212
     28  N         -8.3490   10.1610  -18.2600 N.3   143  VAL143     -0.1231
     29  CA        -7.4840   10.9040  -19.1620 C.3   143  VAL143      0.1692
     30  C         -8.1940   11.1840  -20.4770 C.2   143  VAL143      0.2592
     31  O         -8.7370   10.2710  -21.0940 O.2   143  VAL143     -0.2718
     32  CB        -6.2170   10.1150  -19.4570 C.3   143  VAL143      0.0266
     33  CG1       -5.3140   10.8860  -20.4220 C.3   143  VAL143      0.0020
     34  CG2       -5.5100    9.7960  -18.1680 C.3   143  VAL143      0.0020
     35  N         -8.1690   12.4460  -20.9000 N.am  144  HIS144     -0.1962
     36  CA        -8.9100   12.9170  -22.0740 C.3   144  HIS144      0.1787
     37  C         -7.9930   13.6830  -23.0080 C.2   144  HIS144      0.2621
     38  O         -6.9960   14.2770  -22.5760 O.2   144  HIS144     -0.2715
     39  CB       -10.0620   13.8340  -21.6420 C.3   144  HIS144      0.0785
     40  CG       -10.8830   13.2740  -20.5260 C.ar  144  HIS144      0.0821
     41  ND1      -11.9240   12.3950  -20.7370 N.ar  144  HIS144     -0.2267
     42  CD2      -10.7970   13.4410  -19.1840 C.ar  144  HIS144      0.1154
     43  CE1      -12.4510   12.0550  -19.5740 C.ar  144  HIS144      0.1986
     44  NE2      -11.7850   12.6760  -18.6160 N.ar  144  HIS144     -0.2212
     45  N         -8.3370   13.6910  -24.2900 N.am  145  GLY145     -0.1940
     46  CA        -7.5150   14.3570  -25.2860 C.3   145  GLY145      0.2014
     47  C         -7.3590   15.8560  -25.1170 C.2   145  GLY145      0.2639
     48  O         -6.2560   16.3810  -25.2330 O.2   145  GLY145     -0.2714
     49  N         -8.4540   16.5590  -24.8500 N.am  146  THR146     -0.1950
     50  CA        -8.4050   18.0090  -24.7560 C.3   146  THR146      0.1897
     51  C         -8.7820   18.5260  -23.3840 C.2   146  THR146      0.2313
     52  O         -9.5380   17.9020  -22.6480 O.2   146  THR146     -0.2863
     53  CB        -9.3200   18.6720  -25.7900 C.3   146  THR146      0.1794
     54  OG1      -10.6530   18.1650  -25.6560 O.3   146  THR146     -0.2208
     55  CG2       -8.8180   18.3950  -27.1880 C.3   146  THR146      0.0378
     56  N        -12.5070   19.0920  -22.9420 N.3   149  SER149     -0.1217
     57  CA       -13.2180   17.8760  -22.5920 C.3   149  SER149      0.1889
     58  C        -13.0220   17.5090  -21.1130 C.2   149  SER149      0.2288
     59  O        -13.9840   17.2420  -20.3930 O.2   149  SER149     -0.2866
     60  CB       -12.7330   16.7430  -23.4900 C.3   149  SER149      0.2089
     61  OG       -13.3380   15.5090  -23.1740 O.3   149  SER149     -0.2183
     62  N        -15.6730   17.0910  -18.1350 N.3   153  TYR153     -0.1241
     63  CA       -15.8510   15.9250  -17.2630 C.3   153  TYR153      0.1605
     64  C        -15.7820   16.2940  -15.7830 C.2   153  TYR153      0.2264
     65  O        -16.5420   15.7700  -14.9700 O.2   153  TYR153     -0.2867
     66  CB       -14.8310   14.8270  -17.5750 C.3   153  TYR153      0.0534
     67  CG       -15.1970   13.9510  -18.7540 C.ar  153  TYR153     -0.0201
     68  CD1      -15.9070   12.7680  -18.5750 C.ar  153  TYR153     -0.0009
     69  CD2      -14.8370   14.3100  -20.0500 C.ar  153  TYR153     -0.0009
     70  CE1      -16.2470   11.9700  -19.6560 C.ar  153  TYR153      0.0417
     71  CE2      -15.1620   13.5140  -21.1360 C.ar  153  TYR153      0.0417
     72  CZ       -15.8670   12.3470  -20.9340 C.ar  153  TYR153      0.1957
     73  OH       -16.1890   11.5620  -22.0140 O.3   153  TYR153     -0.2866
@<TRIPOS>BOND
     1    17    16    2
     2    16    15    1
     3    55    53    1
     4    15    14    1
     5    53    54    1
     6    53    50    1
     7    46    47    1
     8    46    45    1
     9    48    47    2
    10    47    49   am
    11    49    50    1
    12    50    51    1
    13    45    37   am
    14    13    12    1
    15    60    61    1
    16    60    57    1
    17    51    52    2
    18     6     5    1
    19    37    38    2
    20    37    36    1
    21    56    57    1
    22    12     9    1
    23     7     5    1
    24    11    10    2
    25    57    58    1
    26     5     2    1
    27    10     9    1
    28    36    39    1
    29    36    35    1
    30    73    72    1
    31     9     8    1
    32     8     3   am
    33    39    40    1
    34    27    26   ar
    35    27    25   ar
    36    26    24   ar
    37    71    72   ar
    38    71    69   ar
    39     2     3    1
    40     2     1    1
    41    58    59    2
    42    31    30    2
    43     3     4    2
    44    72    70   ar
    45    35    30   am
    46    41    40   ar
    47    41    43   ar
    48    40    42   ar
    49    25    23   ar
    50    30    29    1
    51    33    32    1
    52    24    23   ar
    53    69    67   ar
    54    23    22    1
    55    70    68   ar
    56    43    44   ar
    57    32    29    1
    58    32    34    1
    59    42    44   ar
    60    29    28    1
    61    18    19    1
    62    67    68   ar
    63    67    66    1
    64    22    19    1
    65    62    63    1
    66    19    20    1
    67    66    63    1
    68    63    64    1
    69    20    21    2
    70    64    65    2
