@<TRIPOS>MOLECULE
tmp/4jcfA00.pdb
 113 108 0 0 0
SMALL
GASTEIGER

@<TRIPOS>ATOM
      1  N          2.5810    6.3540   29.0480 N.3    26  PRO26      -0.2102
      2  CA         1.6120    6.8900   28.0790 C.3    26  PRO26       0.1504
      3  C          0.2540    6.1910   28.0590 C.2    26  PRO26       0.2575
      4  O         -0.7250    6.7900   27.6130 O.2    26  PRO26      -0.2718
      5  CB         2.3310    6.7320   26.7410 C.3    26  PRO26       0.0282
      6  CG         3.3270    5.6480   26.9600 C.3    26  PRO26       0.0208
      7  CD         3.7350    5.7210   28.3970 C.3    26  PRO26       0.0893
      8  N          0.1820    4.9480   28.5310 N.am   27  ASP27      -0.1974
      9  CA        -1.1190    4.2780   28.7300 C.3    27  ASP27       0.1708
     10  C         -1.0660    3.2460   29.8650 C.2    27  ASP27       0.2293
     11  O         -0.0350    3.0940   30.5320 O.2    27  ASP27      -0.2864
     12  CB        -1.6460    3.6740   27.4090 C.3    27  ASP27       0.1436
     13  CG        -0.8980    2.4180   26.9670 C.2    27  ASP27       0.3671
     14  OD1       -0.3040    1.6970   27.7910 O.co2  27  ASP27      -0.2456
     15  OD2       -0.9280    2.1300   25.7620 O.co2  27  ASP27      -0.2456
     16  N          1.7920    0.6260   29.8580 N.3    30  LEU30      -0.1245
     17  CA         3.1430    1.0660   29.4780 C.3    30  LEU30       0.1561
     18  C          3.9480    1.7290   30.5990 C.2    30  LEU30       0.2260
     19  O          4.8130    2.5640   30.3560 O.2    30  LEU30      -0.2867
     20  CB         3.0680    1.9390   28.2220 C.3    30  LEU30       0.0270
     21  CG         2.7580    1.1190   26.9660 C.3    30  LEU30       0.0019
     22  CD1        2.5600    2.0210   25.7610 C.3    30  LEU30       0.0001
     23  CD2        3.8710    0.1340   26.6770 C.3    30  LEU30       0.0001
     24  N          7.7350    2.9940   30.4310 N.3    33  PHE33      -0.1241
     25  CA         8.0530    3.5230   29.1250 C.3    33  PHE33       0.1605
     26  C          7.5660    4.9640   29.0380 C.2    33  PHE33       0.2264
     27  O          6.6570    5.3630   29.7750 O.2    33  PHE33      -0.2867
     28  CB         7.3590    2.7340   28.0220 C.3    33  PHE33       0.0534
     29  CG         7.8010    1.3010   27.8990 C.ar   33  PHE33      -0.0203
     30  CD1        7.3680    0.3410   28.8110 C.ar   33  PHE33      -0.0042
     31  CD2        8.6030    0.8990   26.8450 C.ar   33  PHE33      -0.0042
     32  CE1        7.7460   -0.9780   28.6810 C.ar   33  PHE33      -0.0003
     33  CE2        8.9760   -0.4250   26.6990 C.ar   33  PHE33      -0.0003
     34  CZ         8.5550   -1.3690   27.6160 C.ar   33  PHE33      -0.0000
     35  N          5.8970    7.8300   26.2730 N.3    35  LYS35      -0.1231
     36  CA         5.3420    8.0540   24.9600 C.3    35  LYS35       0.1693
     37  C          6.4110    8.0220   23.8640 C.2    35  LYS35       0.2592
     38  O          7.5560    8.4660   24.0670 O.2    35  LYS35      -0.2718
     39  CB         4.7180    9.4380   24.9700 C.3    35  LYS35       0.0285
     40  CG         4.1540    9.9220   23.6500 C.3    35  LYS35       0.0035
     41  CD         2.7160    9.5480   23.4760 C.3    35  LYS35       0.0206
     42  CE         2.1300   10.3410   22.3250 C.3    35  LYS35       0.1093
     43  NZ         0.8900    9.6500   21.9010 N.3    35  LYS35      -0.1314
     44  N          6.0500    7.5010   22.6970 N.am   36  SER36      -0.1952
     45  CA         6.9530    7.5630   21.5520 C.3    36  SER36       0.1924
     46  C          7.4210    9.0060   21.3450 C.2    36  SER36       0.2314
     47  O          6.6570    9.9570   21.4940 O.2    36  SER36      -0.2863
     48  CB         6.3010    7.0150   20.2800 C.3    36  SER36       0.2116
     49  OG         5.1330    7.7310   19.9470 O.3    36  SER36      -0.2180
     50  N          7.8820   -7.2870   19.6580 N.3    91  ASN91      -0.1240
     51  CA         7.5100   -6.2730   18.6860 C.3    91  ASN91       0.1653
     52  C          8.5540   -5.1860   18.4640 C.2    91  ASN91       0.2266
     53  O          8.2190   -4.0070   18.3170 O.2    91  ASN91      -0.2867
     54  CB         6.1990   -5.6250   19.0930 C.3    91  ASN91       0.1155
     55  CG         5.5510   -4.9040   17.9400 C.2    91  ASN91       0.2627
     56  OD1        5.3380   -5.5080   16.8710 O.2    91  ASN91      -0.2716
     57  ND2        5.2890   -3.5920   18.1150 N.am   91  ASN91      -0.0877
     58  N         13.7020    2.0850   23.7070 N.3   230  PHE230     -0.1241
     59  CA        13.1690    0.9070   23.0110 C.3   230  PHE230      0.1605
     60  C         12.6070    1.3410   21.6520 C.2   230  PHE230      0.2264
     61  O         11.8210    2.3040   21.5800 O.2   230  PHE230     -0.2867
     62  CB        12.0580    0.2740   23.8240 C.3   230  PHE230      0.0534
     63  CG        11.3290   -0.8080   23.0930 C.ar  230  PHE230     -0.0203
     64  CD1       11.9660   -2.0010   22.8010 C.ar  230  PHE230     -0.0042
     65  CD2       10.0190   -0.6320   22.6920 C.ar  230  PHE230     -0.0042
     66  CE1       11.3170   -2.9940   22.1150 C.ar  230  PHE230     -0.0003
     67  CE2        9.3490   -1.6310   22.0040 C.ar  230  PHE230     -0.0003
     68  CZ         9.9980   -2.8120   21.7160 C.ar  230  PHE230     -0.0000
     69  N         10.2940    0.3180   18.5240 N.3   232  ASN232     -0.1225
     70  CA         9.2070   -0.5190   18.0560 C.3   232  ASN232      0.1785
     71  C          9.4380   -0.9470   16.5800 C.2   232  ASN232      0.2597
     72  O         10.2640   -0.3580   15.8820 O.2   232  ASN232     -0.2718
     73  CB         7.8820    0.2540   18.2110 C.3   232  ASN232      0.1169
     74  CG         7.6180    0.7240   19.6610 C.2   232  ASN232      0.2627
     75  OD1        7.2400   -0.0690   20.5200 O.2   232  ASN232     -0.2716
     76  ND2        7.8020    2.0160   19.9260 N.am  232  ASN232     -0.0877
     77  N          8.6890   -1.9390   16.1220 N.am  233  ARG233     -0.1966
     78  CA         8.7230   -2.4490   14.7470 C.3   233  ARG233      0.1729
     79  C          8.7500   -1.3430   13.7070 C.2   233  ARG233      0.2616
     80  O          9.5170   -1.3940   12.7530 O.2   233  ARG233     -0.2715
     81  CB         7.4890   -3.3530   14.5310 C.3   233  ARG233      0.0348
     82  CG         7.2110   -3.8580   13.1110 C.3   233  ARG233      0.0492
     83  CD         5.9160   -4.6950   13.0770 C.3   233  ARG233      0.2205
     84  NE         6.0590   -5.9380   13.8280 N.pl3 233  ARG233     -0.0865
     85  CZ         6.5740   -7.0670   13.3380 C.cat 233  ARG233      0.5346
     86  NH1        6.6820   -8.1420   14.1120 N.pl3 233  ARG233      0.1354
     87  NH2        6.9720   -7.1460   12.0760 N.pl3 233  ARG233      0.1354
     88  N          7.9150   -0.3400   13.9010 N.am  234  SER234     -0.1950
     89  CA         7.7730    0.7370   12.9280 C.3   234  SER234      0.1924
     90  C          8.8100    1.8550   13.0720 C.2   234  SER234      0.2314
     91  O          8.7940    2.8060   12.2930 O.2   234  SER234     -0.2863
     92  CB         6.3720    1.3220   13.0450 C.3   234  SER234      0.2116
     93  OG         6.1730    1.7920   14.3710 O.3   234  SER234     -0.2180
     94  N          9.3640    3.8030   15.8620 N.3   236  PHE236     -0.1241
     95  CA         9.0810    4.7140   16.9590 C.3   236  PHE236      0.1605
     96  C          9.8500    4.3280   18.2210 C.2   236  PHE236      0.2264
     97  O         10.0000    3.1430   18.5490 O.2   236  PHE236     -0.2867
     98  CB         7.5840    4.7800   17.2490 C.3   236  PHE236      0.0534
     99  CG         6.8080    5.5050   16.1970 C.ar  236  PHE236     -0.0203
    100  CD1        6.7650    6.8830   16.1810 C.ar  236  PHE236     -0.0042
    101  CD2        6.1200    4.7960   15.2140 C.ar  236  PHE236     -0.0042
    102  CE1        6.0470    7.5580   15.1910 C.ar  236  PHE236     -0.0003
    103  CE2        5.3970    5.4580   14.2310 C.ar  236  PHE236     -0.0003
    104  CZ         5.3600    6.8400   14.2170 C.ar  236  PHE236     -0.0000
    105  N         10.7460    4.9010   22.4010 N.3   238  GLN238     -0.1245
    106  CA        10.2520    5.2670   23.7110 C.3   238  GLN238      0.1566
    107  C         11.3640    5.0980   24.7570 C.2   238  GLN238      0.2260
    108  O         12.0800    4.1030   24.7500 O.2   238  GLN238     -0.2867
    109  CB         9.0950    4.3510   24.0990 C.3   238  GLN238      0.0367
    110  CG         7.9580    4.2770   23.1020 C.3   238  GLN238      0.0905
    111  CD         6.9970    3.1500   23.4310 C.2   238  GLN238      0.2608
    112  OE1        7.0560    2.0660   22.8410 O.2   238  GLN238     -0.2717
    113  NE2        6.1360    3.3850   24.4100 N.am  238  GLN238     -0.0878
@<TRIPOS>BOND
     1    87    85    1
     2    91    90    2
     3    80    79    2
     4    89    92    1
     5    89    90    1
     6    89    88    1
     7    92    93    1
     8    83    82    1
     9    83    84    1
    10    82    81    1
    11    85    84    2
    12    85    86    1
    13    79    88   am
    14    79    78    1
    15   104   103   ar
    16   104   102   ar
    17   103   101   ar
    18    81    78    1
    19    78    77    1
    20   102   100   ar
    21   101    99   ar
    22    94    95    1
    23    72    71    2
    24    77    71   am
    25   100    99   ar
    26    99    98    1
    27    71    70    1
    28    56    55    2
    29    95    98    1
    30    95    96    1
    31    55    57   am
    32    55    54    1
    33    70    73    1
    34    70    69    1
    35    73    74    1
    36    96    97    2
    37    53    52    2
    38    52    51    1
    39    51    54    1
    40    51    50    1
    41    74    76   am
    42    74    75    2
    43    49    48    1
    44    48    45    1
    45    46    47    2
    46    46    45    1
    47    45    44    1
    48    61    60    2
    49    60    59    1
    50    68    67   ar
    51    68    66   ar
    52    43    42    1
    53    67    65   ar
    54    66    64   ar
    55    42    41    1
    56   105   106    1
    57    65    63   ar
    58    44    37   am
    59    64    63   ar
    60   112   111    2
    61    59    58    1
    62    59    62    1
    63    63    62    1
    64   110   111    1
    65   110   109    1
    66   111   113   am
    67    41    40    1
    68    40    39    1
    69   106   109    1
    70   106   107    1
    71    37    38    2
    72    37    36    1
    73   108   107    2
    74    36    39    1
    75    36    35    1
    76    22    21    1
    77    15    13   ar
    78    23    21    1
    79    33    31   ar
    80    33    34   ar
    81     5     6    1
    82     5     2    1
    83    31    29   ar
    84     6     7    1
    85    21    20    1
    86    13    12    1
    87    13    14   ar
    88    12     9    1
    89     4     3    2
    90    34    32   ar
    91    29    28    1
    92    29    30   ar
    93    28    25    1
    94     3     2    1
    95     3     8   am
    96     2     1    1
    97    20    17    1
    98     7     1    1
    99     8     9    1
   100    32    30   ar
   101     9    10    1
   102    26    25    1
   103    26    27    2
   104    25    24    1
   105    17    16    1
   106    17    18    1
   107    10    11    2
   108    19    18    2
