@<TRIPOS>MOLECULE
tmp/4jchA00.pdb
 242 229 0 0 0
SMALL
GASTEIGER

@<TRIPOS>ATOM
      1  N        -10.1420   28.8350    6.0830 N.3    12  TRP12      -0.1241
      2  CA       -10.8190   27.7500    5.3880 C.3    12  TRP12       0.1605
      3  C        -11.6900   28.2240    4.2360 C.2    12  TRP12       0.2264
      4  O        -11.6660   27.6100    3.1430 O.2    12  TRP12      -0.2867
      5  CB       -11.6530   26.8890    6.3220 C.3    12  TRP12       0.0550
      6  CG       -11.9820   25.5590    5.7470 C.ar   12  TRP12       0.0003
      7  CD1      -13.1750   25.1150    5.3920 C.ar   12  TRP12       0.0946
      8  CD2      -11.0750   24.4670    5.5380 C.ar   12  TRP12       0.0152
      9  NE1      -13.1060   23.8180    4.8870 N.ar   12  TRP12      -0.2442
     10  CE2      -11.7970   23.4230    4.9640 C.ar   12  TRP12       0.0810
     11  CE3       -9.7030   24.3220    5.7220 C.ar   12  TRP12       0.0012
     12  CZ2      -11.1960   22.1960    4.6200 C.ar   12  TRP12       0.0191
     13  CZ3       -9.1030   23.1050    5.3800 C.ar   12  TRP12       0.0001
     14  CH2       -9.8580   22.0750    4.8390 C.ar   12  TRP12       0.0015
     15  N         -9.4800   28.8870    1.5290 N.3    15  PHE15      -0.1241
     16  CA        -8.9780   27.6380    1.0080 C.3    15  PHE15       0.1605
     17  C        -10.0420   26.9960    0.0650 C.2    15  PHE15       0.2264
     18  O         -9.7560   26.6460   -1.0750 O.2    15  PHE15      -0.2867
     19  CB        -8.4870   26.6810    2.1300 C.3    15  PHE15       0.0534
     20  CG        -8.2790   25.2590    1.6290 C.ar   15  PHE15      -0.0203
     21  CD1       -7.2440   24.9720    0.7740 C.ar   15  PHE15      -0.0042
     22  CD2       -9.1600   24.2570    2.0060 C.ar   15  PHE15      -0.0042
     23  CE1       -7.0780   23.6530    0.2940 C.ar   15  PHE15      -0.0003
     24  CE2       -9.0270   22.9650    1.5300 C.ar   15  PHE15      -0.0003
     25  CZ        -7.9780   22.6730    0.6590 C.ar   15  PHE15      -0.0000
     26  N         -2.2680   19.0080   -6.3100 N.3    26  LEU26      -0.1245
     27  CA        -2.6390   19.2200   -4.8980 C.3    26  LEU26       0.1561
     28  C         -1.6520   20.0920   -4.1670 C.2    26  LEU26       0.2260
     29  O         -2.0380   20.9350   -3.3650 O.2    26  LEU26      -0.2867
     30  CB        -2.7540   17.8820   -4.1250 C.3    26  LEU26       0.0270
     31  CG        -3.9820   16.9590   -4.2750 C.3    26  LEU26       0.0019
     32  CD1       -5.2380   17.7240   -4.7290 C.3    26  LEU26       0.0001
     33  CD2       -3.6810   15.7720   -5.1820 C.3    26  LEU26       0.0001
     34  N         -2.4790   24.1490   -4.2140 N.3    29  LEU29      -0.1245
     35  CA        -3.3180   24.7990   -3.2470 C.3    29  LEU29       0.1561
     36  C         -2.4320   24.7950   -2.0330 C.2    29  LEU29       0.2260
     37  O         -2.0660   23.7190   -1.5250 O.2    29  LEU29      -0.2867
     38  CB        -4.6300   24.0590   -2.9400 C.3    29  LEU29       0.0270
     39  CG        -5.3920   23.3570   -4.0620 C.3    29  LEU29       0.0019
     40  CD1       -6.5120   22.4740   -3.5160 C.3    29  LEU29       0.0001
     41  CD2       -5.9080   24.3690   -5.0780 C.3    29  LEU29       0.0001
     42  N         -2.7000   25.3140    1.6190 N.3    31  ALA31      -0.1245
     43  CA        -3.7990   24.9310    2.4930 C.3    31  ALA31       0.1562
     44  C         -3.3690   25.4900    3.8600 C.2    31  ALA31       0.2260
     45  O         -2.2210   25.5920    4.1220 O.2    31  ALA31      -0.2867
     46  CB        -3.8980   23.4200    2.5270 C.3    31  ALA31       0.0290
     47  N         -4.4850   22.1010    8.4890 N.3    35  ILE35      -0.1245
     48  CA        -4.9010   20.9380    7.7140 C.3    35  ILE35       0.1561
     49  C         -3.6820   20.2320    7.0870 C.2    35  ILE35       0.2260
     50  O         -3.7990   19.2830    6.3090 O.2    35  ILE35      -0.2867
     51  CB        -5.9780   21.3060    6.6990 C.3    35  ILE35       0.0252
     52  CG1       -6.9920   20.1300    6.4740 C.3    35  ILE35       0.0019
     53  CG2       -5.3780   21.7650    5.3870 C.3    35  ILE35       0.0019
     54  CD1       -7.8530   19.8390    7.7020 C.3    35  ILE35       0.0001
     55  N          4.3660   11.2170    2.1400 N.3    41  LEU41      -0.1245
     56  CA         3.8100   10.0560    1.4520 C.3    41  LEU41       0.1561
     57  C          4.7710    8.8580    1.2630 C.2    41  LEU41       0.2260
     58  O          4.2990    7.7410    1.0770 O.2    41  LEU41      -0.2867
     59  CB         3.1570   10.4230    0.1150 C.3    41  LEU41       0.0270
     60  CG         1.8000   11.1330    0.2070 C.3    41  LEU41       0.0019
     61  CD1        1.5340   11.9330   -1.0720 C.3    41  LEU41       0.0001
     62  CD2        0.7800   10.0350    0.4960 C.3    41  LEU41       0.0001
     63  N          3.9180    6.2150    3.7430 N.3    44  PHE44      -0.1241
     64  CA         2.6840    5.4820    3.6870 C.3    44  PHE44       0.1605
     65  C          2.9010    3.9690    3.3200 C.2    44  PHE44       0.2264
     66  O          2.0510    3.1320    3.5770 O.2    44  PHE44      -0.2867
     67  CB         1.6760    6.1770    2.6820 C.3    44  PHE44       0.0534
     68  CG         0.9750    7.3850    3.2600 C.ar   44  PHE44      -0.0203
     69  CD1        1.6570    8.3470    3.9770 C.ar   44  PHE44      -0.0042
     70  CD2       -0.3740    7.5750    3.0640 C.ar   44  PHE44      -0.0042
     71  CE1        0.9720    9.4020    4.5390 C.ar   44  PHE44      -0.0003
     72  CE2       -1.0610    8.6710    3.6100 C.ar   44  PHE44      -0.0003
     73  CZ        -0.3770    9.5840    4.3190 C.ar   44  PHE44      -0.0000
     74  N          1.4740   -1.3000    4.6660 N.3    48  TRP48      -0.1241
     75  CA         1.2370   -2.6090    4.1180 C.3    48  TRP48       0.1605
     76  C          1.5680   -3.7510    5.0740 C.2    48  TRP48       0.2264
     77  O          1.2920   -4.9180    4.7200 O.2    48  TRP48      -0.2867
     78  CB         1.9660   -2.8420    2.7980 C.3    48  TRP48       0.0550
     79  CG         1.3500   -2.1040    1.6240 C.ar   48  TRP48       0.0003
     80  CD1        1.6970   -0.8660    1.1170 C.ar   48  TRP48       0.0946
     81  CD2        0.2640   -2.5570    0.8080 C.ar   48  TRP48       0.0152
     82  NE1        0.8980   -0.5430    0.0770 N.ar   48  TRP48      -0.2442
     83  CE2        0.0840   -1.6090   -0.2090 C.ar   48  TRP48       0.0810
     84  CE3       -0.4240   -3.7470    0.7200 C.ar   48  TRP48       0.0012
     85  CZ2       -0.9180   -1.7340   -1.1650 C.ar   48  TRP48       0.0191
     86  CZ3       -1.3870   -3.8900   -0.2680 C.ar   48  TRP48       0.0001
     87  CH2       -1.6040   -2.9210   -1.2150 C.ar   48  TRP48       0.0015
     88  N         -3.7360    2.1290    6.4160 N.3    98  GLN98      -0.1231
     89  CA        -3.6860    2.9270    5.1520 C.3    98  GLN98       0.1698
     90  C         -4.5680    4.1880    5.2590 C.2    98  GLN98       0.2592
     91  O         -4.1320    5.2870    4.9120 O.2    98  GLN98      -0.2718
     92  CB        -4.1960    2.0800    3.9780 C.3    98  GLN98       0.0381
     93  CG        -3.3240    0.9390    3.5480 C.3    98  GLN98       0.0905
     94  CD        -2.1250    1.3140    2.7830 C.2    98  GLN98       0.2608
     95  OE1       -1.6750    2.5150    2.6940 O.2    98  GLN98      -0.2717
     96  NE2       -1.5440    0.3040    2.1860 N.am   98  GLN98      -0.0878
     97  N         -5.7950    4.0140    5.7590 N.am   99  TYR99      -0.1976
     98  CA        -6.8250    5.0280    5.5940 C.3    99  TYR99       0.1639
     99  C         -7.3180    5.6980    6.8520 C.2    99  TYR99       0.2290
    100  O         -8.0900    6.6600    6.7460 O.2    99  TYR99      -0.2864
    101  CB        -8.0130    4.3490    4.8230 C.3    99  TYR99       0.0560
    102  CG        -7.5500    3.8130    3.4930 C.ar   99  TYR99      -0.0198
    103  CD1       -7.6100    2.4790    3.1940 C.ar   99  TYR99      -0.0009
    104  CD2       -6.9880    4.6330    2.5680 C.ar   99  TYR99      -0.0009
    105  CE1       -7.0940    1.9620    2.0180 C.ar   99  TYR99       0.0417
    106  CE2       -6.4940    4.1520    1.3700 C.ar   99  TYR99       0.0417
    107  CZ        -6.5790    2.7850    1.0890 C.ar   99  TYR99       0.1957
    108  OH        -6.0120    2.3030   -0.0930 O.3    99  TYR99      -0.2866
    109  N         -4.2110    8.8680   10.1040 N.3   102  ARG102     -0.1245
    110  CA        -4.1190   10.3270   10.3900 C.3   102  ARG102      0.1563
    111  C         -5.3490   10.7700   11.1690 C.2   102  ARG102      0.2260
    112  O         -5.2600   11.6430   12.0310 O.2   102  ARG102     -0.2867
    113  CB        -3.8860   11.1840    9.1110 C.3   102  ARG102      0.0307
    114  CG        -2.4960   11.1370    8.4900 C.3   102  ARG102      0.0489
    115  CD        -2.1730    9.8490    7.7470 C.3   102  ARG102      0.2205
    116  NE        -3.2200    9.5200    6.7780 N.pl3 102  ARG102     -0.0865
    117  CZ        -3.4460    8.2890    6.2770 C.cat 102  ARG102      0.5346
    118  NH1       -2.7050    7.2540    6.6900 N.pl3 102  ARG102      0.1354
    119  NH2       -4.4410    8.0610    5.4260 N.pl3 102  ARG102      0.1354
    120  N         -8.0740   13.3620    8.3870 N.3   109  GLU109     -0.1231
    121  CA        -7.1910   13.2950    7.2280 C.3   109  GLU109      0.1699
    122  C         -6.6300   14.6900    7.0220 C.2   109  GLU109      0.2592
    123  O         -7.2800   15.7050    7.3440 O.2   109  GLU109     -0.2718
    124  CB        -7.9180   12.7900    5.9710 C.3   109  GLU109      0.0402
    125  CG        -6.9700   12.3740    4.8840 C.3   109  GLU109      0.1161
    126  CD        -6.0200   11.2920    5.3840 C.2   109  GLU109      0.3649
    127  OE1       -6.4000   10.1050    5.5330 O.co2 109  GLU109     -0.2457
    128  OE2       -4.8910   11.6270    5.7230 O.co2 109  GLU109     -0.2457
    129  N         -5.3550   14.7560    6.6340 N.am  110  LYS110     -0.1966
    130  CA        -4.7090   16.0100    6.3560 C.3   110  LYS110      0.1728
    131  C         -3.7960   15.8640    5.1110 C.2   110  LYS110      0.2616
    132  O         -3.5680   14.7480    4.6360 O.2   110  LYS110     -0.2715
    133  CB        -3.9530   16.4640    7.6070 C.3   110  LYS110      0.0311
    134  CG        -4.8810   16.9050    8.7650 C.3   110  LYS110      0.0038
    135  CD        -4.1450   17.6230    9.8600 C.3   110  LYS110      0.0206
    136  CE        -5.1480   17.9400   10.9560 C.3   110  LYS110      0.1093
    137  NZ        -4.5070   18.6790   12.0690 N.3   110  LYS110     -0.1314
    138  N         -3.3010   16.9990    4.6230 N.am  111  LYS111     -0.1964
    139  CA        -2.5220   17.0380    3.4170 C.3   111  LYS111      0.1713
    140  C         -1.1290   16.5780    3.8230 C.2   111  LYS111      0.2458
    141  O         -0.4810   17.2300    4.6310 O.2   111  LYS111     -0.2730
    142  CB        -2.3960   18.4270    2.8200 C.3   111  LYS111      0.0311
    143  CG        -1.7480   18.4260    1.4510 C.3   111  LYS111      0.0038
    144  CD        -1.4120   19.8260    1.0290 C.3   111  LYS111      0.0206
    145  CE        -0.5320   19.8210   -0.2050 C.3   111  LYS111      0.1093
    146  NZ         0.3320   21.0410   -0.1840 N.3   111  LYS111     -0.1314
    147  N         -0.6810   15.4390    3.2720 N.am  112  PRO112     -0.2727
    148  CA         0.6740   14.9300    3.5210 C.3   112  PRO112      0.1402
    149  C          1.7170   15.7760    2.8210 C.2   112  PRO112      0.2269
    150  O          1.4250   16.4930    1.8590 O.2   112  PRO112     -0.2865
    151  CB         0.6260   13.5190    2.8800 C.3   112  PRO112      0.0296
    152  CG        -0.2700   13.6790    1.7960 C.3   112  PRO112      0.0237
    153  CD        -1.3700   14.5790    2.2800 C.3   112  PRO112      0.0939
    154  N          2.6030    3.1520   -6.1150 N.3   167  ASN167     -0.1240
    155  CA         1.3880    3.9300   -6.0390 C.3   167  ASN167      0.1653
    156  C          1.5080    5.3190   -6.5870 C.2   167  ASN167      0.2266
    157  O          2.4970    6.0060   -6.3940 O.2   167  ASN167     -0.2867
    158  CB         0.9530    3.9720   -4.5920 C.3   167  ASN167      0.1155
    159  CG        -0.3660    4.6380   -4.3870 C.2   167  ASN167      0.2627
    160  OD1       -1.4190    3.9130   -4.4140 O.2   167  ASN167     -0.2716
    161  ND2       -0.3830    5.8770   -4.2220 N.am  167  ASN167     -0.0877
    162  N         -1.6050    8.6340   -7.8410 N.3   169  ILE169     -0.1245
    163  CA        -3.0510    8.9670   -7.9110 C.3   169  ILE169      0.1561
    164  C         -3.3490    9.9880   -8.9630 C.2   169  ILE169      0.2260
    165  O         -2.4780   10.6530   -9.4620 O.2   169  ILE169     -0.2867
    166  CB        -3.6570    9.4800   -6.5690 C.3   169  ILE169      0.0252
    167  CG1       -3.0550   10.8060   -6.1770 C.3   169  ILE169      0.0019
    168  CG2       -3.4370    8.4510   -5.4860 C.3   169  ILE169      0.0019
    169  CD1       -3.6070   11.4720   -4.9100 C.3   169  ILE169      0.0001
    170  N        -11.7680   17.4550   -7.9510 N.3   173  PHE173     -0.1241
    171  CA       -12.8500   17.9170   -7.0990 C.3   173  PHE173      0.1605
    172  C        -14.1500   18.0240   -7.8370 C.2   173  PHE173      0.2264
    173  O        -14.1880   18.4120   -8.9720 O.2   173  PHE173     -0.2867
    174  CB       -12.5810   19.2950   -6.4770 C.3   173  PHE173      0.0534
    175  CG       -11.4820   19.3230   -5.4770 C.ar  173  PHE173     -0.0203
    176  CD1      -10.1880   19.6610   -5.8730 C.ar  173  PHE173     -0.0042
    177  CD2      -11.7230   19.0480   -4.1240 C.ar  173  PHE173     -0.0042
    178  CE1       -9.1740   19.6960   -4.9860 C.ar  173  PHE173     -0.0003
    179  CE2      -10.6830   19.1040   -3.2300 C.ar  173  PHE173     -0.0003
    180  CZ        -9.4230   19.4230   -3.6550 C.ar  173  PHE173     -0.0000
    181  N        -13.3190   15.2470   -2.9860 N.3   179  LEU179     -0.1245
    182  CA       -12.1130   14.9500   -3.7390 C.3   179  LEU179      0.1561
    183  C        -12.1700   13.5020   -4.1950 C.2   179  LEU179      0.2260
    184  O        -12.0910   12.5980   -3.3900 O.2   179  LEU179     -0.2867
    185  CB       -10.8160   15.1360   -2.9800 C.3   179  LEU179      0.0270
    186  CG        -9.5040   14.9750   -3.7070 C.3   179  LEU179      0.0019
    187  CD1       -9.3430   15.9320   -4.8630 C.3   179  LEU179      0.0001
    188  CD2       -8.2800   15.0890   -2.8070 C.3   179  LEU179      0.0001
    189  N        -10.5060   10.3640   -5.7800 N.3   181  VAL181     -0.1245
    190  CA        -9.1600    9.9000   -5.9500 C.3   181  VAL181      0.1561
    191  C         -9.1280    8.5580   -6.5980 C.2   181  VAL181      0.2260
    192  O         -9.7620    7.6370   -6.0740 O.2   181  VAL181     -0.2867
    193  CB        -8.4620    9.7560   -4.5860 C.3   181  VAL181      0.0252
    194  CG1       -7.0640    9.1670   -4.6900 C.3   181  VAL181      0.0019
    195  CG2       -8.4000   11.0810   -3.9180 C.3   181  VAL181      0.0019
    196  N         -6.7200    5.5540   -7.4510 N.3   183  GLN183     -0.1245
    197  CA        -5.3550    4.9980   -7.3020 C.3   183  GLN183      0.1566
    198  C         -4.9340    4.2880   -8.5900 C.2   183  GLN183      0.2260
    199  O         -5.7900    3.7380   -9.3280 O.2   183  GLN183     -0.2867
    200  CB        -5.2890    4.0210   -6.1360 C.3   183  GLN183      0.0367
    201  CG        -5.7240    4.6940   -4.8480 C.3   183  GLN183      0.0905
    202  CD        -5.3390    3.9420   -3.5730 C.2   183  GLN183      0.2608
    203  OE1       -6.2330    3.4520   -2.7840 O.2   183  GLN183     -0.2717
    204  NE2       -4.1020    3.7480   -3.3930 N.am  183  GLN183     -0.0878
    205  N        -11.2380    5.9310   -4.0870 N.3   203  LEU203     -0.1245
    206  CA       -11.7700    6.5580   -2.8520 C.3   203  LEU203      0.1561
    207  C        -12.1980    7.9870   -3.0570 C.2   203  LEU203      0.2260
    208  O        -11.9500    8.5250   -4.0630 O.2   203  LEU203     -0.2867
    209  CB       -10.7920    6.4090   -1.7080 C.3   203  LEU203      0.0270
    210  CG        -9.4420    7.0390   -1.9650 C.3   203  LEU203      0.0019
    211  CD1       -9.4230    8.4670   -1.4250 C.3   203  LEU203      0.0001
    212  CD2       -8.3440    6.2590   -1.2950 C.3   203  LEU203      0.0001
    213  N        -12.3250   11.7410   -0.7340 N.3   205  ILE205     -0.1245
    214  CA       -12.1190   12.4690    0.5260 C.3   205  ILE205      0.1561
    215  C        -13.3970   13.2910    0.7320 C.2   205  ILE205      0.2260
    216  O        -13.7270   14.1200   -0.1360 O.2   205  ILE205     -0.2867
    217  CB       -10.8370   13.3380    0.5330 C.3   205  ILE205      0.0252
    218  CG1       -9.5710   12.6140    0.0760 C.3   205  ILE205      0.0019
    219  CG2      -10.6810   13.9040    1.9400 C.3   205  ILE205      0.0019
    220  CD1       -9.2030   11.3600    0.8540 C.3   205  ILE205      0.0001
    221  N        -14.7540   17.8440    3.4290 N.3   208  ILE208     -0.1245
    222  CA       -13.9050   19.0030    3.1040 C.3   208  ILE208      0.1561
    223  C        -14.6440   20.3460    3.4820 C.2   208  ILE208      0.2260
    224  O        -14.0560   21.2610    4.0360 O.2   208  ILE208     -0.2867
    225  CB       -13.5040   19.0740    1.5930 C.3   208  ILE208      0.0252
    226  CG1      -12.7660   17.8230    1.0880 C.3   208  ILE208      0.0019
    227  CG2      -12.5960   20.2850    1.3550 C.3   208  ILE208      0.0019
    228  CD1      -11.6060   17.4520    1.9080 C.3   208  ILE208      0.0001
    229  N        -11.8230   16.3410    7.0700 N.3   213  PRO213     -0.2116
    230  CA       -11.6760   15.4130    5.9860 C.3   213  PRO213      0.1372
    231  C        -11.4890   13.9690    6.4430 C.2   213  PRO213      0.2244
    232  O        -10.9170   13.6950    7.5100 O.2   213  PRO213     -0.2868
    233  CB       -10.4120   15.8930    5.2770 C.3   213  PRO213      0.0268
    234  CG       -10.2080   17.2790    5.6830 C.3   213  PRO213      0.0207
    235  CD       -10.7090   17.3070    7.0800 C.3   213  PRO213      0.0892
    236  N        -11.2840    9.7220    4.5840 N.3   215  VAL215     -0.1245
    237  CA       -11.3570    8.8190    3.4320 C.3   215  VAL215      0.1561
    238  C        -12.5600    7.8990    3.4800 C.2   215  VAL215      0.2260
    239  O        -12.8870    7.2830    4.5280 O.2   215  VAL215     -0.2867
    240  CB       -10.0890    7.8930    3.4550 C.3   215  VAL215      0.0252
    241  CG1      -10.1680    6.8210    2.4100 C.3   215  VAL215      0.0019
    242  CG2       -8.8120    8.7340    3.3040 C.3   215  VAL215      0.0019
@<TRIPOS>BOND
     1   165   164    2
     2   199   198    2
     3   173   172    2
     4   164   163    1
     5   198   197    1
     6   170   171    1
     7   163   162    1
     8   163   166    1
     9   172   171    1
    10   196   197    1
    11   197   200    1
    12   171   174    1
    13   191   192    2
    14   191   190    1
    15   156   157    2
    16   156   155    1
    17   166   167    1
    18   166   168    1
    19   174   175    1
    20    26    27    1
    21   167   169    1
    22   200   201    1
    23   154   155    1
    24   155   158    1
    25   190   189    1
    26   190   193    1
    27   176   175   ar
    28   176   178   ar
    29   175   177   ar
    30    33    31    1
    31    41    39    1
    32   178   180   ar
    33    27    28    1
    34    27    30    1
    35   187   186    1
    36   201   202    1
    37    32    31    1
    38   194   193    1
    39   158   159    1
    40   193   195    1
    41   160   159    2
    42   159   161   am
    43    31    30    1
    44    34    35    1
    45   183   182    1
    46   183   184    2
    47    28    29    2
    48   177   179   ar
    49   205   206    1
    50   208   207    2
    51    39    40    1
    52    39    38    1
    53   182   181    1
    54   182   185    1
    55   186   185    1
    56   186   188    1
    57   180   179   ar
    58   202   204   am
    59   202   203    2
    60    35    38    1
    61    35    36    1
    62   207   206    1
    63   206   209    1
    64    36    37    2
    65   210   209    1
    66   210   211    1
    67   210   212    1
    68    87    85   ar
    69    87    86   ar
    70    85    83   ar
    71    18    17    2
    72    61    60    1
    73   213   214    1
    74    86    84   ar
    75    83    82   ar
    76    83    81   ar
    77   145   146    1
    78   145   144    1
    79   216   215    2
    80   108   107    1
    81    17    16    1
    82   218   217    1
    83   218   220    1
    84    82    80   ar
    85    59    60    1
    86    59    56    1
    87    60    62    1
    88    23    25   ar
    89    23    21   ar
    90   214   217    1
    91   214   215    1
    92   217   219    1
    93    25    24   ar
    94    84    81   ar
    95    21    20   ar
    96    81    79   ar
    97    16    15    1
    98    16    19    1
    99   144   143    1
   100    58    57    2
   101   226   225    1
   102   226   228    1
   103   107   106   ar
   104   107   105   ar
   105    80    79   ar
   106    57    56    1
   107   227   225    1
   108   106   104   ar
   109   143   142    1
   110    56    55    1
   111    24    22   ar
   112   225   222    1
   113    42    43    1
   114    79    78    1
   115    20    22   ar
   116    20    19    1
   117   152   153    1
   118   152   151    1
   119   150   149    2
   120   105   103   ar
   121    96    94   am
   122   153   147    1
   123   241   240    1
   124    43    46    1
   125    43    44    1
   126   104   102   ar
   127    67    68    1
   128    67    64    1
   129    95    94    2
   130    94    93    1
   131    78    75    1
   132   142   139    1
   133   149   148    1
   134   151   148    1
   135    70    68   ar
   136    70    72   ar
   137   222   221    1
   138   222   223    1
   139     4     3    2
   140   103   102   ar
   141    68    69   ar
   142   147   148    1
   143   147   140   am
   144   242   240    1
   145    65    66    2
   146    65    64    1
   147   139   140    1
   148   139   138    1
   149   237   240    1
   150   237   238    1
   151   237   236    1
   152   238   239    2
   153   223   224    2
   154   102   101    1
   155    93    92    1
   156    72    73   ar
   157    64    63    1
   158   140   141    2
   159    44    45    2
   160    69    71   ar
   161    92    89    1
   162    75    74    1
   163    75    76    1
   164     3     2    1
   165    73    71   ar
   166    12    14   ar
   167    12    10   ar
   168   138   131   am
   169   132   131    2
   170    77    76    2
   171   101    98    1
   172    14    13   ar
   173   125   126    1
   174   125   124    1
   175     9    10   ar
   176     9     7   ar
   177    91    90    2
   178    10     8   ar
   179   131   130    1
   180    89    90    1
   181    89    88    1
   182    90    97   am
   183   233   234    1
   184   233   230    1
   185    13    11   ar
   186   126   127   ar
   187   126   128   ar
   188    53    51    1
   189     2     1    1
   190     2     5    1
   191     7     6   ar
   192   119   117    1
   193     8    11   ar
   194     8     6   ar
   195    98    97    1
   196    98    99    1
   197   234   235    1
   198     6     5    1
   199   124   121    1
   200   230   231    1
   201   230   229    1
   202   117   118    1
   203   117   116    2
   204    50    49    2
   205   130   129    1
   206   130   133    1
   207   231   232    2
   208    52    51    1
   209    52    54    1
   210   129   122   am
   211    51    48    1
   212   100    99    2
   213   116   115    1
   214   122   121    1
   215   122   123    2
   216   229   235    1
   217    49    48    1
   218   121   120    1
   219   133   134    1
   220    48    47    1
   221   115   114    1
   222   114   113    1
   223   134   135    1
   224   113   110    1
   225   135   136    1
   226   109   110    1
   227   110   111    1
   228   136   137    1
   229   111   112    2
