@<TRIPOS>MOLECULE
tmp/4jcwA00.pdb
 140 137 0 0 0
SMALL
GASTEIGER

@<TRIPOS>ATOM
      1  N        -15.6140   27.1100  -18.1790 N.3    10  TYR10      -0.1241
      2  CA       -16.0630   26.6590  -19.4820 C.3    10  TYR10       0.1605
      3  C        -16.7280   25.2970  -19.3150 C.2    10  TYR10       0.2264
      4  O        -16.8340   24.7930  -18.1950 O.2    10  TYR10      -0.2867
      5  CB       -14.8860   26.5820  -20.4550 C.3    10  TYR10       0.0534
      6  CG       -14.1150   25.2880  -20.3910 C.ar   10  TYR10      -0.0201
      7  CD1      -14.0940   24.4230  -21.4770 C.ar   10  TYR10      -0.0009
      8  CD2      -13.4160   24.9270  -19.2460 C.ar   10  TYR10      -0.0009
      9  CE1      -13.3840   23.2290  -21.4340 C.ar   10  TYR10       0.0417
     10  CE2      -12.7050   23.7330  -19.1880 C.ar   10  TYR10       0.0417
     11  CZ       -12.6970   22.8900  -20.2930 C.ar   10  TYR10       0.1957
     12  OH       -12.0040   21.7050  -20.2610 O.3    10  TYR10      -0.2866
     13  N        -16.9040   21.2340  -21.2290 N.3    12  LEU12      -0.1245
     14  CA       -16.7200   20.2370  -22.2810 C.3    12  LEU12       0.1561
     15  C        -18.0740   19.7050  -22.7490 C.2    12  LEU12       0.2260
     16  O        -18.1800   19.0790  -23.8090 O.2    12  LEU12      -0.2867
     17  CB       -15.8900   19.0570  -21.7710 C.3    12  LEU12       0.0270
     18  CG       -14.4800   19.2740  -21.2280 C.3    12  LEU12       0.0019
     19  CD1      -14.0220   18.0120  -20.5130 C.3    12  LEU12       0.0001
     20  CD2      -13.5080   19.6570  -22.3340 C.3    12  LEU12       0.0001
     21  N        -12.9890   10.6700  -26.6970 N.3    19  ALA19      -0.1245
     22  CA       -11.9760   11.6640  -26.4030 C.3    19  ALA19       0.1562
     23  C        -12.6320   12.9260  -25.8760 C.2    19  ALA19       0.2260
     24  O        -13.4100   13.5680  -26.5850 O.2    19  ALA19      -0.2867
     25  CB       -11.1740   11.9700  -27.6630 C.3    19  ALA19       0.0290
     26  N        -11.7510   16.5780  -24.0090 N.3    21  GLY21      -0.1210
     27  CA       -10.6550   17.4800  -23.6860 C.3    21  GLY21       0.1956
     28  C         -9.3760   17.1120  -24.4110 C.2    21  GLY21       0.2611
     29  O         -9.2850   16.0620  -25.0530 O.2    21  GLY21      -0.2717
     30  N         -8.3710   17.9750  -24.3110 N.am   22  ASN22      -0.1974
     31  CA        -7.1440   17.7790  -25.0500 C.3    22  ASN22       0.1688
     32  C         -6.4230   16.5150  -24.5730 C.2    22  ASN22       0.2292
     33  O         -5.6790   15.9130  -25.3330 O.2    22  ASN22      -0.2864
     34  CB        -6.2540   19.0100  -24.8990 C.3    22  ASN22       0.1181
     35  CG        -5.2770   19.1780  -26.0370 C.2    22  ASN22       0.2629
     36  OD1       -4.8900   18.2110  -26.7120 O.2    22  ASN22      -0.2716
     37  ND2       -4.8640   20.4140  -26.2610 N.am   22  ASN22      -0.0877
     38  N         -7.8420   13.7990  -24.1070 N.3    24  SER24      -0.1217
     39  CA        -8.6090   12.6960  -24.6960 C.3    24  SER24       0.1889
     40  C         -9.0780   11.6670  -23.6640 C.2    24  SER24       0.2288
     41  O         -8.9130   10.4600  -23.8690 O.2    24  SER24      -0.2866
     42  CB        -7.8020   11.9750  -25.7850 C.3    24  SER24       0.2089
     43  OG        -7.2310   12.8790  -26.7160 O.3    24  SER24      -0.2183
     44  N         -7.6390   18.9850  -19.9220 N.3    67  ASP67      -0.1225
     45  CA        -7.6830   19.8170  -21.1150 C.3    67  ASP67       0.1805
     46  C         -6.6050   20.8990  -21.0670 C.2    67  ASP67       0.2597
     47  O         -5.9620   21.1150  -20.0360 O.2    67  ASP67      -0.2718
     48  CB        -9.0810   20.4550  -21.1820 C.3    67  ASP67       0.1424
     49  CG        -9.5180   20.8270  -22.5920 C.2    67  ASP67       0.3668
     50  OD1       -8.7530   20.6470  -23.5690 O.co2  67  ASP67      -0.2456
     51  OD2      -10.6690   21.3150  -22.7220 O.co2  67  ASP67      -0.2456
     52  N         -6.4010   21.5530  -22.2050 N.am   68  GLN68      -0.1979
     53  CA        -5.4320   22.6260  -22.3270 C.3    68  GLN68       0.1601
     54  C         -6.1700   23.9250  -22.6350 C.2    68  GLN68       0.2287
     55  O         -7.0050   23.9660  -23.5360 O.2    68  GLN68      -0.2864
     56  CB        -4.4590   22.3250  -23.4700 C.3    68  GLN68       0.0394
     57  CG        -3.3840   23.3920  -23.6350 C.3    68  GLN68       0.0908
     58  CD        -2.3760   23.0540  -24.7180 C.2    68  GLN68       0.2608
     59  OE1       -1.3390   23.7000  -24.8280 O.2    68  GLN68      -0.2717
     60  NE2       -2.6810   22.0480  -25.5260 N.am   68  GLN68      -0.0878
     61  N         -5.1430   27.2470  -24.0860 N.3    70  HIS70      -0.1241
     62  CA        -4.0810   28.0050  -24.7560 C.3    70  HIS70       0.1621
     63  C         -4.0290   29.4830  -24.3400 C.2    70  HIS70       0.2264
     64  O         -2.9500   30.0730  -24.2510 O.2    70  HIS70      -0.2867
     65  CB        -4.2180   27.9040  -26.2840 C.3    70  HIS70       0.0745
     66  CG        -3.8520   26.5620  -26.8370 C.ar   70  HIS70       0.0817
     67  ND1       -4.7310   25.5010  -26.8670 N.ar   70  HIS70      -0.2268
     68  CD2       -2.6930   26.1050  -27.3690 C.ar   70  HIS70       0.1154
     69  CE1       -4.1340   24.4510  -27.4040 C.ar   70  HIS70       0.1986
     70  NE2       -2.8960   24.7910  -27.7160 N.ar   70  HIS70      -0.2212
     71  N         -5.6130    3.0800  -28.6340 N.3   115  LYS115     -0.1231
     72  CA        -6.2810    4.0780  -29.4780 C.3   115  LYS115      0.1693
     73  C         -7.0580    3.4440  -30.6260 C.2   115  LYS115      0.2592
     74  O         -6.6160    2.4430  -31.2070 O.2   115  LYS115     -0.2718
     75  CB        -5.2720    5.0700  -30.0630 C.3   115  LYS115      0.0285
     76  CG        -5.9320    6.3570  -30.5720 C.3   115  LYS115      0.0035
     77  CD        -4.9180    7.3710  -31.0480 C.3   115  LYS115      0.0206
     78  CE        -5.5990    8.6880  -31.4430 C.3   115  LYS115      0.1093
     79  NZ        -6.5370    8.5250  -32.5970 N.3   115  LYS115     -0.1314
     80  N         -8.2160    4.0230  -30.9410 N.am  116  GLU116     -0.1966
     81  CA        -8.9390    3.6590  -32.1560 C.3   116  GLU116      0.1733
     82  C         -7.9680    3.7370  -33.3280 C.2   116  GLU116      0.2616
     83  O         -7.1170    4.6330  -33.3760 O.2   116  GLU116     -0.2715
     84  CB       -10.1330    4.5960  -32.3970 C.3   116  GLU116      0.0429
     85  CG       -11.2220    4.4880  -31.3500 C.3   116  GLU116      0.1163
     86  CD       -10.8980    5.2400  -30.0710 C.2   116  GLU116      0.3649
     87  OE1       -9.8900    5.9870  -30.0470 O.co2 116  GLU116     -0.2457
     88  OE2      -11.6540    5.0790  -29.0840 O.co2 116  GLU116     -0.2457
     89  N         -8.0760    2.7810  -34.2470 N.am  117  GLY117     -0.1955
     90  CA        -7.2200    2.7510  -35.4170 C.3   117  GLY117      0.1869
     91  C         -5.8500    2.1190  -35.2230 C.2   117  GLY117      0.2309
     92  O         -5.0820    2.0230  -36.1770 O.2   117  GLY117     -0.2863
     93  N          1.1970   -2.0610  -36.9130 N.3   121  TRP121     -0.1227
     94  CA         1.9620   -1.1030  -37.7110 C.3   121  TRP121      0.1737
     95  C          2.1790    0.2070  -36.9590 C.2   121  TRP121      0.2595
     96  O          3.2310    0.8290  -37.0630 O.2   121  TRP121     -0.2718
     97  CB         1.2510   -0.8200  -39.0360 C.3   121  TRP121      0.0564
     98  CG         1.1320   -2.0250  -39.9020 C.ar  121  TRP121      0.0003
     99  CD1        0.0180   -2.7930  -40.0950 C.ar  121  TRP121      0.0946
    100  CD2        2.1690   -2.6180  -40.6840 C.ar  121  TRP121      0.0152
    101  NE1        0.2980   -3.8230  -40.9580 N.ar  121  TRP121     -0.2442
    102  CE2        1.6120   -3.7390  -41.3350 C.ar  121  TRP121      0.0810
    103  CE3        3.5140   -2.3080  -40.9050 C.ar  121  TRP121      0.0012
    104  CZ2        2.3530   -4.5510  -42.1880 C.ar  121  TRP121      0.0191
    105  CZ3        4.2490   -3.1160  -41.7530 C.ar  121  TRP121      0.0001
    106  CH2        3.6660   -4.2240  -42.3860 C.ar  121  TRP121      0.0015
    107  N          1.1680    0.6240  -36.2110 N.am  122  TRP122     -0.1976
    108  CA         1.2490    1.8420  -35.4190 C.3   122  TRP122      0.1640
    109  C          0.1690    1.8020  -34.3570 C.2   122  TRP122      0.2290
    110  O         -0.9820    1.4730  -34.6470 O.2   122  TRP122     -0.2864
    111  CB         1.0330    3.0770  -36.3020 C.3   122  TRP122      0.0576
    112  CG         1.0610    4.3630  -35.5390 C.ar  122  TRP122      0.0006
    113  CD1        2.1450    5.1590  -35.3140 C.ar  122  TRP122      0.0946
    114  CD2       -0.0510    5.0010  -34.8890 C.ar  122  TRP122      0.0152
    115  NE1        1.7790    6.2540  -34.5660 N.ar  122  TRP122     -0.2442
    116  CE2        0.4370    6.1830  -34.2940 C.ar  122  TRP122      0.0810
    117  CE3       -1.4120    4.6920  -34.7620 C.ar  122  TRP122      0.0012
    118  CZ2       -0.3890    7.0590  -33.5840 C.ar  122  TRP122      0.0191
    119  CZ3       -2.2340    5.5660  -34.0520 C.ar  122  TRP122      0.0001
    120  CH2       -1.7150    6.7300  -33.4660 C.ar  122  TRP122      0.0015
    121  N          0.8380   15.0930  -27.4820 N.3   152  ASP152     -0.1225
    122  CA         0.2230   16.2020  -26.7650 C.3   152  ASP152      0.1805
    123  C         -1.2880   16.0170  -26.5820 C.2   152  ASP152      0.2597
    124  O         -1.9900   16.9640  -26.2040 O.2   152  ASP152     -0.2718
    125  CB         0.5240   17.5440  -27.4480 C.3   152  ASP152      0.1424
    126  CG        -0.0390   17.6320  -28.8600 C.2   152  ASP152      0.3668
    127  OD1       -0.9050   16.8110  -29.2340 O.co2 152  ASP152     -0.2456
    128  OD2        0.3880   18.5420  -29.5930 O.co2 152  ASP152     -0.2456
    129  N         -1.7890   14.8130  -26.8660 N.am  153  TYR153     -0.1976
    130  CA        -3.2310   14.5430  -26.7230 C.3   153  TYR153      0.1639
    131  C         -3.5660   13.3650  -25.7930 C.2   153  TYR153      0.2290
    132  O         -4.6610   12.8080  -25.8500 O.2   153  TYR153     -0.2864
    133  CB        -3.9240   14.4020  -28.0850 C.3   153  TYR153      0.0560
    134  CG        -3.3900   13.2800  -28.9500 C.ar  153  TYR153     -0.0198
    135  CD1       -3.9950   12.0230  -28.9550 C.ar  153  TYR153     -0.0009
    136  CD2       -2.2840   13.4760  -29.7640 C.ar  153  TYR153     -0.0009
    137  CE1       -3.4990   10.9880  -29.7520 C.ar  153  TYR153      0.0417
    138  CE2       -1.8010   12.4610  -30.5830 C.ar  153  TYR153      0.0417
    139  CZ        -2.4020   11.2220  -30.5650 C.ar  153  TYR153      0.1957
    140  OH        -1.8950   10.2260  -31.3750 O.3   153  TYR153     -0.2866
@<TRIPOS>BOND
     1   106   104   ar
     2   106   105   ar
     3   104   102   ar
     4   105   103   ar
     5   102   101   ar
     6   102   100   ar
     7   101    99   ar
     8   103   100   ar
     9   100    98   ar
    10    99    98   ar
    11    98    97    1
    12    97    94    1
    13    94    95    1
    14    94    93    1
    15    96    95    2
    16    95   107   am
    17   111   112    1
    18   111   108    1
    19   107   108    1
    20    92    91    2
    21   112   113   ar
    22   112   114   ar
    23   108   109    1
    24    90    91    1
    25    90    89    1
    26   113   115   ar
    27   114   117   ar
    28   114   116   ar
    29   117   119   ar
    30   110   109    2
    31   115   116   ar
    32   116   118   ar
    33    89    82   am
    34   119   120   ar
    35   118   120   ar
    36    83    82    2
    37    82    81    1
    38    79    78    1
    39    84    81    1
    40    84    85    1
    41    81    80    1
    42    78    77    1
    43   140   139    1
    44    85    86    1
    45    74    73    2
    46    77    76    1
    47    80    73   am
    48    73    72    1
    49   138   139   ar
    50   138   136   ar
    51    76    75    1
    52   139   137   ar
    53    86    87   ar
    54    86    88   ar
    55    75    72    1
    56   136   134   ar
    57   137   135   ar
    58   128   126   ar
    59    72    71    1
    60   127   126   ar
    61   135   134   ar
    62   134   133    1
    63   126   125    1
    64   133   130    1
    65    70    69   ar
    66    70    68   ar
    67    25    22    1
    68   121   122    1
    69   125   122    1
    70    69    67   ar
    71    68    66   ar
    72    67    66   ar
    73   129   130    1
    74   129   123   am
    75    66    65    1
    76   122   123    1
    77   130   131    1
    78    43    42    1
    79    36    35    2
    80    21    22    1
    81    24    23    2
    82   123   124    2
    83    22    23    1
    84    65    62    1
    85    37    35   am
    86    35    34    1
    87   132   131    2
    88    42    39    1
    89    60    58   am
    90    33    32    2
    91    29    28    2
    92    31    34    1
    93    31    32    1
    94    31    30    1
    95    59    58    2
    96    62    63    1
    97    62    61    1
    98    58    57    1
    99    39    38    1
   100    39    40    1
   101    28    30   am
   102    28    27    1
   103    63    64    2
   104    26    27    1
   105    41    40    2
   106    16    15    2
   107    57    56    1
   108    50    49   ar
   109    55    54    2
   110    56    53    1
   111    15    14    1
   112    51    49   ar
   113    54    53    1
   114    49    48    1
   115    20    18    1
   116    53    52    1
   117    14    17    1
   118    14    13    1
   119    52    46   am
   120    17    18    1
   121     7     9   ar
   122     7     6   ar
   123     9    11   ar
   124    18    19    1
   125    48    45    1
   126    45    46    1
   127    45    44    1
   128    46    47    2
   129     5     6    1
   130     5     2    1
   131     6     8   ar
   132    11    12    1
   133    11    10   ar
   134     2     3    1
   135     2     1    1
   136     3     4    2
   137     8    10   ar
