@<TRIPOS>MOLECULE
tmp/4jd0A00.pdb
 109 101 0 0 0
SMALL
GASTEIGER

@<TRIPOS>ATOM
      1  N        109.2210   78.2640    2.3630 N.3    89  ASN89      -0.1240
      2  CA       109.0100   77.1110    3.1980 C.3    89  ASN89       0.1653
      3  C        108.9360   77.4220    4.7040 C.2    89  ASN89       0.2266
      4  O        108.3390   76.6430    5.4320 O.2    89  ASN89      -0.2867
      5  CB       109.8370   75.8510    2.7740 C.3    89  ASN89       0.1155
      6  CG       111.3610   75.9930    2.9630 C.2    89  ASN89       0.2627
      7  OD1      111.8890   77.0270    3.4160 O.2    89  ASN89      -0.2716
      8  ND2      112.0880   74.9130    2.6210 N.am   89  ASN89      -0.0877
      9  N        111.8010   68.6240    4.5960 N.3   109  CYS109     -0.1292
     10  CA       111.4340   69.0270    3.2230 C.3   109  CYS109      0.1363
     11  C        110.9750   67.7930    2.4730 C.3   109  CYS109      0.2019
     12  O        111.5600   66.6440    2.6520 O.3   109  CYS109     -0.2188
     13  CB       112.6310   69.7250    2.5300 C.3   109  CYS109      0.0903
     14  SG       113.0110   71.2950    3.3960 S.3   109  CYS109     -0.0805
     15  N        122.4880   74.2900   -4.1630 N.3   145  LYS145     -0.1231
     16  CA       121.1280   74.1060   -3.6750 C.3   145  LYS145      0.1693
     17  C        121.0260   74.0720   -2.1380 C.2   145  LYS145      0.2592
     18  O        120.0440   74.6140   -1.6100 O.2   145  LYS145     -0.2718
     19  CB       120.4790   72.8900   -4.3110 C.3   145  LYS145      0.0285
     20  CG       120.3000   73.1150   -5.7860 C.3   145  LYS145      0.0035
     21  CD       120.0420   71.7790   -6.3670 C.3   145  LYS145      0.0206
     22  CE       119.6560   71.9970   -7.7980 C.3   145  LYS145      0.1093
     23  NZ       120.1810   70.7910   -8.4580 N.3   145  LYS145     -0.1314
     24  N        122.0280   73.4930   -1.4460 N.am  146  ALA146     -0.1966
     25  CA       121.9210   73.2660   -0.0080 C.3   146  ALA146      0.1728
     26  C        122.4310   74.5490    0.6630 C.2   146  ALA146      0.2616
     27  O        123.4190   75.1700    0.2400 O.2   146  ALA146     -0.2715
     28  CB       122.7430   71.9900    0.4500 C.3   146  ALA146      0.0334
     29  N        121.7930   74.8990    1.7460 N.am  147  SER147     -0.1950
     30  CA       122.3290   75.9320    2.5760 C.3   147  SER147      0.1924
     31  C        123.5040   75.3320    3.3900 C.2   147  SER147      0.2314
     32  O        123.6390   74.0890    3.5480 O.2   147  SER147     -0.2863
     33  CB       121.2230   76.5480    3.4380 C.3   147  SER147      0.2116
     34  OG       120.7200   75.5770    4.2950 O.3   147  SER147     -0.2180
     35  N        122.9800   80.5980    2.7800 N.3   161  LYS161     -0.1245
     36  CA       123.5690   80.1820    1.4480 C.3   161  LYS161      0.1561
     37  C        124.9420   80.7430    1.0940 C.2   161  LYS161      0.2260
     38  O        125.7410   80.0250    0.4940 O.2   161  LYS161     -0.2867
     39  CB       122.6120   80.5120    0.3240 C.3   161  LYS161      0.0271
     40  CG       121.3310   79.8220    0.5360 C.3   161  LYS161      0.0035
     41  CD       120.7730   79.3360   -0.7520 C.3   161  LYS161      0.0206
     42  CE       120.1440   78.0200   -0.4000 C.3   161  LYS161      0.1093
     43  NZ       119.9920   77.3310   -1.6710 N.3   161  LYS161     -0.1314
     44  N        123.2170   71.7720    5.3550 N.3   170  ASP170     -0.1239
     45  CA       121.8650   71.6590    5.8910 C.3   170  ASP170      0.1674
     46  C        121.1420   70.6020    5.0300 C.2   170  ASP170      0.2266
     47  O        121.0040   70.7900    3.7790 O.2   170  ASP170     -0.2867
     48  CB       121.2640   73.0340    5.7620 C.3   170  ASP170      0.1410
     49  CG       119.7800   73.1120    6.0120 C.2   170  ASP170      0.3668
     50  OD1      119.0010   72.1420    5.8730 O.co2 170  ASP170     -0.2456
     51  OD2      119.3070   74.2540    6.4050 O.co2 170  ASP170     -0.2456
     52  N        117.9200   69.6780    5.1610 N.3   172  GLY172     -0.1225
     53  CA       116.4640   69.8470    5.0790 C.3   172  GLY172      0.1811
     54  C        115.6540   68.9430    6.0280 C.2   172  GLY172      0.2280
     55  O        114.4340   68.8460    5.8590 O.2   172  GLY172     -0.2866
     56  N        114.9740   68.1200   10.2560 N.3   174  PHE174     -0.1241
     57  CA       115.1240   68.8570   11.5380 C.3   174  PHE174      0.1605
     58  C        114.3610   68.1040   12.6220 C.2   174  PHE174      0.2264
     59  O        113.3600   67.3720   12.3430 O.2   174  PHE174     -0.2867
     60  CB       114.4720   70.2520   11.5080 C.3   174  PHE174      0.0534
     61  CG       114.7900   71.1060   10.2880 C.ar  174  PHE174     -0.0203
     62  CD1      115.6360   72.2460   10.4060 C.ar  174  PHE174     -0.0042
     63  CD2      114.2450   70.7870    9.0030 C.ar  174  PHE174     -0.0042
     64  CE1      115.9230   73.0610    9.3060 C.ar  174  PHE174     -0.0003
     65  CE2      114.5610   71.5780    7.8940 C.ar  174  PHE174     -0.0003
     66  CZ       115.3920   72.7120    8.0520 C.ar  174  PHE174     -0.0000
     67  N        112.9950   81.3880    4.0150 N.3   194  SER194     -0.1202
     68  CA       113.3130   79.9540    3.9210 C.3   194  SER194      0.2020
     69  C        113.5680   79.4040    5.3280 C.2   194  SER194      0.2619
     70  O        113.7240   80.1810    6.3330 O.2   194  SER194     -0.2717
     71  CB       114.5010   79.6330    2.9760 C.3   194  SER194      0.2103
     72  OG       114.1890   79.8100    1.6030 O.3   194  SER194     -0.2182
     73  N        113.6080   78.0690    5.4470 N.am  195  LEU195     -0.1965
     74  CA       113.8300   77.5120    6.7790 C.3   195  LEU195      0.1728
     75  C        115.1800   77.8670    7.3510 C.2   195  LEU195      0.2616
     76  O        115.2970   78.0130    8.6220 O.2   195  LEU195     -0.2715
     77  CB       113.6730   75.9980    6.8010 C.3   195  LEU195      0.0311
     78  CG       112.2460   75.5220    6.6790 C.3   195  LEU195      0.0022
     79  CD1      112.2940   74.0320    6.3610 C.3   195  LEU195      0.0001
     80  CD2      111.4770   75.8870    7.9440 C.3   195  LEU195      0.0001
     81  N        116.2170   77.9880    6.5130 N.am  196  TYR196     -0.1974
     82  CA       117.5460   78.2820    7.1100 C.3   196  TYR196      0.1639
     83  C        117.5050   79.6450    7.7440 C.2   196  TYR196      0.2290
     84  O        118.1750   79.8720    8.7660 O.2   196  TYR196     -0.2864
     85  CB       118.6610   78.0870    6.0980 C.3   196  TYR196      0.0560
     86  CG       118.6330   79.0680    4.9740 C.ar  196  TYR196     -0.0198
     87  CD1      118.1250   78.7050    3.7380 C.ar  196  TYR196     -0.0009
     88  CD2      119.1960   80.4020    5.1360 C.ar  196  TYR196     -0.0009
     89  CE1      118.1900   79.6070    2.6420 C.ar  196  TYR196      0.0417
     90  CE2      119.2460   81.2930    4.0810 C.ar  196  TYR196      0.0417
     91  CZ       118.7370   80.8880    2.8450 C.ar  196  TYR196      0.1957
     92  OH       118.7990   81.7960    1.8320 O.3   196  TYR196     -0.2866
     93  N        119.1770   66.5140   -2.0690 N.3   221  GLU221     -0.1245
     94  CA       117.9100   67.2950   -2.2670 C.3   221  GLU221      0.1567
     95  C        117.6330   67.2570   -3.7710 C.2   221  GLU221      0.2260
     96  O        118.5470   67.5030   -4.5790 O.2   221  GLU221     -0.2867
     97  CB       118.0090   68.7180   -1.7610 C.3   221  GLU221      0.0388
     98  CG       118.2130   68.7280   -0.2650 C.3   221  GLU221      0.1160
     99  CD       118.5860   70.1510    0.2760 C.2   221  GLU221      0.3649
    100  OE1      118.8670   70.2840    1.5190 O.co2 221  GLU221     -0.2457
    101  OE2      118.6080   71.1470   -0.5370 O.co2 221  GLU221     -0.2457
    102  N        116.2160   68.8460   -6.8160 N.3   223  ASP223     -0.1239
    103  CA       115.7750   70.2050   -7.2970 C.3   223  ASP223      0.1674
    104  C        115.8240   70.3420   -8.8170 C.2   223  ASP223      0.2266
    105  O        115.0610   71.0900   -9.4080 O.2   223  ASP223     -0.2867
    106  CB       116.6780   71.3070   -6.7200 C.3   223  ASP223      0.1410
    107  CG       116.4810   71.4600   -5.2680 C.2   223  ASP223      0.3668
    108  OD1      115.2620   71.5300   -4.9200 O.co2 223  ASP223     -0.2456
    109  OD2      117.4410   71.4560   -4.4630 O.co2 223  ASP223     -0.2456
@<TRIPOS>BOND
     1   105   104    2
     2   104   103    1
     3    23    22    1
     4    22    21    1
     5   103   102    1
     6   103   106    1
     7   106   107    1
     8    21    20    1
     9    20    19    1
    10   107   108   ar
    11   107   109   ar
    12    96    95    2
    13    19    16    1
    14    15    16    1
    15    95    94    1
    16    16    17    1
    17    94    93    1
    18    94    97    1
    19    17    18    2
    20    17    24   am
    21    97    98    1
    22    43    42    1
    23    24    25    1
    24    41    42    1
    25    41    40    1
    26   101    99   ar
    27    98    99    1
    28    25    28    1
    29    25    26    1
    30    27    26    2
    31    99   100   ar
    32    39    40    1
    33    39    36    1
    34    38    37    2
    35    26    29   am
    36    37    36    1
    37    36    35    1
    38    72    71    1
    39    29    30    1
    40    92    91    1
    41     1     2    1
    42    11    12    1
    43    11    10    1
    44    13    10    1
    45    13    14    1
    46    30    31    1
    47    30    33    1
    48     8     6   am
    49    89    91   ar
    50    89    87   ar
    51     5     6    1
    52     5     2    1
    53    91    90   ar
    54     6     7    2
    55    71    68    1
    56     2     3    1
    57    10     9    1
    58    31    32    2
    59    33    34    1
    60    87    86   ar
    61    47    46    2
    62    68    67    1
    63    68    69    1
    64    90    88   ar
    65     3     4    2
    66    86    88   ar
    67    86    85    1
    68    46    45    1
    69    53    52    1
    70    53    54    1
    71    69    73   am
    72    69    70    2
    73    44    45    1
    74    73    74    1
    75    48    45    1
    76    48    49    1
    77    55    54    2
    78    50    49   ar
    79    49    51   ar
    80    85    82    1
    81    79    78    1
    82    81    82    1
    83    81    75   am
    84    78    77    1
    85    78    80    1
    86    74    77    1
    87    74    75    1
    88    82    83    1
    89    75    76    2
    90    83    84    2
    91    65    66   ar
    92    65    63   ar
    93    66    64   ar
    94    63    61   ar
    95    64    62   ar
    96    56    57    1
    97    61    62   ar
    98    61    60    1
    99    60    57    1
   100    57    58    1
   101    59    58    2
