@<TRIPOS>MOLECULE
tmp/4jd2B00.pdb
 196 188 0 0 0
SMALL
GASTEIGER

@<TRIPOS>ATOM
      1  N         63.3020  -50.0120   -9.6200 N.3     9  ASP9       -0.1225
      2  CA        63.3890  -51.2350  -10.3960 C.3     9  ASP9        0.1805
      3  C         62.1430  -52.0470  -10.0690 C.2     9  ASP9        0.2598
      4  O         62.0580  -52.6820   -9.0180 O.2     9  ASP9       -0.2718
      5  CB        64.6580  -52.0220  -10.0450 C.3     9  ASP9        0.1424
      6  CG        64.6640  -53.4320  -10.6400 C.2     9  ASP9        0.3668
      7  OD1       64.0800  -53.6250  -11.7240 O.co2   9  ASP9       -0.2456
      8  OD2       65.2490  -54.3540  -10.0230 O.co2   9  ASP9       -0.2456
      9  N         61.1620  -51.9910  -10.9620 N.am   10  ASN10      -0.1960
     10  CA        59.9490  -52.7850  -10.8220 C.3    10  ASN10       0.1819
     11  C         60.2260  -54.2120  -11.2720 C.2    10  ASN10       0.2622
     12  O         60.1970  -54.5180  -12.4650 O.2    10  ASN10      -0.2715
     13  CB        58.8000  -52.2000  -11.6560 C.3    10  ASN10       0.1195
     14  CG        58.4110  -50.7940  -11.2280 C.2    10  ASN10       0.2630
     15  OD1       58.0280  -50.5550  -10.0780 O.2    10  ASN10      -0.2716
     16  ND2       58.4920  -49.8560  -12.1640 N.am   10  ASN10      -0.0877
     17  N         60.5100  -55.0840  -10.3160 N.am   11  GLY11      -0.1940
     18  CA        60.6490  -56.4980  -10.6150 C.3    11  GLY11       0.2014
     19  C         59.3030  -57.1530  -10.8720 C.2    11  GLY11       0.2640
     20  O         58.2470  -56.5590  -10.6390 O.2    11  GLY11      -0.2714
     21  N         59.3620  -58.3840  -11.3740 N.am   12  THR12      -0.1936
     22  CA        58.1910  -59.2430  -11.5200 C.3    12  THR12       0.2028
     23  C         57.7670  -59.7610  -10.1540 C.2    12  THR12       0.2643
     24  O         56.5710  -59.8840   -9.8630 O.2    12  THR12      -0.2714
     25  CB        58.4920  -60.4510  -12.4310 C.3    12  THR12       0.1808
     26  OG1       58.9820  -59.9920  -13.6990 O.3    12  THR12      -0.2208
     27  CG2       57.2430  -61.2850  -12.6500 C.3    12  THR12       0.0379
     28  N         58.7680  -60.0810   -9.3370 N.am   13  GLY13      -0.1939
     29  CA        58.5570  -60.5210   -7.9700 C.3    13  GLY13       0.2014
     30  C         58.5580  -59.3500   -7.0190 C.2    13  GLY13       0.2638
     31  O         57.5610  -59.0970   -6.3460 O.2    13  GLY13      -0.2714
     32  N         59.6710  -58.6170   -7.0000 N.am   14  PHE14      -0.1973
     33  CA        59.9310  -57.6010   -5.9830 C.3    14  PHE14       0.1639
     34  C         60.2080  -56.2180   -6.5460 C.2    14  PHE14       0.2290
     35  O         60.9440  -56.0620   -7.5140 O.2    14  PHE14      -0.2864
     36  CB        61.1180  -58.0340   -5.1250 C.3    14  PHE14       0.0560
     37  CG        60.8500  -59.2680   -4.3260 C.ar   14  PHE14      -0.0200
     38  CD1       60.9660  -60.5160   -4.9050 C.ar   14  PHE14      -0.0042
     39  CD2       60.4450  -59.1770   -3.0080 C.ar   14  PHE14      -0.0042
     40  CE1       60.7030  -61.6540   -4.1800 C.ar   14  PHE14      -0.0003
     41  CE2       60.1800  -60.3110   -2.2740 C.ar   14  PHE14      -0.0003
     42  CZ        60.3120  -61.5530   -2.8600 C.ar   14  PHE14      -0.0000
     43  N         62.1190  -52.8410   -5.9880 N.3    16  LYS16      -0.1245
     44  CA        63.2470  -52.2310   -5.2820 C.3    16  LYS16       0.1561
     45  C         63.2840  -50.7600   -5.6420 C.2    16  LYS16       0.2260
     46  O         63.5320  -50.4150   -6.7950 O.2    16  LYS16      -0.2867
     47  CB        64.5790  -52.8710   -5.6750 C.3    16  LYS16       0.0271
     48  CG        64.6620  -54.3620   -5.4340 C.3    16  LYS16       0.0035
     49  CD        63.7740  -55.1180   -6.4070 C.3    16  LYS16       0.0206
     50  CE        64.5040  -56.2950   -7.0160 C.3    16  LYS16       0.1093
     51  NZ        63.8380  -56.7460   -8.2620 N.3    16  LYS16      -0.1314
     52  N         56.5790  -61.5800  -16.2660 N.3    65  ASN65      -0.1225
     53  CA        57.8410  -61.7940  -16.9920 C.3    65  ASN65       0.1785
     54  C         58.5780  -60.4760  -17.3100 C.2    65  ASN65       0.2597
     55  O         59.1130  -60.2920  -18.4090 O.2    65  ASN65      -0.2718
     56  CB        57.5530  -62.5960  -18.2770 C.3    65  ASN65       0.1169
     57  CG        58.8090  -63.0590  -18.9960 C.2    65  ASN65       0.2627
     58  OD1       59.9280  -62.8620  -18.5260 O.2    65  ASN65      -0.2716
     59  ND2       58.6210  -63.6750  -20.1600 N.am   65  ASN65      -0.0877
     60  N         58.5910  -59.5570  -16.3480 N.am   66  GLY66      -0.1957
     61  CA        59.2810  -58.2790  -16.5100 C.3    66  GLY66       0.1869
     62  C         58.5320  -57.2360  -17.3270 C.2    66  GLY66       0.2309
     63  O         58.9710  -56.1030  -17.4170 O.2    66  GLY66      -0.2863
     64  N         68.0640  -52.2920  -18.5590 N.3   130  GLN130     -0.1245
     65  CA        68.6600  -52.9860  -17.4180 C.3   130  GLN130      0.1566
     66  C         70.0730  -53.4600  -17.6940 C.2   130  GLN130      0.2260
     67  O         71.0060  -53.1250  -16.9600 O.2   130  GLN130     -0.2867
     68  CB        67.8050  -54.1800  -17.0130 C.3   130  GLN130      0.0367
     69  CG        66.5290  -53.7740  -16.3080 C.3   130  GLN130      0.0905
     70  CD        65.7380  -54.9510  -15.7900 C.2   130  GLN130      0.2608
     71  OE1       66.1860  -56.1030  -15.8490 O.2   130  GLN130     -0.2717
     72  NE2       64.5500  -54.6680  -15.2710 N.am  130  GLN130     -0.0878
     73  N         70.9680  -62.1340  -16.1590 N.3   147  ASP147     -0.1239
     74  CA        70.0570  -61.6550  -15.1170 C.3   147  ASP147      0.1674
     75  C         69.0880  -62.7770  -14.8290 C.2   147  ASP147      0.2266
     76  O         68.2220  -63.0580  -15.6450 O.2   147  ASP147     -0.2867
     77  CB        69.2900  -60.3910  -15.5660 C.3   147  ASP147      0.1410
     78  CG        68.5520  -59.6810  -14.4040 C.2   147  ASP147      0.3668
     79  OD1       67.5240  -60.1980  -13.9080 O.co2 147  ASP147     -0.2456
     80  OD2       68.9890  -58.5810  -13.9990 O.co2 147  ASP147     -0.2456
     81  N         66.2760  -63.6130  -12.0870 N.3   149  GLY149     -0.1210
     82  CA        65.4990  -63.0750  -10.9800 C.3   149  GLY149      0.1956
     83  C         64.4070  -64.0300  -10.5550 C.2   149  GLY149      0.2612
     84  O         64.6720  -65.2060  -10.3170 O.2   149  GLY149     -0.2717
     85  N         63.1790  -63.5210  -10.4690 N.am  150  ASP150     -0.1959
     86  CA        62.0510  -64.2790   -9.9460 C.3   150  ASP150      0.1840
     87  C         61.3330  -64.9940  -11.0670 C.2   150  ASP150      0.2623
     88  O         61.1820  -66.2110  -11.0340 O.2   150  ASP150     -0.2715
     89  CB        61.0750  -63.3480   -9.2130 C.3   150  ASP150      0.1450
     90  CG        59.9290  -64.1000   -8.5500 C.2   150  ASP150      0.3671
     91  OD1       60.1910  -65.0280   -7.7610 O.co2 150  ASP150     -0.2456
     92  OD2       58.7580  -63.7630   -8.8130 O.co2 150  ASP150     -0.2456
     93  N         60.8940  -64.2290  -12.0600 N.am  151  GLY151     -0.1940
     94  CA        60.0800  -64.7640  -13.1450 C.3   151  GLY151      0.2014
     95  C         60.8750  -65.4640  -14.2340 C.2   151  GLY151      0.2638
     96  O         60.5770  -66.6090  -14.5900 O.2   151  GLY151     -0.2714
     97  N         61.8870  -64.7810  -14.7640 N.am  152  VAL152     -0.1977
     98  CA        62.6130  -65.2740  -15.9310 C.3   152  VAL152      0.1596
     99  C         64.1020  -64.9270  -15.8780 C.2   152  VAL152      0.2287
    100  O         64.4990  -63.9750  -15.1970 O.2   152  VAL152     -0.2864
    101  CB        61.9440  -64.7280  -17.2130 C.3   152  VAL152      0.0276
    102  CG1       62.8680  -64.7890  -18.4220 C.3   152  VAL152      0.0022
    103  CG2       60.6480  -65.4940  -17.4920 C.3   152  VAL152      0.0022
    104  N         63.7280  -67.8180  -10.0650 N.3   175  GLY175     -0.1225
    105  CA        63.3080  -67.9310   -8.6710 C.3   175  GLY175      0.1811
    106  C         62.0030  -68.6420   -8.3680 C.2   175  GLY175      0.2280
    107  O         61.9760  -69.5480   -7.5450 O.2   175  GLY175     -0.2866
    108  N         59.9640  -70.8430   -0.2320 N.3   203  ARG203     -0.1245
    109  CA        60.8640  -69.8480   -0.8060 C.3   203  ARG203      0.1563
    110  C         61.9780  -69.5260    0.1990 C.2   203  ARG203      0.2260
    111  O         63.1460  -69.4280   -0.1700 O.2   203  ARG203     -0.2867
    112  CB        60.1020  -68.5810   -1.1990 C.3   203  ARG203      0.0307
    113  CG        60.9520  -67.5340   -1.9060 C.3   203  ARG203      0.0489
    114  CD        60.1080  -66.3960   -2.4760 C.3   203  ARG203      0.2205
    115  NE        59.4420  -65.6310   -1.4260 N.pl3 203  ARG203     -0.0865
    116  CZ        60.0430  -64.7400   -0.6410 C.cat 203  ARG203      0.5346
    117  NH1       61.3370  -64.4710   -0.7740 N.pl3 203  ARG203      0.1354
    118  NH2       59.3420  -64.1070    0.2890 N.pl3 203  ARG203      0.1354
    119  N         64.4480  -72.2340    0.4530 N.3   206  LYS206     -0.1231
    120  CA        65.3120  -72.1800   -0.7120 C.3   206  LYS206      0.1693
    121  C         66.4010  -71.1530   -0.5200 C.2   206  LYS206      0.2591
    122  O         67.5730  -71.4530   -0.7140 O.2   206  LYS206     -0.2718
    123  CB        64.5210  -71.8120   -1.9560 C.3   206  LYS206      0.0285
    124  CG        65.3720  -71.6000   -3.1970 C.3   206  LYS206      0.0035
    125  CD        64.5740  -70.9150   -4.2820 C.3   206  LYS206      0.0206
    126  CE        64.3250  -69.4530   -3.9440 C.3   206  LYS206      0.1093
    127  NZ        63.9000  -68.6650   -5.1340 N.3   206  LYS206     -0.1314
    128  N         66.0110  -69.9360   -0.1600 N.am  207  GLU207     -0.1979
    129  CA        66.9790  -68.8580    0.0370 C.3   207  GLU207      0.1602
    130  C         67.9800  -69.2330    1.1040 C.2   207  GLU207      0.2287
    131  O         69.1710  -69.0060    0.9410 O.2   207  GLU207     -0.2864
    132  CB        66.2820  -67.5460    0.4060 C.3   207  GLU207      0.0415
    133  CG        65.5000  -66.9410   -0.7550 C.3   207  GLU207      0.1163
    134  CD        64.6590  -65.7380   -0.3750 C.2   207  GLU207      0.3649
    135  OE1       64.8930  -65.1510    0.7050 O.co2 207  GLU207     -0.2457
    136  OE2       63.7590  -65.3850   -1.1710 O.co2 207  GLU207     -0.2457
    137  N         70.9310  -60.1770  -10.3070 N.3   294  GLY294     -0.1210
    138  CA        69.6250  -60.6620   -9.8680 C.3   294  GLY294      0.1956
    139  C         69.6960  -61.6630   -8.7370 C.2   294  GLY294      0.2612
    140  O         70.7480  -62.2490   -8.4690 O.2   294  GLY294     -0.2717
    141  N         68.5510  -61.8670   -8.0940 N.am  295  GLY295     -0.1942
    142  CA        68.4530  -62.7040   -6.9010 C.3   295  GLY295      0.2014
    143  C         68.8490  -64.1540   -7.0710 C.2   295  GLY295      0.2639
    144  O         69.4400  -64.7470   -6.1750 O.2   295  GLY295     -0.2714
    145  N         68.5420  -64.7360   -8.2210 N.am  296  SER296     -0.1949
    146  CA        68.8060  -66.1590   -8.4220 C.3   296  SER296      0.1924
    147  C         70.2660  -66.4690   -8.8240 C.2   296  SER296      0.2314
    148  O         70.5740  -67.5850   -9.2530 O.2   296  SER296     -0.2863
    149  CB        67.7980  -66.7410   -9.4270 C.3   296  SER296      0.2116
    150  OG        66.5110  -66.8660   -8.8320 O.3   296  SER296     -0.2180
    151  N         72.6470  -65.8140   -6.5180 N.3   298  MET298     -0.1230
    152  CA        73.2740  -65.8010   -5.2060 C.3   298  MET298      0.1702
    153  C         73.5330  -67.2020   -4.6430 C.2   298  MET298      0.2592
    154  O         74.1550  -67.3280   -3.5780 O.2   298  MET298     -0.2718
    155  CB        72.3980  -65.0130   -4.2230 C.3   298  MET298      0.0401
    156  CG        72.1950  -63.5490   -4.5740 C.3   298  MET298      0.0596
    157  SD        73.7500  -62.6860   -4.8620 S.3   298  MET298     -0.1393
    158  CE        74.6450  -62.9830   -3.3340 C.3   298  MET298      0.0692
    159  N         73.0570  -68.2500   -5.3210 N.am  299  TYR299     -0.1963
    160  CA        73.2630  -69.6070   -4.8250 C.3   299  TYR299      0.1756
    161  C         74.7720  -69.8400   -4.7640 C.2   299  TYR299      0.2461
    162  O         75.4670  -69.6270   -5.7540 O.2   299  TYR299     -0.2730
    163  CB        72.6100  -70.6750   -5.7150 C.3   299  TYR299      0.0574
    164  CG        71.1060  -70.5940   -5.8800 C.ar  299  TYR299     -0.0198
    165  CD1       70.2410  -71.1430   -4.9530 C.ar  299  TYR299     -0.0009
    166  CD2       70.5600  -70.0060   -6.9910 C.ar  299  TYR299     -0.0009
    167  CE1       68.8580  -71.0810   -5.1230 C.ar  299  TYR299      0.0417
    168  CE2       69.1910  -69.9330   -7.1780 C.ar  299  TYR299      0.0417
    169  CZ        68.3330  -70.4710   -6.2500 C.ar  299  TYR299      0.1957
    170  OH        66.9680  -70.3700   -6.4850 O.3   299  TYR299     -0.2866
    171  N         75.2870  -70.2310   -3.5880 N.am  300  PRO300     -0.2727
    172  CA        76.6850  -70.6290   -3.4220 C.3   300  PRO300      0.1402
    173  C         77.1480  -71.6680   -4.4290 C.2   300  PRO300      0.2269
    174  O         76.5580  -72.7280   -4.5620 O.2   300  PRO300     -0.2865
    175  CB        76.7030  -71.2350   -2.0210 C.3   300  PRO300      0.0296
    176  CG        75.6300  -70.5110   -1.3010 C.3   300  PRO300      0.0237
    177  CD        74.5590  -70.2530   -2.3070 C.3   300  PRO300      0.0939
    178  N         72.8800  -58.8090   -6.2990 N.3   340  LYS340     -0.1231
    179  CA        71.4600  -59.1340   -6.1490 C.3   340  LYS340      0.1693
    180  C         70.5550  -58.0450   -6.7390 C.2   340  LYS340      0.2592
    181  O         69.5150  -58.3460   -7.3380 O.2   340  LYS340     -0.2718
    182  CB        71.0960  -59.3850   -4.6770 C.3   340  LYS340      0.0285
    183  CG        69.7760  -60.1320   -4.5050 C.3   340  LYS340      0.0035
    184  CD        69.6020  -60.8070   -3.1490 C.3   340  LYS340      0.0206
    185  CE        68.5360  -60.1430   -2.2860 C.3   340  LYS340      0.1093
    186  NZ        68.0530  -61.0400   -1.1920 N.3   340  LYS340     -0.1314
    187  N         70.9590  -56.7860   -6.5770 N.am  341  HIS341     -0.1976
    188  CA        70.1830  -55.6530   -7.0760 C.3   341  HIS341      0.1656
    189  C         71.0780  -54.7030   -7.8660 C.2   341  HIS341      0.2291
    190  O         71.0800  -53.4970   -7.6280 O.2   341  HIS341     -0.2864
    191  CB        69.5190  -54.9110   -5.9080 C.3   341  HIS341      0.0771
    192  CG        68.6970  -55.7900   -5.0140 C.ar  341  HIS341      0.0820
    193  ND1       68.8730  -55.8320   -3.6470 N.ar  341  HIS341     -0.2267
    194  CD2       67.6940  -56.6580   -5.2910 C.ar  341  HIS341      0.1154
    195  CE1       68.0140  -56.6880   -3.1220 C.ar  341  HIS341      0.1986
    196  NE2       67.2870  -57.2030   -4.0980 N.ar  341  HIS341     -0.2212
@<TRIPOS>BOND
     1    59    57   am
     2    57    58    2
     3    57    56    1
     4    64    65    1
     5   102   101    1
     6    55    54    2
     7    56    53    1
     8    66    65    1
     9    66    67    2
    10   103   101    1
    11    65    68    1
    12    63    62    2
    13    62    61    1
    14    54    53    1
    15    54    60   am
    16   101    98    1
    17    68    69    1
    18    53    52    1
    19    61    60    1
    20    69    70    1
    21    73    74    1
    22    98    99    1
    23    98    97    1
    24    99   100    2
    25    71    70    2
    26    70    72   am
    27    76    75    2
    28    77    74    1
    29    77    78    1
    30    74    75    1
    31    97    95   am
    32    96    95    2
    33    78    80   ar
    34    78    79   ar
    35    95    94    1
    36    26    25    1
    37    94    93    1
    38    27    25    1
    39    12    11    2
    40    25    22    1
    41    16    14   am
    42    81    82    1
    43    93    87   am
    44     7     6   ar
    45    13    14    1
    46    13    10    1
    47    22    21    1
    48    22    23    1
    49    21    19   am
    50    11    10    1
    51    11    17   am
    52    14    15    2
    53    87    88    2
    54    87    86    1
    55    82    83    1
    56     9    10    1
    57     9     3   am
    58    19    20    2
    59    19    18    1
    60     6     5    1
    61     6     8   ar
    62    18    17    1
    63    83    85   am
    64    83    84    2
    65    85    86    1
    66     2     3    1
    67     2     5    1
    68     2     1    1
    69   137   138    1
    70    23    24    2
    71    23    28   am
    72     3     4    2
    73   104   105    1
    74    86    89    1
    75   138   139    1
    76   149   150    1
    77   149   146    1
    78    28    29    1
    79   148   147    2
    80    89    90    1
    81   147   146    1
    82    92    90   ar
    83   139   140    2
    84   139   141   am
    85   105   106    1
    86    90    91   ar
    87   146   145    1
    88   106   107    2
    89    51    50    1
    90   145   143   am
    91   141   142    1
    92    29    30    1
    93   189   190    2
    94   189   188    1
    95    35    34    2
    96   181   180    2
    97   168   166   ar
    98   168   169   ar
    99   188   187    1
   100   188   191    1
   101   143   142    1
   102   143   144    2
   103    30    32   am
   104    30    31    2
   105    50    49    1
   106    32    33    1
   107   166   164   ar
   108    46    45    2
   109   180   187   am
   110   180   179    1
   111    34    33    1
   112   151   152    1
   113   170   169    1
   114    49    48    1
   115   178   179    1
   116   169   167   ar
   117   179   182    1
   118    43    44    1
   119    33    36    1
   120   191   192    1
   121   164   163    1
   122   164   165   ar
   123   162   161    2
   124   163   160    1
   125    47    48    1
   126    47    44    1
   127    45    44    1
   128   159   160    1
   129   159   153   am
   130   194   192   ar
   131   194   196   ar
   132   152   153    1
   133   152   155    1
   134   127   126    1
   135    36    37    1
   136   167   165   ar
   137   192   193   ar
   138    38    37   ar
   139    38    40   ar
   140   157   156    1
   141   157   158    1
   142   160   161    1
   143   161   171   am
   144   182   183    1
   145   153   154    2
   146   156   155    1
   147   174   173    2
   148   183   184    1
   149   173   172    1
   150    37    39   ar
   151   125   126    1
   152   125   124    1
   153    40    42   ar
   154   196   195   ar
   155   193   195   ar
   156   171   172    1
   157   171   177    1
   158   172   175    1
   159   124   123    1
   160   184   185    1
   161    39    41   ar
   162    42    41   ar
   163   114   113    1
   164   114   115    1
   165   177   176    1
   166   185   186    1
   167   175   176    1
   168   123   120    1
   169   113   112    1
   170   115   116    2
   171   112   109    1
   172   136   134   ar
   173   109   108    1
   174   109   110    1
   175   117   116    1
   176   133   134    1
   177   133   132    1
   178   122   121    2
   179   120   121    1
   180   120   119    1
   181   116   118    1
   182   121   128   am
   183   134   135   ar
   184   111   110    2
   185   128   129    1
   186   129   132    1
   187   129   130    1
   188   131   130    2
