@<TRIPOS>MOLECULE
tmp/4jd4B00.pdb
 119 111 0 0 0
SMALL
GASTEIGER

@<TRIPOS>ATOM
      1  N        -16.7440   19.1530  -16.8060 N.3    44  LYS44      -0.1227
      2  CA       -15.4000   19.1300  -16.2560 C.3    44  LYS44       0.1736
      3  C        -15.4560   19.0470  -14.7580 C.2    44  LYS44       0.2596
      4  O        -16.1560   19.8490  -14.1310 O.2    44  LYS44      -0.2718
      5  CB       -14.7730   20.4660  -16.7010 C.3    44  LYS44       0.0541
      6  CG       -13.4040   20.7270  -16.0560 C.2    44  LYS44      -0.0272
      7  CD       -12.2530   19.8130  -16.5010 C.2    44  LYS44      -0.0103
      8  CE       -10.9820   19.8510  -15.5930 C.3    44  LYS44       0.1350
      9  NZ        -9.7990   18.8630  -16.0260 N.3    44  LYS44      -0.1262
     10  N        -14.5690   18.2360  -14.1710 N.am   45  SER45      -0.1952
     11  CA       -14.5070   18.1620  -12.6910 C.3    45  SER45       0.1924
     12  C        -14.1590   19.5290  -12.1720 C.2    45  SER45       0.2314
     13  O        -13.3110   20.2320  -12.6870 O.2    45  SER45      -0.2863
     14  CB       -13.4260   17.2640  -12.2050 C.3    45  SER45       0.2116
     15  OG       -13.7050   15.9070  -12.5390 O.3    45  SER45      -0.2180
     16  N        -10.2450   27.8340  -11.4560 N.3    51  ARG51      -0.1245
     17  CA        -8.8370   27.5780  -11.5220 C.3    51  ARG51       0.1563
     18  C         -8.3660   27.7850  -12.9590 C.2    51  ARG51       0.2260
     19  O         -8.9930   27.3500  -13.9100 O.2    51  ARG51      -0.2867
     20  CB        -8.5190   26.1200  -11.1540 C.3    51  ARG51       0.0307
     21  CG        -8.8710   25.7260   -9.7570 C.3    51  ARG51       0.0489
     22  CD        -8.6410   24.2460   -9.4720 C.3    51  ARG51       0.2205
     23  NE        -7.3020   23.7820   -9.8050 N.pl3  51  ARG51      -0.0865
     24  CZ        -6.2920   23.6620   -8.9570 C.cat  51  ARG51       0.5346
     25  NH1       -6.4050   24.1450   -7.7220 N.pl3  51  ARG51       0.1354
     26  NH2       -5.1280   23.1690   -9.3040 N.pl3  51  ARG51       0.1354
     27  N         -1.3380   14.1220  -19.8810 N.3    68  ASN68      -0.1225
     28  CA        -1.8180   15.4170  -19.4430 C.3    68  ASN68       0.1785
     29  C         -1.4740   15.6020  -18.0070 C.2    68  ASN68       0.2598
     30  O         -1.5890   14.7370  -17.1490 O.2    68  ASN68      -0.2718
     31  CB        -3.3340   15.6140  -19.6900 C.3    68  ASN68       0.1169
     32  CG        -4.1680   15.0880  -18.5690 C.2    68  ASN68       0.2627
     33  OD1       -4.4090   15.7880  -17.5410 O.2    68  ASN68      -0.2716
     34  ND2       -4.7140   13.9180  -18.7280 N.am   68  ASN68      -0.0877
     35  N         -1.1950   16.8410  -17.6700 N.am   69  SER69      -0.1938
     36  CA        -1.1600   17.3670  -16.3110 C.3    69  SER69       0.2055
     37  C         -1.9030   18.7070  -16.3480 C.2    69  SER69       0.2643
     38  O         -1.2450   19.7710  -16.1320 O.2    69  SER69      -0.2714
     39  CB         0.2410   17.4710  -15.6870 C.3    69  SER69       0.2130
     40  OG         0.7190   16.1260  -15.4950 O.3    69  SER69      -0.2179
     41  N         -3.1990   18.7030  -16.5470 N.am   70  MET70      -0.1962
     42  CA        -3.9280   19.9780  -16.7630 C.3    70  MET70       0.1736
     43  C         -3.9190   20.8180  -15.4890 C.2    70  MET70       0.2617
     44  O         -3.9870   22.0580  -15.6330 O.2    70  MET70      -0.2715
     45  CB        -5.3110   19.6510  -17.1700 C.3    70  MET70       0.0427
     46  CG        -5.5450   18.8020  -18.4010 C.3    70  MET70       0.0599
     47  SD        -4.8560   19.5220  -19.8720 S.3    70  MET70      -0.1393
     48  CE        -5.9030   20.8750  -20.1530 C.3    70  MET70       0.0692
     49  N         -3.9550   20.2220  -14.2910 N.am   71  GLY71      -0.1940
     50  CA        -4.0750   20.9920  -13.0450 C.3    71  GLY71       0.2014
     51  C         -5.4870   21.4290  -12.7090 C.2    71  GLY71       0.2638
     52  O         -5.7060   22.4530  -12.0300 O.2    71  GLY71      -0.2714
     53  N         -6.4900   20.7600  -13.2360 N.am   72  LEU72      -0.1977
     54  CA        -7.8950   21.0430  -12.9940 C.3    72  LEU72       0.1596
     55  C         -8.3200   22.4740  -13.3710 C.2    72  LEU72       0.2287
     56  O         -8.9750   23.1440  -12.5790 O.2    72  LEU72      -0.2864
     57  CB        -8.4000   20.5980  -11.6040 C.3    72  LEU72       0.0297
     58  CG        -9.9130   20.3430  -11.6770 C.3    72  LEU72       0.0022
     59  CD1      -10.1720   18.9130  -12.0150 C.3    72  LEU72       0.0001
     60  CD2      -10.5060   20.7720  -10.3240 C.3    72  LEU72       0.0001
     61  N        -14.5280   17.6630   -8.0060 N.3   100  SER100     -0.1217
     62  CA       -13.2680   17.1980   -7.5040 C.3   100  SER100      0.1889
     63  C        -12.6620   18.2130   -6.5750 C.2   100  SER100      0.2288
     64  O        -11.6010   18.7960   -6.8500 O.2   100  SER100     -0.2866
     65  CB       -12.3530   16.8540   -8.6270 C.3   100  SER100      0.2089
     66  OG       -11.3960   15.9090   -8.1510 O.3   100  SER100     -0.2183
     67  N        -10.7180   19.8560   -3.2960 N.3   102  LEU102     -0.1245
     68  CA        -9.3680   19.6580   -2.7370 C.3   102  LEU102      0.1561
     69  C         -9.3260   19.2020   -1.2630 C.2   102  LEU102      0.2260
     70  O         -8.2360   19.0040   -0.7080 O.2   102  LEU102     -0.2867
     71  CB        -8.5670   20.9660   -2.8750 C.3   102  LEU102      0.0270
     72  CG        -8.4810   21.6590   -4.2370 C.3   102  LEU102      0.0019
     73  CD1       -7.6010   22.9190   -4.2650 C.3   102  LEU102      0.0001
     74  CD2       -8.0000   20.6840   -5.2040 C.3   102  LEU102      0.0001
     75  N        -15.1190   12.6840   -8.4660 N.3   128  ASN128     -0.1240
     76  CA       -13.7750   12.3080   -8.8790 C.3   128  ASN128      0.1653
     77  C        -12.8860   12.0790   -7.7220 C.2   128  ASN128      0.2266
     78  O        -12.4000   13.0420   -7.1440 O.2   128  ASN128     -0.2867
     79  CB       -13.2710   13.3590   -9.8500 C.3   128  ASN128      0.1155
     80  CG       -11.8850   13.0840  -10.3590 C.2   128  ASN128      0.2627
     81  OD1      -11.3090   12.0820  -10.0910 O.2   128  ASN128     -0.2716
     82  ND2      -11.4090   14.0090  -11.1850 N.am  128  ASN128     -0.0877
     83  N         -9.8530   10.8420   -7.8880 N.3   130  SER130     -0.1202
     84  CA        -8.4180   11.2320   -8.0750 C.3   130  SER130      0.2020
     85  C         -8.0890   12.6490   -7.5730 C.2   130  SER130      0.2619
     86  O         -7.0570   13.1870   -7.8720 O.2   130  SER130     -0.2717
     87  CB        -8.0400   11.0390   -9.4970 C.3   130  SER130      0.2103
     88  OG        -8.1830    9.6180   -9.7800 O.3   130  SER130     -0.2182
     89  N         -9.0090   13.3460   -6.9020 N.am  131  CYS131     -0.1956
     90  CA        -8.6610   14.5990   -6.2510 C.3   131  CYS131      0.1828
     91  C         -7.3970   14.3780   -5.3710 C.2   131  CYS131      0.2467
     92  O         -7.1230   13.2810   -4.7720 O.2   131  CYS131     -0.2730
     93  CB        -9.8750   15.1110   -5.4350 C.3   131  CYS131      0.0996
     94  SG       -10.7290   13.9360   -4.3390 S.3   131  CYS131     -0.0797
     95  N         -6.5970   15.4320   -5.2060 N.am  132  PRO132     -0.2726
     96  CA        -5.4340   15.3150   -4.4170 C.3   132  PRO132      0.1402
     97  C         -5.8900   15.3720   -2.9510 C.2   132  PRO132      0.2269
     98  O         -6.8850   16.0040   -2.5590 O.2   132  PRO132     -0.2865
     99  CB        -4.6450   16.5840   -4.7910 C.3   132  PRO132      0.0296
    100  CG        -5.7280   17.5680   -5.0210 C.3   132  PRO132      0.0237
    101  CD        -6.8150   16.8070   -5.7110 C.3   132  PRO132      0.0939
    102  N        -10.0110    6.5690  -14.6020 N.3   195  ASN195     -0.1225
    103  CA        -9.2170    7.7720  -14.8490 C.3   195  ASN195      0.1785
    104  C         -7.8920    7.4360  -15.5340 C.2   195  ASN195      0.2597
    105  O         -7.5850    6.2830  -15.8000 O.2   195  ASN195     -0.2718
    106  CB        -9.0300    8.5430  -13.5130 C.3   195  ASN195      0.1169
    107  CG        -9.0460   10.0490  -13.6440 C.2   195  ASN195      0.2627
    108  OD1       -8.3560   10.5880  -14.5190 O.2   195  ASN195     -0.2716
    109  ND2       -9.8090   10.7650  -12.8140 N.am  195  ASN195     -0.0877
    110  N         -7.0980    8.4560  -15.8440 N.am  196  SER196     -0.1952
    111  CA        -5.8260    8.2640  -16.5230 C.3   196  SER196      0.1924
    112  C         -4.9060    7.4180  -15.6800 C.2   196  SER196      0.2314
    113  O         -4.9620    7.3580  -14.4390 O.2   196  SER196     -0.2863
    114  CB        -5.2030    9.6290  -16.8940 C.3   196  SER196      0.2116
    115  OG        -5.0700   10.4630  -15.8090 O.3   196  SER196     -0.2180
    116  N         -0.8030   12.0980  -16.5460 N.3   220  GLY220     -0.1225
    117  CA        -1.6550   10.9070  -16.7070 C.3   220  GLY220      0.1811
    118  C         -1.7710   10.4740  -18.1380 C.2   220  GLY220      0.2280
    119  O         -1.9330   11.3280  -19.0240 O.2   220  GLY220     -0.2866
@<TRIPOS>BOND
     1    48    47    1
     2    27    28    1
     3    47    46    1
     4    31    28    1
     5    31    32    1
     6    28    29    1
     7   119   118    2
     8    34    32   am
     9    32    33    2
    10    46    45    1
    11   118   117    1
    12    29    35   am
    13    29    30    2
    14    35    36    1
    15    45    42    1
    16   114   111    1
    17   114   115    1
    18     1     2    1
    19    42    41    1
    20    42    43    1
    21   117   116    1
    22     5     2    1
    23     5     6    1
    24    41    37   am
    25   111   110    1
    26   111   112    1
    27     7     6    2
    28     7     8    1
    29    37    36    1
    30    37    38    2
    31    36    39    1
    32     2     3    1
    33     9     8    1
    34   110   104   am
    35   105   104    2
    36    39    40    1
    37   112   113    2
    38    44    43    2
    39   104   103    1
    40    43    49   am
    41   103   102    1
    42   103   106    1
    43     3    10   am
    44     3     4    2
    45   108   107    2
    46    49    50    1
    47    10    11    1
    48    19    18    2
    49   107   106    1
    50   107   109   am
    51    55    54    1
    52    55    56    2
    53    53    54    1
    54    53    51   am
    55    50    51    1
    56    54    57    1
    57    18    17    1
    58    51    52    2
    59    11    14    1
    60    11    12    1
    61    13    12    2
    62    15    14    1
    63    59    58    1
    64    58    57    1
    65    58    60    1
    66    17    16    1
    67    17    20    1
    68    82    80   am
    69    20    21    1
    70    80    81    2
    71    80    79    1
    72    79    76    1
    73    23    22    1
    74    23    24    2
    75    88    87    1
    76    21    22    1
    77    87    84    1
    78    26    24    1
    79    24    25    1
    80    76    75    1
    81    76    77    1
    82    65    66    1
    83    65    62    1
    84    84    83    1
    85    84    85    1
    86    61    62    1
    87    86    85    2
    88    77    78    2
    89    85    89   am
    90    62    63    1
    91    89    90    1
    92    64    63    2
    93    90    93    1
    94    90    91    1
    95   101    95    1
    96   101   100    1
    97    93    94    1
    98    91    95   am
    99    91    92    2
   100    95    96    1
   101    74    72    1
   102   100    99    1
   103    99    96    1
   104    96    97    1
   105    73    72    1
   106    72    71    1
   107    67    68    1
   108    97    98    2
   109    71    68    1
   110    68    69    1
   111    69    70    2
