@<TRIPOS>MOLECULE
tmp/4jd6C00.pdb
 189 187 0 0 0
SMALL
GASTEIGER

@<TRIPOS>ATOM
      1  N         -5.2400   -2.3690   10.1590 N.3    21  SER21      -0.1202
      2  CA        -3.9490   -1.7910    9.7820 C.3    21  SER21       0.2020
      3  C         -3.5350   -0.6360   10.6920 C.2    21  SER21       0.2618
      4  O         -2.3620   -0.5110   11.0480 O.2    21  SER21      -0.2717
      5  CB        -3.9630   -1.3320    8.3240 C.3    21  SER21       0.2103
      6  OG        -4.1960   -2.4220    7.4500 O.3    21  SER21      -0.2182
      7  N         -4.5000    0.2040   11.0610 N.am   22  PHE22      -0.1975
      8  CA        -4.2340    1.3520   11.9240 C.3    22  PHE22       0.1639
      9  C         -4.7200    1.0890   13.3480 C.2    22  PHE22       0.2290
     10  O         -5.8940    0.7800   13.5650 O.2    22  PHE22      -0.2864
     11  CB        -4.8810    2.6230   11.3590 C.3    22  PHE22       0.0560
     12  CG        -4.4900    2.9270    9.9370 C.ar   22  PHE22      -0.0200
     13  CD1       -5.3540    2.6310    8.8870 C.ar   22  PHE22      -0.0042
     14  CD2       -3.2600    3.5110    9.6450 C.ar   22  PHE22      -0.0042
     15  CE1       -4.9990    2.9080    7.5750 C.ar   22  PHE22      -0.0003
     16  CE2       -2.9000    3.7910    8.3350 C.ar   22  PHE22      -0.0003
     17  CZ        -3.7710    3.4890    7.2990 C.ar   22  PHE22      -0.0000
     18  N         -3.8940    4.5730    3.4220 N.3    79  VAL79      -0.1231
     19  CA        -3.1020    3.7410    2.5230 C.3    79  VAL79       0.1692
     20  C         -2.7170    2.4440    3.2340 C.2    79  VAL79       0.2592
     21  O         -1.8120    2.4310    4.0730 O.2    79  VAL79      -0.2718
     22  CB        -1.8340    4.4760    2.0320 C.3    79  VAL79       0.0266
     23  CG1       -1.2170    3.7400    0.8540 C.3    79  VAL79       0.0020
     24  CG2       -2.1580    5.9110    1.6410 C.3    79  VAL79       0.0020
     25  N         -3.4140    1.3600    2.8980 N.am   80  ALA80      -0.1966
     26  CA        -3.2170    0.0750    3.5710 C.3    80  ALA80       0.1728
     27  C         -3.4540   -1.1320    2.6650 C.2    80  ALA80       0.2616
     28  O         -4.3810   -1.1450    1.8510 O.2    80  ALA80      -0.2715
     29  CB        -4.1000   -0.0130    4.8080 C.3    80  ALA80       0.0334
     30  N         -2.6010   -2.1410    2.8250 N.am   81  VAL81      -0.1977
     31  CA        -2.7210   -3.4140    2.1180 C.3    81  VAL81       0.1596
     32  C         -2.8670   -4.5270    3.1540 C.2    81  VAL81       0.2287
     33  O         -2.1660   -4.5320    4.1690 O.2    81  VAL81      -0.2864
     34  CB        -1.4880   -3.6900    1.2220 C.3    81  VAL81       0.0276
     35  CG1       -1.5800   -5.0570    0.5580 C.3    81  VAL81       0.0022
     36  CG2       -1.3300   -2.6040    0.1680 C.3    81  VAL81       0.0022
     37  N         -1.6950  -10.0430    1.3390 N.3    85  HIS85      -0.1226
     38  CA        -1.3760   -9.6800   -0.0440 C.3    85  HIS85       0.1752
     39  C         -0.1780   -8.7750   -0.1890 C.2    85  HIS85       0.2596
     40  O         -0.0200   -8.1080   -1.2160 O.2    85  HIS85      -0.2718
     41  CB        -2.5980   -9.0670   -0.7240 C.3    85  HIS85       0.0759
     42  CG        -3.7080  -10.0570   -0.9890 C.ar   85  HIS85       0.0818
     43  ND1       -3.8660  -10.6660   -2.1780 N.ar   85  HIS85      -0.2268
     44  CD2       -4.7210  -10.5370   -0.1640 C.ar   85  HIS85       0.1154
     45  CE1       -4.9280  -11.4910   -2.1210 C.ar   85  HIS85       0.1986
     46  NE2       -5.4510  -11.4100   -0.8880 N.ar   85  HIS85      -0.2212
     47  N          0.6790   -8.7450    0.8290 N.am   86  ARG86      -0.1966
     48  CA         1.9050   -7.9390    0.7840 C.3    86  ARG86       0.1729
     49  C          2.9930   -8.5960   -0.0720 C.2    86  ARG86       0.2616
     50  O          2.9040   -9.7850   -0.3930 O.2    86  ARG86      -0.2715
     51  CB         2.4280   -7.6430    2.1960 C.3    86  ARG86       0.0348
     52  CG         2.6880   -8.8720    3.0530 C.3    86  ARG86       0.0492
     53  CD         3.6600   -8.5610    4.1760 C.3    86  ARG86       0.2205
     54  NE         5.0550   -8.6520    3.7470 N.pl3  86  ARG86      -0.0865
     55  CZ         6.1040   -8.5850    4.5630 C.cat  86  ARG86       0.5346
     56  NH1        7.3320   -8.6810    4.0720 N.pl3  86  ARG86       0.1354
     57  NH2        5.9340   -8.4260    5.8710 N.pl3  86  ARG86       0.1354
     58  N          4.0100   -7.8090   -0.4310 N.am   87  ARG87      -0.1963
     59  CA         5.1160   -8.2380   -1.3070 C.3    87  ARG87       0.1729
     60  C          4.6540   -8.6510   -2.7110 C.2    87  ARG87       0.2616
     61  O          5.3540   -9.3850   -3.4160 O.2    87  ARG87      -0.2715
     62  CB         5.9610   -9.3510   -0.6570 C.3    87  ARG87       0.0348
     63  CG         6.7450   -8.9460    0.5880 C.3    87  ARG87       0.0492
     64  CD         7.9630   -8.0870    0.2670 C.3    87  ARG87       0.2205
     65  NE         7.6080   -6.6790    0.0940 N.pl3  87  ARG87      -0.0865
     66  CZ         7.5670   -5.7820    1.0760 C.cat  87  ARG87       0.5346
     67  NH1        7.8650   -6.1300    2.3220 N.pl3  87  ARG87       0.1354
     68  NH2        7.2270   -4.5300    0.8110 N.pl3  87  ARG87       0.1354
     69  N          3.4820   -8.1660   -3.1100 N.am   88  ARG88      -0.1963
     70  CA         2.8780   -8.5310   -4.3870 C.3    88  ARG88       0.1729
     71  C          2.9560   -7.3800   -5.3890 C.2    88  ARG88       0.2617
     72  O          2.7100   -7.5680   -6.5820 O.2    88  ARG88      -0.2715
     73  CB         1.4210   -8.9530   -4.1750 C.3    88  ARG88       0.0348
     74  CG         0.9140  -10.0100   -5.1470 C.3    88  ARG88       0.0492
     75  CD         1.3380  -11.4170   -4.7400 C.3    88  ARG88       0.2205
     76  NE         0.7170  -11.8480   -3.4870 N.pl3  88  ARG88      -0.0865
     77  CZ        -0.4700  -12.4430   -3.3940 C.cat  88  ARG88       0.5346
     78  NH1       -1.1900  -12.6880   -4.4820 N.pl3  88  ARG88       0.1354
     79  NH2       -0.9420  -12.7960   -2.2050 N.pl3  88  ARG88       0.1354
     80  N          3.3090   -6.1950   -4.8960 N.am   89  GLY89      -0.1940
     81  CA         3.3630   -4.9920   -5.7200 C.3    89  GLY89       0.2014
     82  C          2.0130   -4.3070   -5.7980 C.2    89  GLY89       0.2639
     83  O          1.6580   -3.7310   -6.8280 O.2    89  GLY89      -0.2714
     84  N          1.2640   -4.3670   -4.6980 N.am   90  LEU90      -0.1963
     85  CA        -0.0960   -3.8360   -4.6470 C.3    90  LEU90       0.1728
     86  C         -0.1170   -2.3360   -4.3490 C.2    90  LEU90       0.2616
     87  O         -1.0140   -1.6230   -4.8020 O.2    90  LEU90      -0.2715
     88  CB        -0.9290   -4.6020   -3.6150 C.3    90  LEU90       0.0311
     89  CG        -2.3350   -5.0420   -4.0390 C.3    90  LEU90       0.0022
     90  CD1       -2.2650   -6.2180   -5.0030 C.3    90  LEU90       0.0001
     91  CD2       -3.1780   -5.4090   -2.8280 C.3    90  LEU90       0.0001
     92  N          0.8680   -1.8700   -3.5840 N.am   91  LEU91      -0.1963
     93  CA         1.0340   -0.4420   -3.3040 C.3    91  LEU91       0.1728
     94  C          1.5160    0.3020   -4.5490 C.2    91  LEU91       0.2616
     95  O          1.1070    1.4400   -4.7970 O.2    91  LEU91      -0.2715
     96  CB         2.0140   -0.2260   -2.1430 C.3    91  LEU91       0.0311
     97  CG         2.3770    1.2100   -1.7440 C.3    91  LEU91       0.0022
     98  CD1        1.3130    1.8160   -0.8430 C.3    91  LEU91       0.0001
     99  CD2        3.7390    1.2570   -1.0680 C.3    91  LEU91       0.0001
    100  N          2.3830   -0.3510   -5.3220 N.am   92  ARG92      -0.1977
    101  CA         2.9280    0.2130   -6.5560 C.3    92  ARG92       0.1597
    102  C          1.8340    0.4620   -7.5960 C.2    92  ARG92       0.2287
    103  O          1.9010    1.4280   -8.3570 O.2    92  ARG92      -0.2864
    104  CB         4.0170   -0.7040   -7.1250 C.3    92  ARG92       0.0334
    105  CG         4.8300   -0.0960   -8.2600 C.3    92  ARG92       0.0492
    106  CD         6.1400   -0.8390   -8.4750 C.3    92  ARG92       0.2205
    107  NE         7.0960   -0.5940   -7.3940 N.pl3  92  ARG92      -0.0865
    108  CZ         7.9750    0.4060   -7.3710 C.cat  92  ARG92       0.5346
    109  NH1        8.0370    1.2750   -8.3720 N.pl3  92  ARG92       0.1354
    110  NH2        8.7980    0.5370   -6.3390 N.pl3  92  ARG92       0.1354
    111  N          1.5290   13.7200    2.6190 N.3   112  LEU112     -0.1231
    112  CA         1.1510   12.6240    3.5220 C.3   112  LEU112      0.1693
    113  C          1.9740   12.5900    4.8150 C.2   112  LEU112      0.2592
    114  O          3.0050   13.2590    4.9280 O.2   112  LEU112     -0.2718
    115  CB         1.2250   11.2600    2.8090 C.3   112  LEU112      0.0284
    116  CG         2.5000   10.7850    2.1000 C.3   112  LEU112      0.0019
    117  CD1        3.5500   10.2680    3.0740 C.3   112  LEU112      0.0001
    118  CD2        2.1500    9.6970    1.0970 C.3   112  LEU112      0.0001
    119  N          1.4960   11.8110    5.7850 N.am  113  HIS113     -0.1976
    120  CA         2.2470   11.5050    7.0000 C.3   113  HIS113      0.1656
    121  C          2.6050   10.0440    6.9990 C.2   113  HIS113      0.2291
    122  O          1.7240    9.1790    6.9660 O.2   113  HIS113     -0.2864
    123  CB         1.4390   11.8580    8.2450 C.3   113  HIS113      0.0771
    124  CG         1.2880   13.3440    8.4770 C.ar  113  HIS113      0.0820
    125  ND1        2.1400   14.0470    9.2450 N.ar  113  HIS113     -0.2267
    126  CD2        0.3350   14.2510    8.0170 C.ar  113  HIS113      0.1154
    127  CE1        1.7580   15.3380    9.2740 C.ar  113  HIS113      0.1986
    128  NE2        0.6530   15.4610    8.5220 N.ar  113  HIS113     -0.2212
    129  N          4.0470    6.3260    8.1180 N.3   115  SER115     -0.1202
    130  CA         4.0830    5.4180    9.2650 C.3   115  SER115      0.2020
    131  C          5.5130    4.9630    9.5530 C.2   115  SER115      0.2618
    132  O          5.8880    4.7600   10.7100 O.2   115  SER115     -0.2717
    133  CB         3.1810    4.2050    9.0250 C.3   115  SER115      0.2103
    134  OG         3.6440    3.4330    7.9310 O.3   115  SER115     -0.2182
    135  N          6.2950    4.7960    8.4890 N.am  116  GLU116     -0.1979
    136  CA         7.7280    4.5200    8.5830 C.3   116  GLU116      0.1602
    137  C          8.4650    5.3530    7.5380 C.2   116  GLU116      0.2287
    138  O          8.0400    5.4300    6.3820 O.2   116  GLU116     -0.2864
    139  CB         8.0160    3.0280    8.3940 C.3   116  GLU116      0.0415
    140  CG         7.7070    2.1740    9.6170 C.3   116  GLU116      0.1163
    141  CD         7.6240    0.6880    9.3110 C.2   116  GLU116      0.3649
    142  OE1        7.1280   -0.0640   10.1770 O.co2 116  GLU116     -0.2457
    143  OE2        8.0480    0.2670    8.2130 O.co2 116  GLU116     -0.2457
    144  N         10.6760    5.1910    5.4590 N.3   118  GLY118     -0.1210
    145  CA        11.3650    4.5210    4.3560 C.3   118  GLY118      0.1956
    146  C         10.4420    3.9620    3.2880 C.2   118  GLY118      0.2612
    147  O         10.9030    3.5410    2.2230 O.2   118  GLY118     -0.2717
    148  N          9.1410    3.9580    3.5720 N.am  119  ILE119     -0.1965
    149  CA         8.1340    3.4290    2.6480 C.3   119  ILE119      0.1727
    150  C          7.9100    4.3680    1.4600 C.2   119  ILE119      0.2616
    151  O          7.7580    3.9150    0.3230 O.2   119  ILE119     -0.2715
    152  CB         6.7840    3.1530    3.3560 C.3   119  ILE119      0.0290
    153  CG1        7.0000    2.3670    4.6570 C.3   119  ILE119      0.0022
    154  CG2        5.8280    2.4110    2.4260 C.3   119  ILE119      0.0023
    155  CD1        5.7700    2.2530    5.5350 C.3   119  ILE119      0.0001
    156  N          7.9030    5.6710    1.7280 N.am  120  TYR120     -0.1974
    157  CA         7.5810    6.6690    0.7090 C.3   120  TYR120      0.1639
    158  C          8.8000    7.4700    0.2380 C.2   120  TYR120      0.2290
    159  O          8.6630    8.5800   -0.2820 O.2   120  TYR120     -0.2864
    160  CB         6.4610    7.5910    1.2090 C.3   120  TYR120      0.0560
    161  CG         5.1960    6.8490    1.5870 C.ar  120  TYR120     -0.0198
    162  CD1        4.2710    6.4670    0.6140 C.ar  120  TYR120     -0.0009
    163  CD2        4.9270    6.5230    2.9170 C.ar  120  TYR120     -0.0009
    164  CE1        3.1140    5.7840    0.9550 C.ar  120  TYR120      0.0417
    165  CE2        3.7720    5.8400    3.2670 C.ar  120  TYR120      0.0417
    166  CZ         2.8700    5.4740    2.2830 C.ar  120  TYR120      0.1957
    167  OH         1.7220    4.7980    2.6250 O.3   120  TYR120     -0.2866
    168  N         11.0830    6.3600   -2.1430 N.3   122  ARG122     -0.1231
    169  CA        11.2510    6.1730   -3.5860 C.3   122  ARG122      0.1694
    170  C         10.0790    6.7380   -4.3950 C.2   122  ARG122      0.2592
    171  O         10.2390    7.0770   -5.5690 O.2   122  ARG122     -0.2718
    172  CB        11.4770    4.6910   -3.9200 C.3   122  ARG122      0.0321
    173  CG        10.2100    3.8470   -3.9940 C.3   122  ARG122      0.0489
    174  CD        10.4860    2.3720   -3.7420 C.3   122  ARG122      0.2205
    175  NE        10.8870    2.1190   -2.3590 N.pl3 122  ARG122     -0.0865
    176  CZ        10.0480    2.0190   -1.3300 C.cat 122  ARG122      0.5346
    177  NH1        8.7380    2.1480   -1.5100 N.pl3 122  ARG122      0.1354
    178  NH2       10.5220    1.7880   -0.1140 N.pl3 122  ARG122      0.1354
    179  N          8.9110    6.8380   -3.7610 N.am  123  PHE123     -0.1976
    180  CA         7.6900    7.2820   -4.4380 C.3   123  PHE123      0.1639
    181  C          7.6340    8.7900   -4.6910 C.2   123  PHE123      0.2290
    182  O          6.6700    9.2890   -5.2760 O.2   123  PHE123     -0.2864
    183  CB         6.4450    6.8100   -3.6770 C.3   123  PHE123      0.0560
    184  CG         6.0160    5.4120   -4.0250 C.ar  123  PHE123     -0.0200
    185  CD1        5.2140    5.1730   -5.1380 C.ar  123  PHE123     -0.0042
    186  CD2        6.4090    4.3320   -3.2420 C.ar  123  PHE123     -0.0042
    187  CE1        4.8170    3.8850   -5.4640 C.ar  123  PHE123     -0.0003
    188  CE2        6.0140    3.0410   -3.5630 C.ar  123  PHE123     -0.0003
    189  CZ         5.2160    2.8180   -4.6750 C.ar  123  PHE123     -0.0000
@<TRIPOS>BOND
     1   106   105    1
     2   106   107    1
     3   109   108    1
     4   103   102    2
     5   105   104    1
     6   102   101    1
     7   107   108    2
     8   108   110    1
     9   104   101    1
    10    83    82    2
    11    72    71    2
    12   101   100    1
    13    82    81    1
    14    82    84   am
    15    81    80    1
    16   171   170    2
    17   187   185   ar
    18   187   189   ar
    19    71    80   am
    20    71    70    1
    21   100    94   am
    22   182   181    2
    23    74    75    1
    24    74    73    1
    25   185   184   ar
    26    90    89    1
    27    87    86    2
    28    95    94    2
    29    75    76    1
    30    84    85    1
    31   181   180    1
    32   189   188   ar
    33    85    86    1
    34    85    88    1
    35    94    93    1
    36    78    77    1
    37   180   179    1
    38   180   183    1
    39   170   179   am
    40   170   169    1
    41    70    73    1
    42    70    69    1
    43    86    92   am
    44    89    88    1
    45    89    91    1
    46   184   183    1
    47   184   186   ar
    48   173   172    1
    49   173   174    1
    50   172   169    1
    51   174   175    1
    52   169   168    1
    53    92    93    1
    54   188   186   ar
    55    76    77    2
    56    61    60    2
    57    77    79    1
    58    93    96    1
    59    69    60   am
    60    60    59    1
    61   175   176    2
    62    43    45   ar
    63    43    42   ar
    64    96    97    1
    65    45    46   ar
    66    97    99    1
    67    97    98    1
    68   177   176    1
    69   176   178    1
    70    59    62    1
    71    59    58    1
    72    40    39    2
    73    42    41    1
    74    42    44   ar
    75    46    44   ar
    76    41    38    1
    77    62    63    1
    78    58    49   am
    79    50    49    2
    80   159   158    2
    81    39    38    1
    82    39    47   am
    83    49    48    1
    84    38    37    1
    85    65    64    1
    86    65    66    2
    87    36    34    1
    88   158   157    1
    89    64    63    1
    90   151   150    2
    91    35    34    1
    92   162   164   ar
    93   162   161   ar
    94   157   160    1
    95   157   156    1
    96    48    47    1
    97    48    51    1
    98    68    66    1
    99    23    22    1
   100   164   166   ar
   101    66    67    1
   102   118   116    1
   103   160   161    1
   104    34    31    1
   105   150   156   am
   106   150   149    1
   107   161   163   ar
   108    24    22    1
   109    28    27    2
   110    22    19    1
   111   116   115    1
   112   116   117    1
   113    31    30    1
   114    31    32    1
   115    51    52    1
   116   147   146    2
   117   166   167    1
   118   166   165   ar
   119   154   152    1
   120    19    20    1
   121    19    18    1
   122   111   112    1
   123   149   152    1
   124   149   148    1
   125    27    30   am
   126    27    26    1
   127   115   112    1
   128    25    20   am
   129    25    26    1
   130   163   165   ar
   131    52    53    1
   132    32    33    2
   133    20    21    2
   134   146   148   am
   135   146   145    1
   136   152   153    1
   137   112   113    1
   138    26    29    1
   139    54    53    1
   140    54    55    2
   141    56    55    1
   142   145   144    1
   143    55    57    1
   144   153   155    1
   145   113   114    2
   146   113   119   am
   147   119   120    1
   148   138   137    2
   149   122   121    2
   150   121   120    1
   151   120   123    1
   152    17    15   ar
   153    17    16   ar
   154     6     5    1
   155   137   136    1
   156    15    13   ar
   157   134   133    1
   158   126   124   ar
   159   126   128   ar
   160   129   130    1
   161   143   141   ar
   162   123   124    1
   163     5     2    1
   164    16    14   ar
   165   139   136    1
   166   139   140    1
   167   124   125   ar
   168   135   136    1
   169   135   131   am
   170   128   127   ar
   171    13    12   ar
   172   133   130    1
   173   125   127   ar
   174   130   131    1
   175   141   140    1
   176   141   142   ar
   177   131   132    2
   178    14    12   ar
   179     2     1    1
   180     2     3    1
   181    12    11    1
   182     3     4    2
   183     3     7   am
   184     7     8    1
   185    11     8    1
   186     8     9    1
   187     9    10    2
