@<TRIPOS>MOLECULE
tmp/4jd6A01.pdb
 143 141 0 0 0
SMALL
GASTEIGER

@<TRIPOS>ATOM
      1  N        -11.3740  -14.5390   42.1380 N.3    22  PHE22      -0.1241
      2  CA       -10.8070  -14.4910   40.7920 C.3    22  PHE22       0.1605
      3  C        -10.8840  -13.0810   40.2150 C.2    22  PHE22       0.2264
      4  O        -11.9740  -12.5380   40.0140 O.2    22  PHE22      -0.2867
      5  CB       -11.5030  -15.5040   39.8750 C.3    22  PHE22       0.0534
      6  CG       -11.7010  -16.8530   40.5070 C.ar   22  PHE22      -0.0203
      7  CD1      -12.9700  -17.2810   40.8800 C.ar   22  PHE22      -0.0042
      8  CD2      -10.6150  -17.6880   40.7500 C.ar   22  PHE22      -0.0042
      9  CE1      -13.1570  -18.5210   41.4720 C.ar   22  PHE22      -0.0003
     10  CE2      -10.7940  -18.9260   41.3460 C.ar   22  PHE22      -0.0003
     11  CZ       -12.0670  -19.3440   41.7060 C.ar   22  PHE22      -0.0000
     12  N         -9.9820  -12.0580   37.2370 N.3    24  ASP24      -0.1239
     13  CA       -10.4870  -12.1110   35.8670 C.3    24  ASP24       0.1674
     14  C        -11.8580  -12.7920   35.7820 C.2    24  ASP24       0.2266
     15  O        -12.1820  -13.4380   34.7810 O.2    24  ASP24      -0.2867
     16  CB        -9.4700  -12.8010   34.9460 C.3    24  ASP24       0.1410
     17  CG        -9.1320  -14.2150   35.3950 C.2    24  ASP24       0.3668
     18  OD1       -8.6690  -14.3910   36.5420 O.co2  24  ASP24      -0.2456
     19  OD2       -9.3240  -15.1510   34.5930 O.co2  24  ASP24      -0.2456
     20  N        -15.4060  -13.1840   34.8840 N.3    26  ILE26      -0.1245
     21  CA       -16.1910  -12.6530   33.7590 C.3    26  ILE26       0.1561
     22  C        -17.4620  -11.8960   34.1570 C.2    26  ILE26       0.2260
     23  O        -18.1760  -11.3720   33.2960 O.2    26  ILE26      -0.2867
     24  CB       -16.5640  -13.7640   32.7520 C.3    26  ILE26       0.0252
     25  CG1      -16.4240  -15.1510   33.4010 C.3    26  ILE26       0.0019
     26  CG2      -15.7120  -13.6340   31.4980 C.3    26  ILE26       0.0019
     27  CD1      -17.2200  -16.2530   32.7350 C.3    26  ILE26       0.0001
     28  N        -21.8730  -20.1410   31.4550 N.3    34  TRP34      -0.1241
     29  CA       -20.9310  -21.2290   31.7230 C.3    34  TRP34       0.1605
     30  C        -21.5520  -22.3030   32.5720 C.2    34  TRP34       0.2264
     31  O        -21.0800  -23.4430   32.5840 O.2    34  TRP34      -0.2867
     32  CB       -19.6580  -20.6890   32.3820 C.3    34  TRP34       0.0550
     33  CG       -18.7040  -20.0640   31.3900 C.ar   34  TRP34       0.0003
     34  CD1      -18.8290  -18.8320   30.7520 C.ar   34  TRP34       0.0946
     35  CD2      -17.4470  -20.6320   30.8750 C.ar   34  TRP34       0.0152
     36  NE1      -17.7760  -18.6060   29.9050 N.ar   34  TRP34      -0.2442
     37  CE2      -16.9120  -19.6470   29.9290 C.ar   34  TRP34       0.0810
     38  CE3      -16.7420  -21.8150   31.0890 C.ar   34  TRP34       0.0012
     39  CZ2      -15.7280  -19.8670   29.2310 C.ar   34  TRP34       0.0191
     40  CZ3      -15.5410  -22.0180   30.3950 C.ar   34  TRP34       0.0001
     41  CH2      -15.0450  -21.0680   29.4920 C.ar   34  TRP34       0.0015
     42  N        -12.8620  -29.4920   36.5070 N.3    76  LEU76      -0.1231
     43  CA       -12.8630  -28.7600   37.7770 C.3    76  LEU76       0.1693
     44  C        -12.6470  -27.2610   37.5870 C.2    76  LEU76       0.2593
     45  O        -11.6320  -26.8290   37.0330 O.2    76  LEU76      -0.2718
     46  CB       -11.8070  -29.3310   38.7320 C.3    76  LEU76       0.0284
     47  CG       -12.1470  -30.4560   39.7220 C.3    76  LEU76       0.0019
     48  CD1      -12.9180  -29.9180   40.9200 C.3    76  LEU76       0.0001
     49  CD2      -12.8900  -31.6130   39.0690 C.3    76  LEU76       0.0001
     50  N        -13.6190  -26.4820   38.0560 N.am   77  SER77      -0.1938
     51  CA       -13.6290  -25.0330   37.8790 C.3    77  SER77       0.2055
     52  C        -14.3340  -24.3430   39.0510 C.2    77  SER77       0.2643
     53  O        -15.0160  -24.9990   39.8420 O.2    77  SER77      -0.2714
     54  CB       -14.3240  -24.6760   36.5500 C.3    77  SER77       0.2130
     55  OG       -14.2430  -23.2830   36.2560 O.3    77  SER77      -0.2179
     56  N        -14.1620  -23.0240   39.1530 N.am   78  PHE78      -0.1959
     57  CA       -14.7860  -22.1930   40.1950 C.3    78  PHE78       0.1771
     58  C        -14.4680  -22.6370   41.6270 C.2    78  PHE78       0.2619
     59  O        -15.2660  -22.4250   42.5450 O.2    78  PHE78      -0.2715
     60  CB       -16.3050  -22.1060   39.9800 C.3    78  PHE78       0.0574
     61  CG       -16.7280  -21.0340   39.0140 C.ar   78  PHE78      -0.0200
     62  CD1      -17.4140  -19.9130   39.4660 C.ar   78  PHE78      -0.0042
     63  CD2      -16.4540  -21.1450   37.6530 C.ar   78  PHE78      -0.0042
     64  CE1      -17.8130  -18.9210   38.5840 C.ar   78  PHE78      -0.0003
     65  CE2      -16.8480  -20.1540   36.7650 C.ar   78  PHE78      -0.0003
     66  CZ       -17.5280  -19.0400   37.2320 C.ar   78  PHE78      -0.0000
     67  N        -13.3000  -23.2460   41.8140 N.am   79  VAL79      -0.1977
     68  CA       -12.8990  -23.7570   43.1220 C.3    79  VAL79       0.1596
     69  C        -12.3110  -22.6270   43.9650 C.2    79  VAL79       0.2287
     70  O        -11.1960  -22.1610   43.7100 O.2    79  VAL79      -0.2864
     71  CB       -11.8930  -24.9260   43.0080 C.3    79  VAL79       0.0276
     72  CG1      -11.7510  -25.6350   44.3450 C.3    79  VAL79       0.0022
     73  CG2      -12.3300  -25.9160   41.9380 C.3    79  VAL79       0.0022
     74  N         -8.3090  -29.9110   35.2030 N.3   112  LEU112     -0.1231
     75  CA        -8.3870  -28.5130   35.6550 C.3   112  LEU112      0.1693
     76  C         -7.1930  -27.6690   35.1960 C.2   112  LEU112      0.2592
     77  O         -6.1960  -28.2010   34.7050 O.2   112  LEU112     -0.2718
     78  CB        -8.5410  -28.4310   37.1860 C.3   112  LEU112      0.0284
     79  CG        -7.5170  -29.0610   38.1430 C.3   112  LEU112      0.0019
     80  CD1       -6.2530  -28.2240   38.2790 C.3   112  LEU112      0.0001
     81  CD2       -8.1450  -29.2640   39.5120 C.3   112  LEU112      0.0001
     82  N         -7.3140  -26.3510   35.3600 N.am  113  HIS113     -0.1962
     83  CA        -6.2030  -25.4200   35.1600 C.3   113  HIS113      0.1787
     84  C         -5.8280  -24.7960   36.4750 C.2   113  HIS113      0.2620
     85  O         -6.6470  -24.1260   37.1050 O.2   113  HIS113     -0.2715
     86  CB        -6.5780  -24.3360   34.1570 C.3   113  HIS113      0.0785
     87  CG        -6.6390  -24.8190   32.7310 C.ar  113  HIS113      0.0821
     88  ND1       -5.5850  -24.7510   31.8990 N.ar  113  HIS113     -0.2267
     89  CD2       -7.6810  -25.3860   32.0010 C.ar  113  HIS113      0.1154
     90  CE1       -5.9300  -25.2510   30.6980 C.ar  113  HIS113      0.1986
     91  NE2       -7.2130  -25.6390   30.7620 N.ar  113  HIS113     -0.2212
     92  N         -4.5840  -25.0010   36.8990 N.am  114  ALA114     -0.1963
     93  CA        -4.1430  -24.5710   38.2260 C.3   114  ALA114      0.1728
     94  C         -3.7290  -23.1020   38.2850 C.2   114  ALA114      0.2616
     95  O         -3.1280  -22.5790   37.3450 O.2   114  ALA114     -0.2715
     96  CB        -3.0110  -25.4610   38.7170 C.3   114  ALA114      0.0334
     97  N         -4.0630  -22.4470   39.3970 N.am  115  SER115     -0.1950
     98  CA        -3.5930  -21.0890   39.6760 C.3   115  SER115      0.1924
     99  C         -2.1920  -21.1350   40.2730 C.2   115  SER115      0.2314
    100  O         -1.4200  -20.1860   40.1400 O.2   115  SER115     -0.2863
    101  CB        -4.5420  -20.3620   40.6310 C.3   115  SER115      0.2116
    102  OG        -4.5100  -20.9410   41.9250 O.3   115  SER115     -0.2180
    103  N         -2.6100  -28.6050   43.8360 N.3   120  TYR120     -0.1241
    104  CA        -3.2760  -29.8150   43.3510 C.3   120  TYR120      0.1605
    105  C         -2.3360  -30.9990   43.1070 C.2   120  TYR120      0.2264
    106  O         -2.7480  -32.0230   42.5570 O.2   120  TYR120     -0.2867
    107  CB        -4.1000  -29.4990   42.0970 C.3   120  TYR120      0.0534
    108  CG        -5.2100  -28.5020   42.3480 C.ar  120  TYR120     -0.0201
    109  CD1       -6.4370  -28.9100   42.8750 C.ar  120  TYR120     -0.0009
    110  CD2       -5.0310  -27.1480   42.0670 C.ar  120  TYR120     -0.0009
    111  CE1       -7.4550  -27.9990   43.1130 C.ar  120  TYR120      0.0417
    112  CE2       -6.0420  -26.2310   42.3020 C.ar  120  TYR120      0.0417
    113  CZ        -7.2510  -26.6600   42.8230 C.ar  120  TYR120      0.1957
    114  OH        -8.2560  -25.7490   43.0550 O.3   120  TYR120     -0.2866
    115  N        -15.9990  -11.4900   23.4230 N.3   197  GLU197     -0.1245
    116  CA       -14.7250  -10.9140   23.8580 C.3   197  GLU197      0.1567
    117  C        -13.8980  -10.3760   22.6870 C.2   197  GLU197      0.2260
    118  O        -12.8100   -9.8300   22.8870 O.2   197  GLU197     -0.2867
    119  CB       -13.9160  -11.9430   24.6550 C.3   197  GLU197      0.0388
    120  CG       -14.5110  -12.2860   26.0130 C.3   197  GLU197      0.1160
    121  CD       -13.7870  -13.4210   26.7160 C.2   197  GLU197      0.3649
    122  OE1      -13.0430  -14.1740   26.0510 O.co2 197  GLU197     -0.2457
    123  OE2      -13.9690  -13.5650   27.9430 O.co2 197  GLU197     -0.2457
    124  N         -8.6890  -22.5670   28.0690 N.3   395  GLU395     -0.1231
    125  CA        -8.5640  -22.4270   29.5140 C.3   395  GLU395      0.1699
    126  C         -9.9450  -22.3650   30.1660 C.2   395  GLU395      0.2592
    127  O        -10.8230  -21.6250   29.7130 O.2   395  GLU395     -0.2718
    128  CB        -7.7450  -21.1770   29.8450 C.3   395  GLU395      0.0402
    129  CG        -6.7640  -21.3480   30.9960 C.3   395  GLU395      0.1161
    130  CD        -5.4680  -20.5840   30.7740 C.2   395  GLU395      0.3649
    131  OE1       -4.8270  -20.7870   29.7210 O.co2 395  GLU395     -0.2457
    132  OE2       -5.0700  -19.7910   31.6500 O.co2 395  GLU395     -0.2457
    133  N        -10.1290  -23.1560   31.2210 N.am  396  PHE396     -0.1976
    134  CA       -11.4000  -23.2080   31.9440 C.3   396  PHE396      0.1639
    135  C        -11.2050  -23.2340   33.4580 C.2   396  PHE396      0.2290
    136  O        -12.1230  -22.9060   34.2090 O.2   396  PHE396     -0.2864
    137  CB       -12.2450  -24.4090   31.4890 C.3   396  PHE396      0.0560
    138  CG       -11.5950  -25.7480   31.7300 C.ar  396  PHE396     -0.0200
    139  CD1      -11.7780  -26.4230   32.9350 C.ar  396  PHE396     -0.0042
    140  CD2      -10.8140  -26.3440   30.7460 C.ar  396  PHE396     -0.0042
    141  CE1      -11.1830  -27.6560   33.1570 C.ar  396  PHE396     -0.0003
    142  CE2      -10.2180  -27.5780   30.9620 C.ar  396  PHE396     -0.0003
    143  CZ       -10.4040  -28.2350   32.1680 C.ar  396  PHE396     -0.0000
@<TRIPOS>BOND
     1   117   118    2
     2   117   116    1
     3   115   116    1
     4   116   119    1
     5   119   120    1
     6   120   121    1
     7   122   121   ar
     8   121   123   ar
     9   124   125    1
    10    39    41   ar
    11    39    37   ar
    12    41    40   ar
    13   125   128    1
    14   125   126    1
    15   127   126    2
    16   131   130   ar
    17   128   129    1
    18    36    37   ar
    19    36    34   ar
    20    37    35   ar
    21   126   133   am
    22    40    38   ar
    23    90    91   ar
    24    90    88   ar
    25   140   142   ar
    26   140   138   ar
    27    34    33   ar
    28    91    89   ar
    29   130   129    1
    30   130   132   ar
    31    35    38   ar
    32    35    33   ar
    33   142   143   ar
    34   133   134    1
    35    33    32    1
    36    28    29    1
    37   137   138    1
    38   137   134    1
    39    26    24    1
    40    29    32    1
    41    29    30    1
    42   138   139   ar
    43    88    87   ar
    44   134   135    1
    45    89    87   ar
    46   143   141   ar
    47    30    31    2
    48    87    86    1
    49    27    25    1
    50    24    25    1
    51    24    21    1
    52   139   141   ar
    53    23    22    2
    54   135   136    2
    55    21    22    1
    56    21    20    1
    57    86    83    1
    58    19    17   ar
    59    77    76    2
    60    15    14    2
    61    16    17    1
    62    16    13    1
    63    83    82    1
    64    83    84    1
    65    76    82   am
    66    76    75    1
    67    74    75    1
    68    17    18   ar
    69    75    78    1
    70    14    13    1
    71    13    12    1
    72    55    54    1
    73    84    92   am
    74    84    85    2
    75    42    43    1
    76    54    51    1
    77    65    66   ar
    78    65    63   ar
    79    92    93    1
    80    45    44    2
    81    78    79    1
    82    66    64   ar
    83    95    94    2
    84    44    43    1
    85    44    50   am
    86    63    61   ar
    87    43    46    1
    88    51    50    1
    89    51    52    1
    90    79    80    1
    91    79    81    1
    92    93    94    1
    93    93    96    1
    94    94    97   am
    95    64    62   ar
    96    46    47    1
    97    61    62   ar
    98    61    60    1
    99    52    56   am
   100    52    53    2
   101    49    47    1
   102    56    57    1
   103    97    98    1
   104    98    99    1
   105    98   101    1
   106    47    48    1
   107     5     6    1
   108     5     2    1
   109    60    57    1
   110     4     3    2
   111   100    99    2
   112    57    58    1
   113     3     2    1
   114     6     8   ar
   115     6     7   ar
   116   101   102    1
   117     8    10   ar
   118     2     1    1
   119     7     9   ar
   120    10    11   ar
   121     9    11   ar
   122    58    67   am
   123    58    59    2
   124    67    68    1
   125    73    71    1
   126   110   112   ar
   127   110   108   ar
   128   107   108    1
   129   107   104    1
   130   112   113   ar
   131   108   109   ar
   132   106   105    2
   133   113   114    1
   134   113   111   ar
   135   109   111   ar
   136    71    68    1
   137    71    72    1
   138   105   104    1
   139    68    69    1
   140   104   103    1
   141    70    69    2
