@<TRIPOS>MOLECULE
tmp/4jdcA00.pdb
 205 204 0 0 0
SMALL
GASTEIGER

@<TRIPOS>ATOM
      1  N         56.5160   19.2230   38.1410 N.3   184  TYR184     -0.1241
      2  CA        55.7750   19.0700   36.8900 C.3   184  TYR184      0.1605
      3  C         55.6810   20.4520   36.2210 C.2   184  TYR184      0.2264
      4  O         55.0310   21.3580   36.7700 O.2   184  TYR184     -0.2867
      5  CB        54.3960   18.5520   37.3540 C.3   184  TYR184      0.0534
      6  CG        53.3490   18.3000   36.2450 C.ar  184  TYR184     -0.0201
      7  CD1       53.6990   18.1750   34.9060 C.ar  184  TYR184     -0.0009
      8  CD2       52.0020   18.1410   36.6120 C.ar  184  TYR184     -0.0009
      9  CE1       52.7060   17.8910   33.9260 C.ar  184  TYR184      0.0417
     10  CE2       51.0190   17.8580   35.6350 C.ar  184  TYR184      0.0417
     11  CZ        51.4050   17.7480   34.3060 C.ar  184  TYR184      0.1957
     12  OH        50.4290   17.4600   33.3910 O.3   184  TYR184     -0.2866
     13  N         54.4140   22.7090   33.0090 N.3   186  ILE186     -0.1231
     14  CA        53.3850   22.6740   31.9700 C.3   186  ILE186      0.1692
     15  C         53.5200   24.0150   31.2960 C.2   186  ILE186      0.2593
     16  O         53.3550   25.0840   31.9320 O.2   186  ILE186     -0.2718
     17  CB        51.9730   22.5190   32.5960 C.3   186  ILE186      0.0266
     18  CG1       51.8320   21.1950   33.3360 C.3   186  ILE186      0.0019
     19  CG2       50.9290   22.7140   31.4870 C.3   186  ILE186      0.0020
     20  CD1       50.5530   21.1680   34.1960 C.3   186  ILE186      0.0001
     21  N         53.7310   24.0190   29.9600 N.am  187  THR187     -0.1940
     22  CA        54.1840   25.2340   29.2920 C.3   187  THR187      0.2013
     23  C         53.3040   25.6040   28.0880 C.2   187  THR187      0.2484
     24  O         52.6550   24.7040   27.5590 O.2   187  THR187     -0.2729
     25  CB        55.6810   25.1450   28.8820 C.3   187  THR187      0.1807
     26  OG1       55.8810   24.0200   27.9650 O.3   187  THR187     -0.2208
     27  CG2       56.5780   24.9030   30.1070 C.3   187  THR187      0.0379
     28  N         53.2180   26.8770   27.7730 N.am  188  PRO188     -0.2715
     29  CA        52.2160   27.3650   26.8180 C.3   188  PRO188      0.1536
     30  C         52.7720   27.4210   25.4080 C.2   188  PRO188      0.2599
     31  O         53.9820   27.2430   25.1120 O.2   188  PRO188     -0.2715
     32  CB        51.9830   28.8300   27.3370 C.3   188  PRO188      0.0310
     33  CG        53.4580   29.2480   27.6720 C.3   188  PRO188      0.0237
     34  CD        53.9950   28.0050   28.4170 C.3   188  PRO188      0.0939
     35  N         51.9130   27.7220   24.4750 N.am  189  PHE189     -0.1960
     36  CA        52.3320   27.7690   23.0890 C.3   189  PHE189      0.1771
     37  C         53.1680   28.9370   22.7030 C.2   189  PHE189      0.2619
     38  O         53.8780   28.8690   21.7470 O.2   189  PHE189     -0.2715
     39  CB        51.1350   27.6920   22.1290 C.3   189  PHE189      0.0574
     40  CG        50.4160   28.9820   21.9330 C.ar  189  PHE189     -0.0200
     41  CD1       50.8030   29.8330   20.9700 C.ar  189  PHE189     -0.0042
     42  CD2       49.3240   29.3000   22.6800 C.ar  189  PHE189     -0.0042
     43  CE1       50.1590   31.0150   20.7520 C.ar  189  PHE189     -0.0003
     44  CE2       48.6780   30.4890   22.4920 C.ar  189  PHE189     -0.0003
     45  CZ        49.0930   31.3540   21.5250 C.ar  189  PHE189     -0.0000
     46  N         53.0050   30.0340   23.4220 N.am  190  ASN190     -0.1972
     47  CA        53.4060   31.2830   22.8520 C.3   190  ASN190      0.1688
     48  C         54.8010   31.7310   23.0400 C.2   190  ASN190      0.2292
     49  O         55.1780   32.6440   22.4120 O.2   190  ASN190     -0.2864
     50  CB        52.4300   32.3970   23.1080 C.3   190  ASN190      0.1181
     51  CG        52.1180   32.5730   24.5370 C.2   190  ASN190      0.2629
     52  OD1       52.5430   31.8400   25.3820 O.2   190  ASN190     -0.2716
     53  ND2       51.3750   33.5930   24.8100 N.am  190  ASN190     -0.0877
     54  N         55.6070   18.9940   30.1630 N.3   212  LYS212     -0.1231
     55  CA        54.5100   18.7350   29.1850 C.3   212  LYS212      0.1678
     56  C         54.3900   19.9990   28.4080 C.2   212  LYS212      0.2434
     57  O         53.7350   21.0080   28.8670 O.2   212  LYS212     -0.2733
     58  CB        53.2380   18.3980   29.9830 C.3   212  LYS212      0.0284
     59  CG        52.1980   17.5680   29.1900 C.3   212  LYS212      0.0035
     60  CD        51.7580   18.1690   27.9160 C.3   212  LYS212      0.0206
     61  CE        50.8060   19.3550   28.1070 C.3   212  LYS212      0.1093
     62  NZ        50.4460   19.9590   26.7550 N.3   212  LYS212     -0.1314
     63  N         54.9700   20.0590   27.1800 N.am  213  PRO213     -0.2718
     64  CA        54.8760   21.3040   26.4070 C.3   213  PRO213      0.1535
     65  C         53.5590   21.3630   25.6230 C.2   213  PRO213      0.2599
     66  O         52.9070   20.2790   25.4600 O.2   213  PRO213     -0.2715
     67  CB        56.0050   21.2490   25.3830 C.3   213  PRO213      0.0310
     68  CG        56.2770   19.7290   25.2930 C.3   213  PRO213      0.0237
     69  CD        55.9230   19.0410   26.5820 C.3   213  PRO213      0.0939
     70  N         53.2060   22.5410   25.1440 N.am  214  SER214     -0.1936
     71  CA        51.9860   22.7150   24.3670 C.3   214  SER214      0.2055
     72  C         52.2190   21.9750   23.0250 C.2   214  SER214      0.2642
     73  O         53.2770   22.0860   22.4240 O.2   214  SER214     -0.2714
     74  CB        51.9110   24.1810   24.0480 C.3   214  SER214      0.2130
     75  OG        50.6490   24.3310   23.4530 O.3   214  SER214     -0.2179
     76  N         51.1490   21.2910   22.5360 N.am  215  ILE215     -0.1977
     77  CA        51.2970   20.6330   21.1900 C.3   215  ILE215      0.1596
     78  C         51.8240   21.5150   20.1170 C.2   215  ILE215      0.2287
     79  O         52.7400   21.1080   19.3910 O.2   215  ILE215     -0.2864
     80  CB        49.8870   20.0450   20.8030 C.3   215  ILE215      0.0276
     81  CG1       49.5620   18.9020   21.7620 C.3   215  ILE215      0.0022
     82  CG2       49.9510   19.7150   19.2590 C.3   215  ILE215      0.0022
     83  CD1       48.0960   18.3870   21.7530 C.3   215  ILE215      0.0001
     84  N         51.6920   15.9160   24.0460 N.3   243  GLY243     -0.1210
     85  CA        50.2080   15.7350   23.8970 C.3   243  GLY243      0.1956
     86  C         49.3890   16.7430   24.6840 C.2   243  GLY243      0.2612
     87  O         49.8860   17.8890   25.0080 O.2   243  GLY243     -0.2717
     88  N         48.1390   16.3680   25.0050 N.am  244  ASP244     -0.1959
     89  CA        47.2700   17.4250   25.5260 C.3   244  ASP244      0.1840
     90  C         47.4150   17.4960   27.0570 C.2   244  ASP244      0.2623
     91  O         46.7400   18.3240   27.7450 O.2   244  ASP244     -0.2715
     92  CB        45.8020   17.1050   25.1800 C.3   244  ASP244      0.1450
     93  CG        45.3930   15.6720   25.6200 C.2   244  ASP244      0.3671
     94  OD1       45.8290   15.0920   26.6250 O.co2 244  ASP244     -0.2456
     95  OD2       44.5140   15.1270   24.9210 O.co2 244  ASP244     -0.2456
     96  N         48.2560   16.6430   27.6260 N.am  245  GLY245     -0.1940
     97  CA        48.4710   16.6920   29.0980 C.3   245  GLY245      0.2014
     98  C         47.4900   16.0090   29.9910 C.2   245  GLY245      0.2635
     99  O         47.7080   15.8850   31.1800 O.2   245  GLY245     -0.2714
    100  N         46.3670   15.5120   29.4420 N.am  246  PHE246     -0.2026
    101  CA        45.3170   15.0420   30.3840 C.3   246  PHE246      0.1326
    102  C         45.7240   13.7470   31.1250 C.3   246  PHE246      0.2039
    103  O         45.6100   13.6410   32.4160 O.3   246  PHE246     -0.2185
    104  CB        43.9020   14.8950   29.6460 C.3   246  PHE246      0.0507
    105  CG        43.4290   16.1750   28.9670 C.ar  246  PHE246     -0.0204
    106  CD1       43.6740   17.4340   29.5030 C.ar  246  PHE246     -0.0042
    107  CD2       42.7600   16.1290   27.7710 C.ar  246  PHE246     -0.0042
    108  CE1       43.2640   18.6040   28.8280 C.ar  246  PHE246     -0.0003
    109  CE2       42.3250   17.2820   27.1180 C.ar  246  PHE246     -0.0003
    110  CZ        42.6000   18.5240   27.6160 C.ar  246  PHE246     -0.0000
    111  N         48.5550   14.5980   33.6940 N.3   249  SER249     -0.1217
    112  CA        48.0930   15.1830   34.9710 C.3   249  SER249      0.1889
    113  C         47.4030   14.1120   35.8010 C.2   249  SER249      0.2288
    114  O         47.5140   14.0910   37.0270 O.2   249  SER249     -0.2866
    115  CB        47.1400   16.3640   34.7840 C.3   249  SER249      0.2089
    116  OG        47.8540   17.4810   34.1560 O.3   249  SER249     -0.2183
    117  N         53.8080   26.3560   36.0390 N.3   263  PHE263     -0.1227
    118  CA        52.7940   26.4880   35.0310 C.3   263  PHE263      0.1736
    119  C         52.7590   27.8780   34.4230 C.2   263  PHE263      0.2596
    120  O         52.9130   28.8140   35.1050 O.2   263  PHE263     -0.2718
    121  CB        51.4270   26.1680   35.6340 C.3   263  PHE263      0.0547
    122  CG        50.2940   26.4450   34.7140 C.ar  263  PHE263     -0.0202
    123  CD1       49.8790   25.5130   33.8160 C.ar  263  PHE263     -0.0042
    124  CD2       49.6670   27.6500   34.7430 C.ar  263  PHE263     -0.0042
    125  CE1       48.8720   25.7840   32.9440 C.ar  263  PHE263     -0.0003
    126  CE2       48.6440   27.9210   33.8910 C.ar  263  PHE263     -0.0003
    127  CZ        48.2460   26.9840   32.9880 C.ar  263  PHE263     -0.0000
    128  N         52.5620   27.9600   33.1210 N.am  264  THR264     -0.1939
    129  CA        52.1690   29.1970   32.4960 C.3   264  THR264      0.2028
    130  C         51.1390   28.9040   31.4060 C.2   264  THR264      0.2643
    131  O         51.2960   28.0140   30.6420 O.2   264  THR264     -0.2714
    132  CB        53.3630   30.0150   31.9650 C.3   264  THR264      0.1808
    133  OG1       54.1890   30.3870   33.0410 O.3   264  THR264     -0.2208
    134  CG2       52.8930   31.2700   31.2720 C.3   264  THR264      0.0379
    135  N         50.0640   29.6630   31.4270 N.am  265  GLY265     -0.1939
    136  CA        48.9360   29.4190   30.5680 C.3   265  GLY265      0.2014
    137  C         47.6950   30.1390   31.0530 C.2   265  GLY265      0.2639
    138  O         47.8020   31.1280   31.6620 O.2   265  GLY265     -0.2714
    139  N         46.5310   29.6120   30.7720 N.am  266  SER266     -0.1949
    140  CA        45.2980   30.3000   31.0750 C.3   266  SER266      0.1924
    141  C         44.9210   30.1590   32.5290 C.2   266  SER266      0.2314
    142  O         45.2210   29.1940   33.1200 O.2   266  SER266     -0.2863
    143  CB        44.1900   29.6710   30.2610 C.3   266  SER266      0.2116
    144  OG        43.8560   28.4130   30.7640 O.3   266  SER266     -0.2180
    145  N         42.9880   26.8500   33.1790 N.3   269  THR269     -0.1218
    146  CA        43.7430   25.6240   33.3660 C.3   269  THR269      0.1862
    147  C         44.4060   25.6850   34.7390 C.2   269  THR269      0.2287
    148  O         44.5070   24.6810   35.3970 O.2   269  THR269     -0.2866
    149  CB        44.7830   25.4680   32.2790 C.3   269  THR269      0.1770
    150  OG1       44.0880   25.2770   31.0560 O.3   269  THR269     -0.2211
    151  CG2       45.7090   24.2460   32.4820 C.3   269  THR269      0.0375
    152  N         41.9750   24.7040   37.4640 N.3   272  HIS272     -0.1226
    153  CA        41.6760   23.2520   37.4610 C.3   272  HIS272      0.1752
    154  C         42.7840   22.5250   38.2080 C.2   272  HIS272      0.2595
    155  O         42.5510   21.6820   39.1140 O.2   272  HIS272     -0.2718
    156  CB        41.5910   22.7400   36.0360 C.3   272  HIS272      0.0759
    157  CG        41.2700   21.2470   35.9080 C.ar  272  HIS272      0.0818
    158  ND1       40.0140   20.7320   36.0870 N.ar  272  HIS272     -0.2268
    159  CD2       42.0960   20.1460   35.5620 C.ar  272  HIS272      0.1154
    160  CE1       40.0300   19.3760   35.8790 C.ar  272  HIS272      0.1986
    161  NE2       41.3030   19.0190   35.5650 N.ar  272  HIS272     -0.2212
    162  N         44.0510   22.8750   37.8930 N.am  273  LEU273     -0.1980
    163  CA        45.1990   22.1940   38.6080 C.3   273  LEU273      0.1596
    164  C         45.2170   22.4940   40.1070 C.2   273  LEU273      0.2287
    165  O         45.4490   21.6120   40.9250 O.2   273  LEU273     -0.2864
    166  CB        46.5540   22.6590   38.0260 C.3   273  LEU273      0.0297
    167  CG        46.7180   22.2470   36.5550 C.3   273  LEU273      0.0022
    168  CD1       47.9030   22.9680   35.8790 C.3   273  LEU273      0.0001
    169  CD2       46.9880   20.7460   36.4300 C.3   273  LEU273      0.0001
    170  N         42.5240   20.4790   41.8640 N.3   276  TRP276     -0.1241
    171  CA        42.9100   19.0910   41.9000 C.3   276  TRP276      0.1605
    172  C         43.9480   18.8280   42.9710 C.2   276  TRP276      0.2264
    173  O         43.8440   17.8950   43.6980 O.2   276  TRP276     -0.2867
    174  CB        43.4350   18.7340   40.5340 C.3   276  TRP276      0.0550
    175  CG        43.5310   17.3300   40.1980 C.ar  276  TRP276      0.0003
    176  CD1       43.5330   16.2860   41.0400 C.ar  276  TRP276      0.0946
    177  CD2       43.6890   16.8020   38.8990 C.ar  276  TRP276      0.0152
    178  NE1       43.6650   15.1270   40.3530 N.ar  276  TRP276     -0.2442
    179  CE2       43.7740   15.4190   39.0240 C.ar  276  TRP276      0.0810
    180  CE3       43.7730   17.3630   37.6330 C.ar  276  TRP276      0.0012
    181  CZ2       43.9140   14.6040   37.9400 C.ar  276  TRP276      0.0191
    182  CZ3       43.9150   16.5450   36.5720 C.ar  276  TRP276      0.0001
    183  CH2       43.9900   15.1900   36.7270 C.ar  276  TRP276      0.0015
    184  N         41.1810   26.3880   17.1390 N.3   372  ARG372     -0.1245
    185  CA        40.3940   26.9270   18.2780 C.3   372  ARG372      0.1563
    186  C         40.6590   28.4170   18.4310 C.2   372  ARG372      0.2260
    187  O         39.6910   29.2100   18.6760 O.2   372  ARG372     -0.2867
    188  CB        40.7750   26.2350   19.6190 C.3   372  ARG372      0.0307
    189  CG        40.1750   24.8140   19.8210 C.3   372  ARG372      0.0489
    190  CD        40.7690   24.0400   21.0250 C.3   372  ARG372      0.2205
    191  NE        42.2370   23.9960   20.9130 N.pl3 372  ARG372     -0.0865
    192  CZ        43.0920   24.6570   21.7030 C.cat 372  ARG372      0.5346
    193  NH1       42.6610   25.3940   22.7390 N.pl3 372  ARG372      0.1354
    194  NH2       44.3890   24.5860   21.4490 N.pl3 372  ARG372      0.1354
    195  N         43.2940   35.7770   22.8290 N.3   419  PHE419     -0.1241
    196  CA        44.4120   36.4230   22.2090 C.3   419  PHE419      0.1605
    197  C         44.1220   36.6200   20.7230 C.2   419  PHE419      0.2264
    198  O         43.6760   35.6720   20.0700 O.2   419  PHE419     -0.2867
    199  CB        45.5250   35.4020   22.1850 C.3   419  PHE419      0.0534
    200  CG        46.2680   35.2740   23.4700 C.ar  419  PHE419     -0.0203
    201  CD1       46.4080   36.3700   24.3300 C.ar  419  PHE419     -0.0042
    202  CD2       46.9570   34.0900   23.7670 C.ar  419  PHE419     -0.0042
    203  CE1       47.1660   36.2550   25.5050 C.ar  419  PHE419     -0.0003
    204  CE2       47.7270   33.9740   24.9370 C.ar  419  PHE419     -0.0003
    205  CZ        47.8320   35.0560   25.8020 C.ar  419  PHE419     -0.0000
@<TRIPOS>BOND
     1   184   185    1
     2   185   186    1
     3   185   188    1
     4   186   187    2
     5    82    80    1
     6    79    78    2
     7   188   189    1
     8   189   190    1
     9   198   197    2
    10    78    77    1
    11   197   196    1
    12    43    41   ar
    13    43    45   ar
    14    80    77    1
    15    80    81    1
    16   191   190    1
    17   191   192    2
    18    41    40   ar
    19    77    76    1
    20   194   192    1
    21    45    44   ar
    22   192   193    1
    23    38    37    2
    24    83    81    1
    25    40    39    1
    26    40    42   ar
    27    39    36    1
    28   199   196    1
    29   199   200    1
    30   196   195    1
    31    49    48    2
    32    73    72    2
    33    44    42   ar
    34    76    72   am
    35    37    36    1
    36    37    46   am
    37    47    48    1
    38    47    50    1
    39    47    46    1
    40    72    71    1
    41    36    35    1
    42    50    51    1
    43    75    74    1
    44   200   202   ar
    45   200   201   ar
    46   202   204   ar
    47    85    84    1
    48    85    86    1
    49    74    71    1
    50   201   203   ar
    51    71    70    1
    52    35    30   am
    53    51    53   am
    54    51    52    2
    55    86    88   am
    56    86    87    2
    57    95    93   ar
    58   204   205   ar
    59    88    89    1
    60    31    30    2
    61    70    65   am
    62    92    89    1
    63    92    93    1
    64    68    67    1
    65    68    69    1
    66    67    64    1
    67    30    29    1
    68    66    65    2
    69   203   205   ar
    70    89    90    1
    71    93    94   ar
    72    65    64    1
    73    64    63    1
    74    69    63    1
    75    62    61    1
    76    29    32    1
    77    29    28    1
    78    90    96   am
    79    90    91    2
    80   109   110   ar
    81   109   107   ar
    82    63    56   am
    83    32    33    1
    84    24    23    2
    85   110   108   ar
    86    96    97    1
    87    33    34    1
    88   107   105   ar
    89    28    23   am
    90    28    34    1
    91    60    61    1
    92    60    59    1
    93    26    25    1
    94    23    22    1
    95    56    57    2
    96    56    55    1
    97   108   106   ar
    98    25    22    1
    99    25    27    1
   100   105   106   ar
   101   105   104    1
   102    97    98    1
   103    55    58    1
   104    55    54    1
   105    59    58    1
   106    22    21    1
   107   100    98   am
   108   100   101    1
   109   104   101    1
   110    21    15   am
   111    98    99    2
   112   143   144    1
   113   143   140    1
   114   101   102    1
   115   136   137    1
   116   136   135    1
   117   131   130    2
   118   139   137   am
   119   139   140    1
   120   137   138    2
   121   150   149    1
   122   140   141    1
   123   102   103    1
   124   134   132    1
   125    15    16    2
   126    15    14    1
   127   130   135   am
   128   130   129    1
   129    19    17    1
   130   132   129    1
   131   132   133    1
   132    14    17    1
   133    14    13    1
   134   149   151    1
   135   149   146    1
   136   129   128    1
   137   141   142    2
   138    17    18    1
   139   125   127   ar
   140   125   123   ar
   141   127   126   ar
   142   128   119   am
   143   145   146    1
   144    18    20    1
   145   146   147    1
   146    12    11    1
   147   111   112    1
   148   123   122   ar
   149   126   124   ar
   150     9    11   ar
   151     9     7   ar
   152   116   115    1
   153    11    10   ar
   154   119   118    1
   155   119   120    2
   156   122   124   ar
   157   122   121    1
   158   147   148    2
   159   115   112    1
   160     7     6   ar
   161   112   113    1
   162   118   121    1
   163   118   117    1
   164   159   161   ar
   165   159   157   ar
   166   161   160   ar
   167    10     8   ar
   168   113   114    2
   169   168   167    1
   170   160   158   ar
   171   157   156    1
   172   157   158   ar
   173   156   153    1
   174     3     4    2
   175     3     2    1
   176     6     8   ar
   177     6     5    1
   178   169   167    1
   179   167   166    1
   180   182   183   ar
   181   182   180   ar
   182   183   181   ar
   183     2     5    1
   184     2     1    1
   185   153   152    1
   186   153   154    1
   187   180   177   ar
   188   162   154   am
   189   162   163    1
   190   181   179   ar
   191   166   163    1
   192   154   155    2
   193   163   164    1
   194   177   179   ar
   195   177   175   ar
   196   179   178   ar
   197   164   165    2
   198   175   174    1
   199   175   176   ar
   200   178   176   ar
   201   174   171    1
   202   170   171    1
   203   171   172    1
   204   172   173    2
