@<TRIPOS>MOLECULE
tmp/4jddA01.pdb
 144 134 0 0 0
SMALL
GASTEIGER

@<TRIPOS>ATOM
      1  N        -24.9470   -9.3030   -8.5590 N.3    19  GLU19      -0.1245
      2  CA       -23.6720   -9.5620   -7.8940 C.3    19  GLU19       0.1567
      3  C        -22.5180   -8.7300   -8.5500 C.2    19  GLU19       0.2260
      4  O        -21.7150   -8.0650   -7.8910 O.2    19  GLU19      -0.2867
      5  CB       -23.3470  -11.0680   -7.9200 C.3    19  GLU19       0.0388
      6  CG       -22.1550  -11.4310   -7.0240 C.3    19  GLU19       0.1160
      7  CD       -20.7810  -11.2860   -7.7400 C.2    19  GLU19       0.3649
      8  OE1      -19.7780  -11.0200   -7.0760 O.co2  19  GLU19      -0.2457
      9  OE2      -20.6880  -11.4160   -8.9520 O.co2  19  GLU19      -0.2457
     10  N        -24.1350  -23.8510   -7.2810 N.3    44  GLU44      -0.1245
     11  CA       -23.8630  -22.4470   -7.6550 C.3    44  GLU44       0.1567
     12  C        -24.9520  -21.4640   -7.1520 C.2    44  GLU44       0.2260
     13  O        -24.6680  -20.3710   -6.6780 O.2    44  GLU44      -0.2867
     14  CB       -23.7010  -22.3290   -9.1660 C.3    44  GLU44       0.0388
     15  CG       -23.5850  -20.9050   -9.6330 C.3    44  GLU44       0.1160
     16  CD       -23.2430  -20.7750  -11.1260 C.2    44  GLU44       0.3649
     17  OE1      -23.6940  -21.6380  -11.9160 O.co2  44  GLU44      -0.2457
     18  OE2      -22.5330  -19.7940  -11.4900 O.co2  44  GLU44      -0.2457
     19  N        -24.6890  -20.7010   -3.4280 N.3    47  ASN47      -0.1225
     20  CA       -23.6930  -19.6940   -3.2090 C.3    47  ASN47       0.1785
     21  C        -24.2510  -18.2990   -3.4520 C.2    47  ASN47       0.2597
     22  O        -23.9710  -17.4210   -2.6960 O.2    47  ASN47      -0.2718
     23  CB       -22.4880  -19.9500   -4.1140 C.3    47  ASN47       0.1169
     24  CG       -21.6720  -21.2090   -3.6810 C.2    47  ASN47       0.2627
     25  OD1      -20.8720  -21.7460   -4.4830 O.2    47  ASN47      -0.2716
     26  ND2      -21.8760  -21.6760   -2.4930 N.am   47  ASN47      -0.0877
     27  N        -25.0090  -18.0790   -4.5410 N.am   48  LEU48      -0.1980
     28  CA       -25.6500  -16.7670   -4.8130 C.3    48  LEU48       0.1596
     29  C        -26.5680  -16.3140   -3.6860 C.2    48  LEU48       0.2287
     30  O        -26.5700  -15.1440   -3.2730 O.2    48  LEU48      -0.2864
     31  CB       -26.5020  -16.8250   -6.1310 C.3    48  LEU48       0.0297
     32  CG       -25.6630  -17.0540   -7.3960 C.3    48  LEU48       0.0022
     33  CD1      -26.6220  -17.2160   -8.5700 C.3    48  LEU48       0.0001
     34  CD2      -24.6210  -15.9460   -7.6240 C.3    48  LEU48       0.0001
     35  N        -26.4620  -17.1710   -0.4740 N.3    50  SER50      -0.1202
     36  CA       -25.7980  -16.9650    0.7970 C.3    50  SER50       0.2020
     37  C        -24.9820  -15.7060    0.7140 C.2    50  SER50       0.2618
     38  O        -25.0100  -14.9610    1.6570 O.2    50  SER50      -0.2717
     39  CB       -24.9500  -18.1710    1.2650 C.3    50  SER50       0.2103
     40  OG       -23.7290  -18.2360    0.5280 O.3    50  SER50      -0.2182
     41  N        -24.3640  -15.4370   -0.4420 N.am   51  VAL51      -0.1979
     42  CA       -23.5520  -14.2190   -0.6500 C.3    51  VAL51       0.1595
     43  C        -24.4310  -12.9690   -0.5970 C.2    51  VAL51       0.2287
     44  O        -24.0520  -11.9360   -0.0040 O.2    51  VAL51      -0.2864
     45  CB       -22.7320  -14.2980   -1.9880 C.3    51  VAL51       0.0276
     46  CG1      -22.2630  -12.9120   -2.4600 C.3    51  VAL51       0.0022
     47  CG2      -21.4840  -15.1490   -1.7970 C.3    51  VAL51       0.0022
     48  N        -25.5720  -12.4770    3.0800 N.3    54  LYS54      -0.1245
     49  CA       -24.4010  -12.1610    3.9090 C.3    54  LYS54       0.1561
     50  C        -24.0390  -10.7080    3.7320 C.2    54  LYS54       0.2260
     51  O        -23.7030  -10.0540    4.6770 O.2    54  LYS54      -0.2867
     52  CB       -23.2090  -13.0400    3.5070 C.3    54  LYS54       0.0271
     53  CG       -21.8520  -12.6700    4.0840 C.3    54  LYS54       0.0035
     54  CD       -20.8770  -13.8540    3.8430 C.3    54  LYS54       0.0206
     55  CE       -19.4360  -13.6220    4.3360 C.3    54  LYS54       0.1093
     56  NZ       -18.4930  -14.2280    3.2800 N.3    54  LYS54      -0.1314
     57  N        -24.7990  -26.8480    4.2890 N.3   124  PHE124     -0.1241
     58  CA       -24.8000  -25.4920    3.8410 C.3   124  PHE124      0.1605
     59  C        -26.0010  -24.7390    4.4460 C.2   124  PHE124      0.2264
     60  O        -25.8090  -23.6750    5.0310 O.2   124  PHE124     -0.2867
     61  CB       -24.8750  -25.4830    2.3020 C.3   124  PHE124      0.0534
     62  CG       -24.7220  -24.1060    1.6890 C.ar  124  PHE124     -0.0203
     63  CD1      -25.8090  -23.1840    1.7030 C.ar  124  PHE124     -0.0042
     64  CD2      -23.5340  -23.7550    1.0200 C.ar  124  PHE124     -0.0042
     65  CE1      -25.6880  -21.9250    1.1220 C.ar  124  PHE124     -0.0003
     66  CE2      -23.4060  -22.4760    0.4370 C.ar  124  PHE124     -0.0003
     67  CZ       -24.5080  -21.5740    0.4780 C.ar  124  PHE124     -0.0000
     68  N        -25.6630  -24.4520    8.2670 N.3   127  LYS127     -0.1231
     69  CA       -24.7450  -23.3820    8.5780 C.3   127  LYS127      0.1693
     70  C        -25.4300  -21.9710    8.5050 C.2   127  LYS127      0.2591
     71  O        -25.2680  -21.1650    9.4640 O.2   127  LYS127     -0.2718
     72  CB       -23.5220  -23.3710    7.6620 C.3   127  LYS127      0.0285
     73  CG       -22.5700  -22.2030    7.9480 C.3   127  LYS127      0.0035
     74  CD       -21.4220  -22.2090    6.9160 C.3   127  LYS127      0.0206
     75  CE       -20.6300  -20.8840    6.9500 C.3   127  LYS127      0.1093
     76  NZ       -21.4030  -19.6750    6.4630 N.3   127  LYS127     -0.1314
     77  N        -26.1020  -21.6770    7.3560 N.am  128  MET128     -0.1979
     78  CA       -26.8110  -20.4080    7.1600 C.3   128  MET128      0.1605
     79  C        -27.7770  -20.2190    8.3610 C.2   128  MET128      0.2287
     80  O        -27.8610  -19.1150    8.9520 O.2   128  MET128     -0.2864
     81  CB       -27.6070  -20.3770    5.8350 C.3   128  MET128      0.0413
     82  CG       -26.7530  -20.2390    4.5750 C.3   128  MET128      0.0598
     83  SD       -27.8480  -20.0250    3.1450 S.3   128  MET128     -0.1393
     84  CE       -28.5470  -18.3390    3.3870 C.3   128  MET128      0.0692
     85  N        -14.7520  -27.0950    1.6600 N.3   172  PRO172     -0.2102
     86  CA       -14.8640  -25.6720    2.0390 C.3   172  PRO172      0.1504
     87  C        -16.0910  -25.3140    2.8990 C.2   172  PRO172      0.2575
     88  O        -16.0050  -24.4640    3.7490 O.2   172  PRO172     -0.2718
     89  CB       -14.8840  -24.9380    0.6810 C.3   172  PRO172      0.0282
     90  CG       -15.4730  -25.9910   -0.2660 C.3   172  PRO172      0.0208
     91  CD       -14.7590  -27.2470    0.1870 C.3   172  PRO172      0.0893
     92  N        -17.1970  -26.0340    2.6970 N.am  173  ILE173     -0.1980
     93  CA       -18.4140  -25.8600    3.5210 C.3   173  ILE173      0.1595
     94  C        -18.1400  -26.3890    4.9330 C.2   173  ILE173      0.2287
     95  O        -18.4320  -25.7080    5.9050 O.2   173  ILE173     -0.2864
     96  CB       -19.6510  -26.5540    2.8670 C.3   173  ILE173      0.0276
     97  CG1      -19.9260  -25.9150    1.4690 C.3   173  ILE173      0.0022
     98  CG2      -20.8880  -26.4260    3.7490 C.3   173  ILE173      0.0022
     99  CD1      -20.6350  -26.8390    0.4870 C.3   173  ILE173      0.0001
    100  N        -15.8300  -23.7830    6.4530 N.3   176  GLY176     -0.1225
    101  CA       -16.4860  -22.4770    6.7700 C.3   176  GLY176      0.1811
    102  C        -17.4620  -22.6140    7.9610 C.2   176  GLY176      0.2280
    103  O        -17.6350  -21.6910    8.7210 O.2   176  GLY176     -0.2866
    104  N         -8.9940  -23.3400   -3.6930 N.3   219  LYS219     -0.1231
    105  CA        -8.6820  -21.9680   -3.3200 C.3   219  LYS219      0.1693
    106  C         -9.5860  -21.4940   -2.1650 C.2   219  LYS219      0.2592
    107  O         -9.1120  -20.8610   -1.2090 O.2   219  LYS219     -0.2718
    108  CB        -8.8130  -21.0310   -4.5430 C.3   219  LYS219      0.0285
    109  CG        -7.6220  -21.0700   -5.5040 C.3   219  LYS219      0.0035
    110  CD        -6.8110  -19.7660   -5.4500 C.3   219  LYS219      0.0206
    111  CE        -5.5230  -19.8040   -6.2850 C.3   219  LYS219      0.1093
    112  NZ        -5.7820  -20.0470   -7.7390 N.3   219  LYS219     -0.1314
    113  N        -10.8730  -21.8130   -2.2510 N.am  220  ASP220     -0.1974
    114  CA       -11.7750  -21.4660   -1.1490 C.3   220  ASP220      0.1709
    115  C        -11.2790  -22.1350    0.1630 C.2   220  ASP220      0.2293
    116  O        -11.1430  -21.4300    1.1560 O.2   220  ASP220     -0.2864
    117  CB       -13.2500  -21.7020   -1.4960 C.3   220  ASP220      0.1436
    118  CG       -13.5180  -23.0590   -2.0650 C.2   220  ASP220      0.3671
    119  OD1      -14.6920  -23.2950   -2.4680 O.co2 220  ASP220     -0.2456
    120  OD2      -12.5630  -23.8970   -2.1220 O.co2 220  ASP220     -0.2456
    121  N         -8.2000  -20.3870    1.6090 N.3   223  LEU223     -0.1231
    122  CA        -8.5920  -19.1040    2.1400 C.3   223  LEU223      0.1693
    123  C         -9.1860  -19.3110    3.5370 C.2   223  LEU223      0.2591
    124  O         -8.8810  -18.5870    4.4410 O.2   223  LEU223     -0.2718
    125  CB        -9.5760  -18.3480    1.1930 C.3   223  LEU223      0.0284
    126  CG       -10.3560  -17.0820    1.6900 C.3   223  LEU223      0.0019
    127  CD1       -9.4700  -15.8820    2.0540 C.3   223  LEU223      0.0001
    128  CD2      -11.3950  -16.5740    0.6900 C.3   223  LEU223      0.0001
    129  N        -10.0440  -20.3050    3.7030 N.am  224  ILE224     -0.1980
    130  CA       -10.7210  -20.5220    4.9920 C.3   224  ILE224      0.1595
    131  C         -9.7300  -21.0020    6.0450 C.2   224  ILE224      0.2287
    132  O         -9.8080  -20.5720    7.2120 O.2   224  ILE224     -0.2864
    133  CB       -11.9120  -21.5150    4.8340 C.3   224  ILE224      0.0276
    134  CG1      -12.9760  -20.9430    3.8690 C.3   224  ILE224      0.0022
    135  CG2      -12.6120  -21.6960    6.1590 C.3   224  ILE224      0.0022
    136  CD1      -13.9670  -21.9730    3.3630 C.3   224  ILE224      0.0001
    137  N         -8.2290  -18.1090    7.4640 N.3   227  LEU227     -0.1245
    138  CA        -9.0480  -17.3300    8.4000 C.3   227  LEU227      0.1561
    139  C         -9.1110  -18.0360    9.7560 C.2   227  LEU227      0.2260
    140  O         -9.1840  -17.3690   10.7640 O.2   227  LEU227     -0.2867
    141  CB       -10.4910  -17.0570    7.9060 C.3   227  LEU227      0.0270
    142  CG       -10.5360  -16.4190    6.5200 C.3   227  LEU227      0.0019
    143  CD1      -11.9470  -16.5110    5.9320 C.3   227  LEU227      0.0001
    144  CD2       -9.9720  -15.0110    6.4490 C.3   227  LEU227      0.0001
@<TRIPOS>BOND
     1    17    16   ar
     2    18    16   ar
     3    16    15    1
     4    15    14    1
     5    14    11    1
     6     9     7   ar
     7    33    32    1
     8     1     2    1
     9     3     2    1
    10     3     4    2
    11     5     2    1
    12     5     6    1
    13     7     8   ar
    14     7     6    1
    15   112   111    1
    16    11    10    1
    17    11    12    1
    18    34    32    1
    19    32    31    1
    20    12    13    2
    21   111   110    1
    22    31    28    1
    23   109   110    1
    24   109   108    1
    25    28    27    1
    26    28    29    1
    27   108   105    1
    28    27    21   am
    29    25    24    2
    30    23    24    1
    31    23    20    1
    32   104   105    1
    33    29    30    2
    34    24    26   am
    35    21    20    1
    36    21    22    2
    37    19    20    1
    38   105   106    1
    39   119   118   ar
    40    46    45    1
    41   113   106   am
    42   113   114    1
    43   106   107    2
    44   120   118   ar
    45   118   117    1
    46    45    47    1
    47    45    42    1
    48   117   114    1
    49   114   115    1
    50    42    43    1
    51    42    41    1
    52    43    44    2
    53    35    36    1
    54    41    37   am
    55    90    91    1
    56    90    89    1
    57   115   116    2
    58    91    85    1
    59    66    67   ar
    60    66    64   ar
    61    67    65   ar
    62    99    97    1
    63    40    39    1
    64    89    86    1
    65   128   126    1
    66    37    36    1
    67    37    38    2
    68    36    39    1
    69    64    62   ar
    70    65    63   ar
    71   125   126    1
    72   125   122    1
    73    97    96    1
    74   121   122    1
    75    85    86    1
    76    62    63   ar
    77    62    61    1
    78   126   127    1
    79    86    87    1
    80   122   123    1
    81    61    58    1
    82    92    87   am
    83    92    93    1
    84    96    93    1
    85    96    98    1
    86    87    88    2
    87    48    49    1
    88    83    84    1
    89    83    82    1
    90    56    55    1
    91   136   134    1
    92    52    49    1
    93    52    53    1
    94    93    94    1
    95   123   129   am
    96   123   124    2
    97   129   130    1
    98    50    49    1
    99    50    51    2
   100    58    57    1
   101    58    59    1
   102    54    53    1
   103    54    55    1
   104   134   133    1
   105    59    60    2
   106    82    81    1
   107   133   130    1
   108   133   135    1
   109    94    95    2
   110   130   131    1
   111    81    78    1
   112   143   142    1
   113   131   132    2
   114   144   142    1
   115   100   101    1
   116    76    75    1
   117   142   141    1
   118   101   102    1
   119    74    75    1
   120    74    73    1
   121    78    77    1
   122    78    79    1
   123    77    70   am
   124   137   138    1
   125    72    73    1
   126    72    69    1
   127   141   138    1
   128   102   103    2
   129    68    69    1
   130    79    80    2
   131   138   139    1
   132    70    69    1
   133    70    71    2
   134   139   140    2
