@<TRIPOS>MOLECULE
tmp/4jdfA00.pdb
 128 126 0 0 0
SMALL
GASTEIGER

@<TRIPOS>ATOM
      1  N          4.0000    5.9800   -3.5130 N.3     9  TRP9       -0.1227
      2  CA         4.7780    5.8860   -4.7440 C.3     9  TRP9        0.1737
      3  C          5.2680    7.2480   -5.2030 C.2     9  TRP9        0.2596
      4  O          4.6440    8.2730   -4.9240 O.2     9  TRP9       -0.2718
      5  CB         3.9310    5.3110   -5.8760 C.3     9  TRP9        0.0564
      6  CG         3.6790    3.8700   -5.7810 C.ar    9  TRP9        0.0003
      7  CD1        2.6500    3.2610   -5.1270 C.ar    9  TRP9        0.0946
      8  CD2        4.4510    2.8280   -6.3890 C.ar    9  TRP9        0.0152
      9  NE1        2.7450    1.8960   -5.2750 N.ar    9  TRP9       -0.2442
     10  CE2        3.8430    1.6070   -6.0460 C.ar    9  TRP9        0.0810
     11  CE3        5.6100    2.8110   -7.1780 C.ar    9  TRP9        0.0012
     12  CZ2        4.3460    0.3780   -6.4700 C.ar    9  TRP9        0.0191
     13  CZ3        6.1040    1.5880   -7.6060 C.ar    9  TRP9        0.0001
     14  CH2        5.4740    0.3920   -7.2480 C.ar    9  TRP9        0.0015
     15  N          6.3840    7.2590   -5.9230 N.am   10  THR10      -0.1939
     16  CA         6.7700    8.4590   -6.6460 C.3    10  THR10       0.2028
     17  C          5.6790    8.7860   -7.6610 C.2    10  THR10       0.2642
     18  O          4.9420    7.8980   -8.0960 O.2    10  THR10      -0.2714
     19  CB         8.1020    8.2740   -7.3710 C.3    10  THR10       0.1808
     20  OG1        8.0220    7.1220   -8.2210 O.3    10  THR10      -0.2208
     21  CG2        9.2290    8.0840   -6.3600 C.3    10  THR10       0.0379
     22  N          5.5710   10.0610   -8.0260 N.am   11  GLU11      -0.1963
     23  CA         4.6280   10.4980   -9.0480 C.3    11  GLU11       0.1733
     24  C          3.2310    9.9220   -8.8380 C.2    11  GLU11       0.2616
     25  O          2.6280    9.3790   -9.7680 O.2    11  GLU11      -0.2715
     26  CB         5.1440   10.1260  -10.4400 C.3    11  GLU11       0.0429
     27  CG         6.1890   11.0830  -10.9780 C.3    11  GLU11       0.1163
     28  CD         7.4570   10.3790  -11.4060 C.2    11  GLU11       0.3649
     29  OE1        7.3590    9.3350  -12.0850 O.co2  11  GLU11      -0.2457
     30  OE2        8.5520   10.8670  -11.0550 O.co2  11  GLU11      -0.2457
     31  N          2.7190   10.0450   -7.6160 N.am   12  TYR12      -0.1974
     32  CA         1.4060    9.4910   -7.2940 C.3    12  TYR12       0.1639
     33  C          0.6010   10.4450   -6.4310 C.2    12  TYR12       0.2290
     34  O         -0.1630   10.0180   -5.5660 O.2    12  TYR12      -0.2864
     35  CB         1.5630    8.1440   -6.5770 C.3    12  TYR12       0.0560
     36  CG         0.6250    7.0540   -7.0530 C.ar   12  TYR12      -0.0198
     37  CD1        0.0600    7.0900   -8.3250 C.ar   12  TYR12      -0.0009
     38  CD2        0.3030    5.9870   -6.2250 C.ar   12  TYR12      -0.0009
     39  CE1       -0.7980    6.0710   -8.7640 C.ar   12  TYR12       0.0417
     40  CE2       -0.5460    4.9750   -6.6510 C.ar   12  TYR12       0.0417
     41  CZ        -1.0900    5.0210   -7.9160 C.ar   12  TYR12       0.1957
     42  OH        -1.9250    4.0070   -8.3280 O.3    12  TYR12      -0.2866
     43  N         -0.4760   -2.1630   -2.6720 N.3    57  SER57      -0.1217
     44  CA        -1.4840   -2.7300   -3.5560 C.3    57  SER57       0.1889
     45  C         -2.5490   -3.4130   -2.7120 C.2    57  SER57       0.2288
     46  O         -2.2870   -3.8160   -1.5850 O.2    57  SER57      -0.2866
     47  CB        -0.8570   -3.7710   -4.4820 C.3    57  SER57       0.2089
     48  OG        -0.3720   -4.8610   -3.7170 O.3    57  SER57      -0.2183
     49  N          8.3130   -7.9360  -14.0840 N.3   154  ASP154     -0.1239
     50  CA         7.2740   -8.3110  -13.1310 C.3   154  ASP154      0.1674
     51  C          6.6530   -9.6290  -13.5960 C.2   154  ASP154      0.2266
     52  O          5.7050   -9.6290  -14.3770 O.2   154  ASP154     -0.2867
     53  CB         6.2070   -7.2110  -13.0690 C.3   154  ASP154      0.1410
     54  CG         5.2040   -7.4120  -11.9340 C.2   154  ASP154      0.3668
     55  OD1        4.7890   -8.5610  -11.6830 O.co2 154  ASP154     -0.2456
     56  OD2        4.8200   -6.4060  -11.2960 O.co2 154  ASP154     -0.2456
     57  N          2.7550  -10.2370  -13.1380 N.3   157  GLU157     -0.1245
     58  CA         1.8850   -9.6050  -14.1110 C.3   157  GLU157      0.1567
     59  C          2.0590  -10.1780  -15.5220 C.2   157  GLU157      0.2260
     60  O          1.0840  -10.3520  -16.2510 O.2   157  GLU157     -0.2867
     61  CB         2.0840   -8.0850  -14.1160 C.3   157  GLU157      0.0388
     62  CG         1.5620   -7.4030  -12.8560 C.3   157  GLU157      0.1160
     63  CD         1.4180   -5.9030  -13.0120 C.2   157  GLU157      0.3649
     64  OE1        1.7910   -5.3790  -14.0740 O.co2 157  GLU157     -0.2457
     65  OE2        0.9340   -5.2470  -12.0690 O.co2 157  GLU157     -0.2457
     66  N          2.1800    0.0110  -17.0660 N.3   216  TRP216     -0.1241
     67  CA         1.0380    0.4750  -16.2820 C.3   216  TRP216      0.1605
     68  C          0.3830    1.6120  -17.0370 C.2   216  TRP216      0.2264
     69  O          1.0720    2.5040  -17.5300 O.2   216  TRP216     -0.2867
     70  CB         1.5000    1.0010  -14.9230 C.3   216  TRP216      0.0550
     71  CG         2.1410   -0.0380  -14.0630 C.ar  216  TRP216      0.0003
     72  CD1        1.9340   -1.3920  -14.1080 C.ar  216  TRP216      0.0946
     73  CD2        3.1000    0.1940  -13.0240 C.ar  216  TRP216      0.0152
     74  NE1        2.7150   -2.0140  -13.1490 N.ar  216  TRP216     -0.2442
     75  CE2        3.4350   -1.0610  -12.4760 C.ar  216  TRP216      0.0810
     76  CE3        3.7120    1.3440  -12.5090 C.ar  216  TRP216      0.0012
     77  CZ2        4.3550   -1.1970  -11.4310 C.ar  216  TRP216      0.0191
     78  CZ3        4.6240    1.2070  -11.4710 C.ar  216  TRP216      0.0001
     79  CH2        4.9300   -0.0550  -10.9420 C.ar  216  TRP216      0.0015
     80  N          1.3690    5.3010  -16.1260 N.3   219  SER219     -0.1217
     81  CA         2.7600    5.5600  -16.4990 C.3   219  SER219      0.1889
     82  C          2.8840    5.8400  -17.9900 C.2   219  SER219      0.2288
     83  O          3.6570    6.6970  -18.4130 O.2   219  SER219     -0.2866
     84  CB         3.6430    4.3680  -16.1320 C.3   219  SER219      0.2089
     85  OG         3.5720    4.1070  -14.7440 O.3   219  SER219     -0.2183
     86  N          1.3790    9.1650  -18.6420 N.3   222  GLN222     -0.1245
     87  CA         2.3900   10.1330  -18.2250 C.3   222  GLN222      0.1566
     88  C          3.4620   10.3500  -19.3010 C.2   222  GLN222      0.2260
     89  O          3.8480   11.4980  -19.5890 O.2   222  GLN222     -0.2867
     90  CB         3.0160    9.7260  -16.8880 C.3   222  GLN222      0.0367
     91  CG         2.0900    9.9960  -15.6980 C.3   222  GLN222      0.0905
     92  CD         2.6390    9.4320  -14.4050 C.2   222  GLN222      0.2608
     93  OE1        3.8390    9.1480  -14.3020 O.2   222  GLN222     -0.2717
     94  NE2        1.7640    9.2460  -13.4170 N.am  222  GLN222     -0.0878
     95  N         -5.5300   -3.4930  -11.3330 N.3   248  TRP248     -0.1241
     96  CA        -4.9930   -3.4880   -9.9810 C.3   248  TRP248      0.1605
     97  C         -5.3750   -2.1990   -9.3000 C.2   248  TRP248      0.2264
     98  O         -5.7070   -1.2290   -9.9610 O.2   248  TRP248     -0.2867
     99  CB        -3.4720   -3.6740   -9.9820 C.3   248  TRP248      0.0550
    100  CG        -2.7670   -2.9900  -11.1130 C.ar  248  TRP248      0.0003
    101  CD1       -2.3910   -3.5470  -12.2990 C.ar  248  TRP248      0.0946
    102  CD2       -2.3600   -1.6220  -11.1630 C.ar  248  TRP248      0.0152
    103  NE1       -1.7720   -2.6110  -13.0880 N.ar  248  TRP248     -0.2442
    104  CE2       -1.7230   -1.4230  -12.4120 C.ar  248  TRP248      0.0810
    105  CE3       -2.4540   -0.5500  -10.2730 C.ar  248  TRP248      0.0012
    106  CZ2       -1.2030   -0.1920  -12.7960 C.ar  248  TRP248      0.0191
    107  CZ3       -1.9270    0.6790  -10.6570 C.ar  248  TRP248      0.0001
    108  CH2       -1.3050    0.8430  -11.9030 C.ar  248  TRP248      0.0015
    109  N         -4.4200    0.5400   -6.0210 N.3   250  ASP250     -0.1239
    110  CA        -3.5730    0.9940   -4.9350 C.3   250  ASP250      0.1674
    111  C         -4.4540    1.6130   -3.8610 C.2   250  ASP250      0.2266
    112  O         -5.4610    2.2560   -4.1600 O.2   250  ASP250     -0.2867
    113  CB        -2.5090    1.9620   -5.4390 C.3   250  ASP250      0.1410
    114  CG        -1.4460    1.2630   -6.2760 C.2   250  ASP250      0.3668
    115  OD1       -1.0810    0.1150   -5.9310 O.co2 250  ASP250     -0.2456
    116  OD2       -0.9840    1.8500   -7.2740 O.co2 250  ASP250     -0.2456
    117  N         -4.1670    8.7830  -13.6280 N.3   286  TYR286     -0.1241
    118  CA        -4.7150    7.5310  -13.1230 C.3   286  TYR286      0.1605
    119  C         -6.1290    7.8130  -12.6950 C.2   286  TYR286      0.2264
    120  O         -6.4070    8.8930  -12.1560 O.2   286  TYR286     -0.2867
    121  CB        -3.9690    7.0620  -11.8770 C.3   286  TYR286      0.0534
    122  CG        -2.7030    6.3000  -12.1730 C.ar  286  TYR286     -0.0201
    123  CD1       -2.7320    4.9170  -12.3440 C.ar  286  TYR286     -0.0009
    124  CD2       -1.4800    6.9550  -12.2710 C.ar  286  TYR286     -0.0009
    125  CE1       -1.5720    4.1990  -12.6220 C.ar  286  TYR286      0.0417
    126  CE2       -0.3170    6.2440  -12.5490 C.ar  286  TYR286      0.0417
    127  CZ        -0.3750    4.8710  -12.7270 C.ar  286  TYR286      0.1957
    128  OH         0.7780    4.1480  -12.9970 O.3   286  TYR286     -0.2866
@<TRIPOS>BOND
     1    89    88    2
     2    88    87    1
     3    86    87    1
     4    83    82    2
     5    87    90    1
     6    82    81    1
     7    69    68    2
     8    66    67    1
     9    68    67    1
    10    90    91    1
    11    81    84    1
    12    81    80    1
    13    67    70    1
    14    60    59    2
    15    84    85    1
    16    91    92    1
    17    59    58    1
    18    70    71    1
    19    92    93    2
    20    92    94   am
    21    52    51    2
    22    61    58    1
    23    61    62    1
    24    58    57    1
    25    72    71   ar
    26    72    74   ar
    27    49    50    1
    28    64    63   ar
    29    71    73   ar
    30   117   118    1
    31    51    50    1
    32    74    75   ar
    33    50    53    1
    34   118   119    1
    35   118   121    1
    36   103   104   ar
    37   103   101   ar
    38    53    54    1
    39    73    76   ar
    40    73    75   ar
    41    63    62    1
    42    63    65   ar
    43   128   127    1
    44   106   104   ar
    45   106   108   ar
    46   127   125   ar
    47   127   126   ar
    48   119   120    2
    49   125   123   ar
    50   126   124   ar
    51    76    78   ar
    52    75    77   ar
    53   104   102   ar
    54   123   122   ar
    55   101   100   ar
    56   124   122   ar
    57   122   121    1
    58    29    28   ar
    59    54    55   ar
    60    54    56   ar
    61   108   107   ar
    62    78    79   ar
    63    77    79   ar
    64    28    30   ar
    65    28    27    1
    66    95    96    1
    67   102   100   ar
    68   102   105   ar
    69   100    99    1
    70    27    26    1
    71   107   105   ar
    72    26    23    1
    73    99    96    1
    74    96    97    1
    75    98    97    2
    76    25    24    2
    77    23    24    1
    78    23    22    1
    79    24    31   am
    80    39    37   ar
    81    39    41   ar
    82    42    41    1
    83    37    36   ar
    84    20    19    1
    85    18    17    2
    86    22    17   am
    87    41    40   ar
    88    17    16    1
    89    31    32    1
    90    13    14   ar
    91    13    11   ar
    92    19    16    1
    93    19    21    1
    94    32    35    1
    95    32    33    1
    96   116   114   ar
    97    14    12   ar
    98    11     8   ar
    99    36    35    1
   100    36    38   ar
   101    40    38   ar
   102    16    15    1
   103    12    10   ar
   104    33    34    2
   105     8    10   ar
   106     8     6   ar
   107   114   115   ar
   108   114   113    1
   109    10     9   ar
   110   109   110    1
   111    15     3   am
   112     5     6    1
   113     5     2    1
   114     6     7   ar
   115   113   110    1
   116     9     7   ar
   117     3     4    2
   118     3     2    1
   119   110   111    1
   120     2     1    1
   121    47    48    1
   122    47    44    1
   123   112   111    2
   124    44    45    1
   125    44    43    1
   126    45    46    2
