@<TRIPOS>MOLECULE
tmp/4jdiA01.pdb
 175 162 0 0 0
SMALL
GASTEIGER

@<TRIPOS>ATOM
      1  N        -33.1180   18.0840  -18.6860 N.3    28  ILE28      -0.1231
      2  CA       -33.6350   17.3090  -17.5580 C.3    28  ILE28       0.1692
      3  C        -32.9720   17.6540  -16.2250 C.2    28  ILE28       0.2593
      4  O        -33.4960   17.2970  -15.1710 O.2    28  ILE28      -0.2718
      5  CB       -33.5600   15.7790  -17.7990 C.3    28  ILE28       0.0266
      6  CG1      -32.1110   15.3210  -17.9980 C.3    28  ILE28       0.0019
      7  CG2      -34.4300   15.3720  -18.9940 C.3    28  ILE28       0.0020
      8  CD1      -31.8950   13.8330  -17.8300 C.3    28  ILE28       0.0001
      9  N        -31.8260   18.3400  -16.2690 N.am   29  GLY29      -0.1942
     10  CA       -31.0850   18.6570  -15.0510 C.3    29  GLY29       0.2014
     11  C        -30.1880   19.8760  -15.1720 C.2    29  GLY29       0.2639
     12  O        -29.7600   20.2470  -16.2700 O.2    29  GLY29      -0.2714
     13  N        -29.9360   20.5130  -14.0320 N.am   30  GLU30      -0.1963
     14  CA       -29.0380   21.6530  -13.9260 C.3    30  GLU30       0.1733
     15  C        -27.9880   21.2600  -12.9100 C.2    30  GLU30       0.2617
     16  O        -28.3200   20.9700  -11.7620 O.2    30  GLU30      -0.2715
     17  CB       -29.7830   22.8850  -13.4150 C.3    30  GLU30       0.0429
     18  CG       -30.4980   23.6770  -14.4910 C.3    30  GLU30       0.1163
     19  CD       -31.6450   24.5180  -13.9510 C.2    30  GLU30       0.3649
     20  OE1      -32.8210   24.1570  -14.1970 O.co2  30  GLU30      -0.2457
     21  OE2      -31.3750   25.5370  -13.2790 O.co2  30  GLU30      -0.2457
     22  N        -26.7300   21.2260  -13.3280 N.am   31  GLY31      -0.1940
     23  CA       -25.6460   20.9140  -12.4110 C.3    31  GLY31       0.2014
     24  C        -24.8760   22.1550  -12.0040 C.2    31  GLY31       0.2640
     25  O        -25.2070   23.2750  -12.3980 O.2    31  GLY31      -0.2714
     26  N        -23.8280   21.9420  -11.2230 N.am   32  SER32      -0.1935
     27  CA       -22.9690   23.0260  -10.7570 C.3    32  SER32       0.2055
     28  C        -22.0460   23.5240  -11.8800 C.2    32  SER32       0.2644
     29  O        -21.5860   24.6680  -11.8430 O.2    32  SER32      -0.2714
     30  CB       -22.1500   22.5530   -9.5380 C.3    32  SER32       0.2130
     31  OG       -23.0090   22.2820   -8.4240 O.3    32  SER32      -0.2179
     32  N        -21.7970   22.6690  -12.8780 N.am   33  THR33      -0.1936
     33  CA       -20.8850   23.0000  -13.9900 C.3    33  THR33       0.2028
     34  C        -21.5600   23.1470  -15.3630 C.2    33  THR33       0.2642
     35  O        -20.9080   23.5280  -16.3260 O.2    33  THR33      -0.2714
     36  CB       -19.7250   21.9890  -14.1290 C.3    33  THR33       0.1808
     37  OG1      -20.2240   20.7150  -14.5690 O.3    33  THR33      -0.2208
     38  CG2      -18.9400   21.8330  -12.8020 C.3    33  THR33       0.0379
     39  N        -22.8490   22.8180  -15.4550 N.am   34  GLY34      -0.1954
     40  CA       -23.5830   22.9880  -16.7090 C.3    34  GLY34       0.1869
     41  C        -24.9500   22.3540  -16.6250 C.2    34  GLY34       0.2309
     42  O        -25.4910   22.2050  -15.5290 O.2    34  GLY34      -0.2863
     43  N        -27.8610   19.2240  -18.2560 N.3    36  VAL36      -0.1245
     44  CA       -27.9520   17.8680  -18.7640 C.3    36  VAL36       0.1561
     45  C        -29.2960   17.7420  -19.4930 C.2    36  VAL36       0.2260
     46  O        -30.3720   18.0850  -18.9370 O.2    36  VAL36      -0.2867
     47  CB       -27.8340   16.7920  -17.6490 C.3    36  VAL36       0.0252
     48  CG1      -28.0200   15.3700  -18.2130 C.3    36  VAL36       0.0019
     49  CG2      -26.4820   16.8840  -16.9310 C.3    36  VAL36       0.0019
     50  N        -27.9510   10.7120  -22.6540 N.3    49  ALA49      -0.1245
     51  CA       -27.8700   11.9290  -21.8990 C.3    49  ALA49       0.1562
     52  C        -26.7120   12.7420  -22.4830 C.2    49  ALA49       0.2260
     53  O        -25.7140   12.1640  -22.9620 O.2    49  ALA49      -0.2867
     54  CB       -27.6360   11.6330  -20.4190 C.3    49  ALA49       0.0290
     55  N        -24.3790   16.0190  -21.3240 N.3    51  LYS51      -0.1245
     56  CA       -23.9440   17.0150  -20.3630 C.3    51  LYS51       0.1561
     57  C        -23.2250   18.1250  -21.1220 C.2    51  LYS51       0.2260
     58  O        -22.2430   17.8550  -21.8260 O.2    51  LYS51      -0.2867
     59  CB       -23.0070   16.3700  -19.3310 C.3    51  LYS51       0.0271
     60  CG       -22.6410   17.2690  -18.1600 C.3    51  LYS51       0.0035
     61  CD       -22.0340   16.4610  -17.0110 C.3    51  LYS51       0.0206
     62  CE       -21.7460   17.3570  -15.8030 C.3    51  LYS51       0.1093
     63  NZ       -21.0520   16.5750  -14.7190 N.3    51  LYS51      -0.1314
     64  N        -14.0210   15.3340  -17.2810 N.3    67  GLU67      -0.1245
     65  CA       -15.2490   14.9750  -18.0130 C.3    67  GLU67       0.1567
     66  C        -14.9470   14.2780  -19.3340 C.2    67  GLU67       0.2260
     67  O        -15.7650   13.4980  -19.8380 O.2    67  GLU67      -0.2867
     68  CB       -16.1330   16.2110  -18.2600 C.3    67  GLU67       0.0388
     69  CG       -16.7180   16.8350  -16.9960 C.3    67  GLU67       0.1160
     70  CD       -17.8680   16.0360  -16.3800 C.2    67  GLU67       0.3649
     71  OE1      -18.2660   14.9780  -16.9330 O.co2  67  GLU67      -0.2457
     72  OE2      -18.3860   16.4720  -15.3290 O.co2  67  GLU67      -0.2457
     73  N        -21.4770    5.3220  -14.4390 N.3    80  VAL80      -0.1245
     74  CA       -22.1680    5.7390  -15.6640 C.3    80  VAL80       0.1561
     75  C        -21.2140    5.6370  -16.8720 C.2    80  VAL80       0.2260
     76  O        -20.0760    6.1070  -16.8120 O.2    80  VAL80      -0.2867
     77  CB       -22.7590    7.1660  -15.5100 C.3    80  VAL80       0.0252
     78  CG1      -23.2520    7.7090  -16.8570 C.3    80  VAL80       0.0019
     79  CG2      -23.9060    7.1630  -14.5000 C.3    80  VAL80       0.0019
     80  N        -23.4830   10.4990  -22.9670 N.3    96  MET96      -0.1230
     81  CA       -23.3400    9.3910  -22.0470 C.3    96  MET96       0.1702
     82  C        -24.6390    8.6080  -21.9110 C.2    96  MET96       0.2592
     83  O        -25.6900    9.0130  -22.4160 O.2    96  MET96      -0.2718
     84  CB       -22.8480    9.9010  -20.6780 C.3    96  MET96       0.0401
     85  CG       -23.8910   10.5990  -19.8320 C.3    96  MET96       0.0596
     86  SD       -23.2270   11.3910  -18.3370 S.3    96  MET96      -0.1393
     87  CE       -23.1110   13.0400  -18.9800 C.3    96  MET96       0.0692
     88  N        -24.5200    7.4630  -21.2570 N.am   97  GLU97      -0.1966
     89  CA       -25.6370    6.5920  -20.9290 C.3    97  GLU97       0.1733
     90  C        -26.7120    7.4010  -20.1830 C.2    97  GLU97       0.2616
     91  O        -26.3960    8.1680  -19.2820 O.2    97  GLU97      -0.2715
     92  CB       -25.0740    5.4930  -20.0280 C.3    97  GLU97       0.0429
     93  CG       -26.0740    4.5270  -19.4500 C.3    97  GLU97       0.1163
     94  CD       -25.4550    3.5250  -18.4860 C.2    97  GLU97       0.3649
     95  OE1      -24.3030    3.6890  -17.9970 O.co2  97  GLU97      -0.2457
     96  OE2      -26.1670    2.5580  -18.1980 O.co2  97  GLU97      -0.2457
     97  N        -27.9730    7.2230  -20.5730 N.am   98  PHE98      -0.1960
     98  CA       -29.0780    7.8850  -19.8920 C.3    98  PHE98       0.1771
     99  C        -29.5610    6.9820  -18.7540 C.2    98  PHE98       0.2619
    100  O        -29.9420    5.8560  -18.9950 O.2    98  PHE98      -0.2715
    101  CB       -30.2230    8.1530  -20.8840 C.3    98  PHE98       0.0574
    102  CG       -31.4580    8.7290  -20.2520 C.ar   98  PHE98      -0.0200
    103  CD1      -31.3770    9.7910  -19.3700 C.ar   98  PHE98      -0.0042
    104  CD2      -32.7120    8.2250  -20.5770 C.ar   98  PHE98      -0.0042
    105  CE1      -32.5260   10.3270  -18.7880 C.ar   98  PHE98      -0.0003
    106  CE2      -33.8550    8.7520  -20.0010 C.ar   98  PHE98      -0.0003
    107  CZ       -33.7630    9.8050  -19.1070 C.ar   98  PHE98      -0.0000
    108  N        -29.5120    7.5010  -17.5340 N.am   99  LEU99      -0.1977
    109  CA       -29.9800    6.8000  -16.3450 C.3    99  LEU99       0.1596
    110  C        -31.4180    7.2590  -16.0770 C.2    99  LEU99       0.2287
    111  O        -31.6530    8.2400  -15.3690 O.2    99  LEU99      -0.2864
    112  CB       -29.0710    7.1350  -15.1550 C.3    99  LEU99       0.0297
    113  CG       -27.7880    6.2780  -15.0080 C.3    99  LEU99       0.0022
    114  CD1      -28.1070    4.8970  -14.4350 C.3    99  LEU99       0.0001
    115  CD2      -27.0020    6.1540  -16.3090 C.3    99  LEU99       0.0001
    116  N        -33.3770    8.4900  -12.8100 N.3   102  GLY102     -0.1210
    117  CA       -33.0820    9.7490  -12.1670 C.3   102  GLY102      0.1956
    118  C        -32.1250    9.6050  -10.9960 C.2   102  GLY102      0.2611
    119  O        -31.4630    8.5890  -10.8640 O.2   102  GLY102     -0.2717
    120  N        -32.0610   10.6420  -10.1620 N.am  103  ALA103     -0.1979
    121  CA       -31.0590   10.7130   -9.0980 C.3   103  ALA103      0.1597
    122  C        -31.6470   10.2360   -7.7750 C.2   103  ALA103      0.2287
    123  O        -32.8540   10.3570   -7.5450 O.2   103  ALA103     -0.2864
    124  CB       -30.5290   12.1300   -8.9490 C.3   103  ALA103      0.0319
    125  N        -17.1160   14.2650   -4.7630 N.3   141  ASP141     -0.1239
    126  CA       -18.4330   14.8930   -4.6720 C.3   141  ASP141      0.1674
    127  C        -19.5240   13.8480   -4.4590 C.2   141  ASP141      0.2266
    128  O        -20.5830   13.8960   -5.0960 O.2   141  ASP141     -0.2867
    129  CB       -18.7100   15.7660   -5.9110 C.3   141  ASP141      0.1410
    130  CG       -19.6400   16.9530   -5.6110 C.2   141  ASP141      0.3668
    131  OD1      -19.9850   17.2120   -4.4340 O.co2 141  ASP141     -0.2456
    132  OD2      -20.0380   17.6450   -6.5730 O.co2 141  ASP141     -0.2456
    133  N        -22.5910   12.3270   -2.8960 N.3   143  LYS143     -0.1245
    134  CA       -23.8400   12.7880   -2.2810 C.3   143  LYS143      0.1561
    135  C        -24.9560   12.1340   -3.0810 C.2   143  LYS143      0.2260
    136  O        -24.6920   11.5680   -4.1430 O.2   143  LYS143     -0.2867
    137  CB       -23.9750   14.3250   -2.3120 C.3   143  LYS143      0.0271
    138  CG       -23.8590   14.9370   -3.6980 C.3   143  LYS143      0.0035
    139  CD       -23.8140   16.4540   -3.6760 C.3   143  LYS143      0.0206
    140  CE       -23.5960   17.0010   -5.0920 C.3   143  LYS143      0.1093
    141  NZ       -23.7240   18.5020   -5.0980 N.3   143  LYS143     -0.1314
    142  N        -27.1590   13.3220   -4.9440 N.3   145  ASP145     -0.1239
    143  CA       -27.2600   13.9420   -6.2690 C.3   145  ASP145      0.1674
    144  C        -26.3340   13.2800   -7.2960 C.2   145  ASP145      0.2266
    145  O        -26.6090   13.3520   -8.4860 O.2   145  ASP145     -0.2867
    146  CB       -26.9480   15.4450   -6.1930 C.3   145  ASP145      0.1410
    147  CG       -27.5420   16.1180   -4.9640 C.2   145  ASP145      0.3668
    148  OD1      -27.2410   15.7170   -3.8090 O.co2 145  ASP145     -0.2456
    149  OD2      -28.3170   17.0700   -5.1650 O.co2 145  ASP145     -0.2456
    150  N        -27.0870    7.8290   -9.5840 N.3   148  LEU148     -0.1245
    151  CA       -28.1790    7.7120  -10.5480 C.3   148  LEU148      0.1561
    152  C        -28.6830    6.2750  -10.6530 C.2   148  LEU148      0.2260
    153  O        -27.9630    5.3240  -10.3340 O.2   148  LEU148     -0.2867
    154  CB       -27.7540    8.2370  -11.9270 C.3   148  LEU148      0.0270
    155  CG       -27.1460    9.6620  -11.9310 C.3   148  LEU148      0.0019
    156  CD1      -26.8310   10.1170  -13.3450 C.3   148  LEU148      0.0001
    157  CD2      -28.0510   10.6830  -11.2470 C.3   148  LEU148      0.0001
    158  N        -22.0330    8.8100  -10.7540 N.3   158  SER158     -0.1202
    159  CA       -21.9250    9.7660  -11.8450 C.3   158  SER158      0.2020
    160  C        -21.2010   11.0150  -11.3650 C.2   158  SER158      0.2618
    161  O        -20.8480   11.1260  -10.1940 O.2   158  SER158     -0.2717
    162  CB       -23.3190   10.1730  -12.3330 C.3   158  SER158      0.2103
    163  OG       -23.9540   11.0240  -11.3900 O.3   158  SER158     -0.2182
    164  N        -21.0050   11.9430  -12.2930 N.am  159  ASP159     -0.1973
    165  CA       -20.4730   13.2830  -12.0170 C.3   159  ASP159      0.1709
    166  C        -19.0380   13.2670  -11.4780 C.2   159  ASP159      0.2293
    167  O        -18.7880   13.5700  -10.3050 O.2   159  ASP159     -0.2864
    168  CB       -21.3730   14.0680  -11.0670 C.3   159  ASP159      0.1436
    169  CG       -20.9040   15.4770  -10.9000 C.2   159  ASP159      0.3671
    170  OD1      -19.9600   15.8830  -11.6520 O.co2 159  ASP159     -0.2456
    171  OD2      -21.4490   16.1930  -10.0280 O.co2 159  ASP159     -0.2456
    172  N        -16.7270   15.2660  -12.6090 N.3   161  GLY161     -0.1225
    173  CA       -16.1410   16.5740  -12.9780 C.3   161  GLY161      0.1811
    174  C        -15.1180   17.1450  -12.0020 C.2   161  GLY161      0.2280
    175  O        -14.2030   17.8760  -12.4230 O.2   161  GLY161     -0.2866
@<TRIPOS>BOND
     1    80    81    1
     2    53    52    2
     3    50    51    1
     4    52    51    1
     5    83    82    2
     6    81    82    1
     7    81    84    1
     8    82    88   am
     9    51    54    1
    10    58    57    2
    11    55    56    1
    12    88    89    1
    13    57    56    1
    14    89    90    1
    15    89    92    1
    16   101   102    1
    17   101    98    1
    18    84    85    1
    19   104   102   ar
    20   104   106   ar
    21    97    90   am
    22    97    98    1
    23    56    59    1
    24   102   103   ar
    25    90    91    2
    26    92    93    1
    27   106   107   ar
    28    98    99    1
    29    67    66    2
    30    85    86    1
    31    45    46    2
    32    45    44    1
    33    93    94    1
    34   103   105   ar
    35    66    65    1
    36    59    60    1
    37   107   105   ar
    38   100    99    2
    39     7     5    1
    40    87    86    1
    41    44    43    1
    42    44    47    1
    43    99   108   am
    44     1     2    1
    45    94    96   ar
    46    94    95   ar
    47    68    65    1
    48    68    69    1
    49    48    47    1
    50    60    61    1
    51    65    64    1
    52     6     8    1
    53     6     5    1
    54     5     2    1
    55    47    49    1
    56     2     3    1
    57   108   109    1
    58    61    62    1
    59    69    70    1
    60    71    70   ar
    61    75    76    2
    62    75    74    1
    63    78    77    1
    64    40    41    1
    65    40    39    1
    66    41    42    2
    67    70    72   ar
    68   109   110    1
    69   109   112    1
    70    35    34    2
    71   115   113    1
    72    12    11    2
    73     9     3   am
    74     9    10    1
    75     3     4    2
    76   110   111    2
    77    62    63    1
    78    74    77    1
    79    74    73    1
    80    77    79    1
    81    39    34   am
    82    34    33    1
    83    11    10    1
    84    11    13   am
    85   112   113    1
    86   113   114    1
    87    37    36    1
    88    18    19    1
    89    18    17    1
    90    20    19   ar
    91    36    33    1
    92    36    38    1
    93    13    14    1
    94    33    32    1
    95    19    21   ar
    96    14    17    1
    97    14    15    1
    98   156   155    1
    99    22    15   am
   100    22    23    1
   101   173   172    1
   102   173   174    1
   103    15    16    2
   104    32    28   am
   105   116   117    1
   106   175   174    2
   107    23    24    1
   108    25    24    2
   109   162   159    1
   110   162   163    1
   111   164   165    1
   112   164   160   am
   113   117   118    1
   114   165   166    1
   115   165   168    1
   116    24    26   am
   117   155   154    1
   118   155   157    1
   119   154   151    1
   120    28    29    2
   121    28    27    1
   122   159   160    1
   123   159   158    1
   124   170   169   ar
   125   166   167    2
   126   160   161    2
   127    26    27    1
   128   168   169    1
   129   118   119    2
   130   118   120   am
   131   169   171   ar
   132    27    30    1
   133   152   151    1
   134   152   153    2
   135   151   150    1
   136   120   121    1
   137    30    31    1
   138   121   124    1
   139   121   122    1
   140   145   144    2
   141   122   123    2
   142   144   143    1
   143   132   130   ar
   144   143   146    1
   145   143   142    1
   146   146   147    1
   147   129   130    1
   148   129   126    1
   149   130   131   ar
   150   149   147   ar
   151   141   140    1
   152   128   127    2
   153   140   139    1
   154   147   148   ar
   155   125   126    1
   156   126   127    1
   157   136   135    2
   158   138   139    1
   159   138   137    1
   160   135   134    1
   161   133   134    1
   162   137   134    1
