@<TRIPOS>MOLECULE
tmp/4jdrB01.pdb
 92 90 0 0 0
SMALL
GASTEIGER

@<TRIPOS>ATOM
      1  N         74.2970    1.3020   74.1850 N.3   183  GLY183     -0.1210
      2  CA        73.8050    0.1050   73.5380 C.3   183  GLY183      0.1956
      3  C         72.3120   -0.0860   73.7910 C.2   183  GLY183      0.2612
      4  O         71.6600    0.7280   74.4620 O.2   183  GLY183     -0.2717
      5  N         71.7640   -1.1660   73.2480 N.am  184  ILE184     -0.1965
      6  CA        70.3460   -1.4130   73.3240 C.3   184  ILE184      0.1727
      7  C         69.8520   -1.5710   74.7710 C.2   184  ILE184      0.2616
      8  O         68.9600   -0.8350   75.2320 O.2   184  ILE184     -0.2715
      9  CB        69.9860   -2.6210   72.4910 C.3   184  ILE184      0.0290
     10  CG1       69.9360   -2.2180   71.0180 C.3   184  ILE184      0.0022
     11  CG2       68.6510   -3.1770   72.9300 C.3   184  ILE184      0.0023
     12  CD1       69.8350   -3.3890   70.0840 C.3   184  ILE184      0.0001
     13  N         70.4310   -2.5210   75.4880 N.am  185  ILE185     -0.1963
     14  CA        70.0090   -2.7630   76.8540 C.3   185  ILE185      0.1727
     15  C         69.9660   -1.4850   77.6840 C.2   185  ILE185      0.2616
     16  O         69.0080   -1.2430   78.4140 O.2   185  ILE185     -0.2715
     17  CB        70.9020   -3.8000   77.5370 C.3   185  ILE185      0.0290
     18  CG1       70.7320   -5.1600   76.8600 C.3   185  ILE185      0.0022
     19  CG2       70.5740   -3.8820   79.0120 C.3   185  ILE185      0.0023
     20  CD1       71.6280   -6.2850   77.4330 C.3   185  ILE185      0.0001
     21  N         71.0070   -0.6670   77.5590 N.am  186  GLY186     -0.1955
     22  CA        71.1370    0.5520   78.3340 C.3   186  GLY186      0.1869
     23  C         70.1060    1.5970   77.9470 C.2   186  GLY186      0.2309
     24  O         69.4310    2.1760   78.7900 O.2   186  GLY186     -0.2863
     25  N         73.7040    2.8790   69.7540 N.3   210  ILE210     -0.1231
     26  CA        73.4730    1.7480   68.8620 C.3   210  ILE210      0.1678
     27  C         74.4730    1.8420   67.7090 C.2   210  ILE210      0.2434
     28  O         74.0980    2.1130   66.5610 O.2   210  ILE210     -0.2733
     29  CB        72.0480    1.7400   68.2890 C.3   210  ILE210      0.0265
     30  CG1       71.0350    2.1720   69.3360 C.3   210  ILE210      0.0019
     31  CG2       71.6710    0.3550   67.7750 C.3   210  ILE210      0.0020
     32  CD1       69.6150    2.1560   68.8040 C.3   210  ILE210      0.0001
     33  N         75.7610    1.6350   68.0220 N.am  211  PRO211     -0.2718
     34  CA        76.8520    1.7090   67.0390 C.3   211  PRO211      0.1535
     35  C         76.5870    0.9390   65.7330 C.2   211  PRO211      0.2598
     36  O         76.8920    1.4540   64.6570 O.2   211  PRO211     -0.2715
     37  CB        78.0240    1.0760   67.7870 C.3   211  PRO211      0.0310
     38  CG        77.7320    1.3340   69.2320 C.3   211  PRO211      0.0237
     39  CD        76.2460    1.2480   69.3640 C.3   211  PRO211      0.0939
     40  N         76.0170   -0.2620   65.8240 N.am  212  ALA212     -0.1978
     41  CA        75.8210   -1.1020   64.6400 C.3   212  ALA212      0.1597
     42  C         74.8350   -0.5630   63.5870 C.2   212  ALA212      0.2287
     43  O         74.9750   -0.8680   62.3970 O.2   212  ALA212     -0.2864
     44  CB        75.4370   -2.5060   65.0570 C.3   212  ALA212      0.0319
     45  N         76.0450   -0.9850   81.5140 N.3   269  ALA269     -0.1231
     46  CA        75.5060   -1.7610   80.4000 C.3   269  ALA269      0.1694
     47  C         76.4680   -1.6940   79.2500 C.2   269  ALA269      0.2592
     48  O         76.1590   -1.1270   78.1850 O.2   269  ALA269     -0.2718
     49  CB        74.1540   -1.2220   79.9570 C.3   269  ALA269      0.0304
     50  N         77.6330   -2.2890   79.4800 N.am  270  ILE270     -0.1966
     51  CA        78.7540   -2.2110   78.5560 C.3   270  ILE270      0.1727
     52  C         78.6590   -3.3410   77.5420 C.2   270  ILE270      0.2617
     53  O         79.0300   -3.1720   76.3830 O.2   270  ILE270     -0.2715
     54  CB        80.1030   -2.3330   79.3180 C.3   270  ILE270      0.0290
     55  CG1       80.3110   -1.1110   80.2060 C.3   270  ILE270      0.0022
     56  CG2       81.2560   -2.4530   78.3590 C.3   270  ILE270      0.0023
     57  CD1       80.0490    0.1730   79.4900 C.3   270  ILE270      0.0001
     58  N         78.1530   -4.4930   77.9770 N.am  271  GLY271     -0.1940
     59  CA        78.0500   -5.6350   77.0900 C.3   271  GLY271      0.2014
     60  C         78.0240   -6.9280   77.8730 C.2   271  GLY271      0.2638
     61  O         77.9860   -6.9260   79.1110 O.2   271  GLY271     -0.2714
     62  N         78.0560   -8.0470   77.1580 N.am  272  ARG272     -0.1977
     63  CA        78.0190   -9.3390   77.8230 C.3   272  ARG272      0.1597
     64  C         79.1170  -10.2320   77.2700 C.2   272  ARG272      0.2287
     65  O         79.5240  -10.0610   76.1190 O.2   272  ARG272     -0.2864
     66  CB        76.6470   -9.9910   77.6450 C.3   272  ARG272      0.0334
     67  CG        75.4780   -9.1200   78.1090 C.3   272  ARG272      0.0492
     68  CD        74.1260   -9.7500   77.8350 C.3   272  ARG272      0.2205
     69  NE        73.9670  -11.0690   78.4610 N.pl3 272  ARG272     -0.0865
     70  CZ        73.6280  -11.2540   79.7340 C.cat 272  ARG272      0.5346
     71  NH1       73.4200  -10.2080   80.5190 N.pl3 272  ARG272      0.1354
     72  NH2       73.4940  -12.4770   80.2260 N.pl3 272  ARG272      0.1354
     73  N         67.5650   -7.3640   64.3330 N.3   348  SER348     -0.1217
     74  CA        67.8930   -6.7450   65.6180 C.3   348  SER348      0.1889
     75  C         66.8800   -5.6310   65.8890 C.2   348  SER348      0.2288
     76  O         66.5130   -4.8750   64.9830 O.2   348  SER348     -0.2866
     77  CB        69.3010   -6.1230   65.6010 C.3   348  SER348      0.2089
     78  OG        70.3210   -7.0560   65.2680 O.3   348  SER348     -0.2183
     79  N         66.3550   -3.2840   62.5490 N.3   358  TRP358     -0.1241
     80  CA        67.0430   -3.4860   61.2850 C.3   358  TRP358      0.1605
     81  C         67.4600   -4.9440   61.0770 C.2   358  TRP358      0.2264
     82  O         67.6330   -5.7130   62.0360 O.2   358  TRP358     -0.2867
     83  CB        68.2430   -2.5320   61.1610 C.3   358  TRP358      0.0550
     84  CG        69.4250   -2.9490   61.9610 C.ar  358  TRP358      0.0003
     85  CD1       70.5140   -3.6650   61.5230 C.ar  358  TRP358      0.0946
     86  CD2       69.6470   -2.6890   63.3450 C.ar  358  TRP358      0.0152
     87  NE1       71.3920   -3.8620   62.5580 N.ar  358  TRP358     -0.2442
     88  CE2       70.8880   -3.2770   63.6900 C.ar  358  TRP358      0.0810
     89  CE3       68.9190   -2.0190   64.3300 C.ar  358  TRP358      0.0012
     90  CZ2       71.4180   -3.2150   64.9790 C.ar  358  TRP358      0.0191
     91  CZ3       69.4380   -1.9620   65.6140 C.ar  358  TRP358      0.0001
     92  CH2       70.6860   -2.5550   65.9250 C.ar  358  TRP358      0.0015
@<TRIPOS>BOND
     1    81    80    1
     2    81    82    2
     3    83    80    1
     4    83    84    1
     5    80    79    1
     6    85    84   ar
     7    85    87   ar
     8    84    86   ar
     9    43    42    2
    10    87    88   ar
    11    86    88   ar
    12    86    89   ar
    13    42    41    1
    14    88    90   ar
    15    89    91   ar
    16    73    74    1
    17    41    44    1
    18    41    40    1
    19    36    35    2
    20    90    92   ar
    21    76    75    2
    22    78    77    1
    23    77    74    1
    24    91    92   ar
    25    74    75    1
    26    35    40   am
    27    35    34    1
    28    28    27    2
    29    34    37    1
    30    34    33    1
    31    27    33   am
    32    27    26    1
    33    31    29    1
    34    37    38    1
    35    33    39    1
    36    29    26    1
    37    29    30    1
    38    32    30    1
    39    26    25    1
    40    38    39    1
    41    12    10    1
    42    10     9    1
    43     9    11    1
    44     9     6    1
    45     5     6    1
    46     5     3   am
    47     6     7    1
    48     2     3    1
    49     2     1    1
    50     3     4    2
    51     7     8    2
    52     7    13   am
    53    13    14    1
    54    65    64    2
    55    53    52    2
    56    14    17    1
    57    14    15    1
    58    18    20    1
    59    18    17    1
    60    59    60    1
    61    59    58    1
    62    62    63    1
    63    62    60   am
    64    64    63    1
    65    17    19    1
    66    52    58   am
    67    52    51    1
    68    21    15   am
    69    21    22    1
    70    66    63    1
    71    66    67    1
    72    15    16    2
    73    68    67    1
    74    68    69    1
    75    60    61    2
    76    23    22    1
    77    23    24    2
    78    48    47    2
    79    56    54    1
    80    69    70    2
    81    51    54    1
    82    51    50    1
    83    47    50   am
    84    47    46    1
    85    54    55    1
    86    57    55    1
    87    70    72    1
    88    70    71    1
    89    49    46    1
    90    46    45    1
