@<TRIPOS>MOLECULE
tmp/4jdrA01.pdb
 84 83 0 0 0
SMALL
GASTEIGER

@<TRIPOS>ATOM
      1  N         29.6410   -4.2830   60.6880 N.3   183  GLY183     -0.1210
      2  CA        30.7580   -4.1900   59.7660 C.3   183  GLY183      0.1956
      3  C         31.9090   -3.3870   60.3570 C.2   183  GLY183      0.2611
      4  O         31.8690   -2.9370   61.5100 O.2   183  GLY183     -0.2717
      5  N         32.9500   -3.1950   59.5620 N.am  184  ILE184     -0.1979
      6  CA        34.1680   -2.5860   60.0670 C.3   184  ILE184      0.1595
      7  C         33.9790   -1.1360   60.5180 C.2   184  ILE184      0.2287
      8  O         34.3010   -0.7780   61.6590 O.2   184  ILE184     -0.2864
      9  CB        35.2770   -2.6730   59.0180 C.3   184  ILE184      0.0276
     10  CG1       35.9020   -4.0640   59.0540 C.3   184  ILE184      0.0022
     11  CG2       36.3560   -1.6610   59.2800 C.3   184  ILE184      0.0022
     12  CD1       36.6610   -4.3890   57.8080 C.3   184  ILE184      0.0001
     13  N         31.7060   -8.4930   61.2780 N.3   210  ILE210     -0.1231
     14  CA        32.6830   -8.6740   60.2110 C.3   210  ILE210      0.1678
     15  C         32.4040   -9.9890   59.5120 C.2   210  ILE210      0.2434
     16  O         33.1860  -10.9190   59.5960 O.2   210  ILE210     -0.2733
     17  CB        34.1460   -8.7150   60.7420 C.3   210  ILE210      0.0265
     18  CG1       34.3600   -7.6970   61.8500 C.3   210  ILE210      0.0019
     19  CG2       35.1520   -8.4750   59.6230 C.3   210  ILE210      0.0020
     20  CD1       35.7710   -7.7130   62.3830 C.3   210  ILE210      0.0001
     21  N         31.2790  -10.0650   58.8140 N.am  211  PRO211     -0.2718
     22  CA        30.8320  -11.2920   58.1540 C.3   211  PRO211      0.1535
     23  C         31.9210  -12.0160   57.3400 C.2   211  PRO211      0.2598
     24  O         31.9780  -13.2410   57.3530 O.2   211  PRO211     -0.2715
     25  CB        29.7310  -10.7800   57.2230 C.3   211  PRO211      0.0310
     26  CG        29.2020   -9.5990   57.9100 C.3   211  PRO211      0.0237
     27  CD        30.3760   -8.9380   58.5510 C.3   211  PRO211      0.0939
     28  N         32.7620  -11.2670   56.6420 N.am  212  ALA212     -0.1978
     29  CA        33.7220  -11.8590   55.7070 C.3   212  ALA212      0.1597
     30  C         34.8710  -12.6440   56.3580 C.2   212  ALA212      0.2287
     31  O         35.4280  -13.5670   55.7590 O.2   212  ALA212     -0.2864
     32  CB        34.2800  -10.7940   54.7760 C.3   212  ALA212      0.0319
     33  N         33.7980   -4.2400   44.7300 N.3   316  GLN316     -0.1231
     34  CA        34.4660   -4.6840   45.9520 C.3   316  GLN316      0.1683
     35  C         35.8970   -5.1350   45.6720 C.2   316  GLN316      0.2434
     36  O         36.2180   -5.5030   44.5470 O.2   316  GLN316     -0.2733
     37  CB        33.6870   -5.8320   46.5700 C.3   316  GLN316      0.0380
     38  CG        32.2450   -5.4910   46.8690 C.3   316  GLN316      0.0905
     39  CD        32.1150   -4.3190   47.8210 C.2   316  GLN316      0.2608
     40  OE1       33.0630   -3.9770   48.5300 O.2   316  GLN316     -0.2717
     41  NE2       30.9350   -3.6960   47.8440 N.am  316  GLN316     -0.0878
     42  N         36.7770   -5.0550   46.6860 N.am  317  PRO317     -0.2718
     43  CA        36.4940   -4.4130   47.9710 C.3   317  PRO317      0.1535
     44  C         36.6380   -2.8990   47.8260 C.2   317  PRO317      0.2598
     45  O         37.4900   -2.4270   47.0750 O.2   317  PRO317     -0.2715
     46  CB        37.6190   -4.9350   48.8890 C.3   317  PRO317      0.0310
     47  CG        38.4870   -5.8240   48.0520 C.3   317  PRO317      0.0237
     48  CD        38.1700   -5.5280   46.6220 C.3   317  PRO317      0.0939
     49  N         35.8100   -2.1390   48.5290 N.am  318  MET318     -0.1964
     50  CA        35.9350   -0.6970   48.4780 C.3   318  MET318      0.1736
     51  C         36.9960   -0.2870   49.4740 C.2   318  MET318      0.2616
     52  O         36.6850    0.1780   50.5640 O.2   318  MET318     -0.2715
     53  CB        34.6120   -0.0240   48.7840 C.3   318  MET318      0.0427
     54  CG        33.5100   -0.4150   47.8300 C.3   318  MET318      0.0599
     55  SD        32.1050    0.7080   47.9160 S.3   318  MET318     -0.1393
     56  CE        31.1960    0.1690   46.4660 C.3   318  MET318      0.0692
     57  N         38.2540   -0.4930   49.1040 N.am  319  LEU319     -0.1977
     58  CA        39.3620   -0.1400   49.9800 C.3   319  LEU319      0.1596
     59  C         40.2970    0.8280   49.3000 C.2   319  LEU319      0.2287
     60  O         40.3740    0.8650   48.0770 O.2   319  LEU319     -0.2864
     61  CB        40.1100   -1.3830   50.4180 C.3   319  LEU319      0.0297
     62  CG        39.2470   -2.2570   51.3160 C.3   319  LEU319      0.0022
     63  CD1       39.9840   -3.5360   51.6500 C.3   319  LEU319      0.0001
     64  CD2       38.8720   -1.4820   52.5750 C.3   319  LEU319      0.0001
     65  N         42.6480   -6.7240   54.2360 N.3   348  SER348     -0.1217
     66  CA        41.5440   -6.0320   54.8670 C.3   348  SER348      0.1889
     67  C         41.8770   -5.9770   56.3360 C.2   348  SER348      0.2288
     68  O         42.3300   -6.9720   56.9110 O.2   348  SER348     -0.2866
     69  CB        40.2320   -6.8010   54.7060 C.3   348  SER348      0.2089
     70  OG        39.9400   -7.0740   53.3450 O.3   348  SER348     -0.2183
     71  N         43.1830   -9.6570   57.8070 N.3   358  TRP358     -0.1241
     72  CA        43.2670  -10.8580   57.0080 C.3   358  TRP358      0.1605
     73  C         43.5190  -10.5410   55.5440 C.2   358  TRP358      0.2264
     74  O         43.1990   -9.4580   55.0520 O.2   358  TRP358     -0.2867
     75  CB        42.0370  -11.7560   57.1900 C.3   358  TRP358      0.0550
     76  CG        40.8150  -11.2720   56.4730 C.ar  358  TRP358      0.0003
     77  CD1       40.3590  -11.6850   55.2500 C.ar  358  TRP358      0.0946
     78  CD2       39.8900  -10.2810   56.9330 C.ar  358  TRP358      0.0152
     79  NE1       39.2060  -11.0150   54.9250 N.ar  358  TRP358     -0.2442
     80  CE2       38.8990  -10.1440   55.9380 C.ar  358  TRP358      0.0810
     81  CE3       39.7960   -9.5070   58.0890 C.ar  358  TRP358      0.0012
     82  CZ2       37.8340   -9.2620   56.0680 C.ar  358  TRP358      0.0191
     83  CZ3       38.7460   -8.6220   58.2130 C.ar  358  TRP358      0.0001
     84  CH2       37.7720   -8.5080   57.2100 C.ar  358  TRP358      0.0015
@<TRIPOS>BOND
     1    36    35    2
     2    33    34    1
     3    35    34    1
     4    35    42   am
     5    34    37    1
     6    56    55    1
     7    37    38    1
     8    48    42    1
     9    48    47    1
    10    42    43    1
    11    38    39    1
    12    45    44    2
    13    39    41   am
    14    39    40    2
    15    44    43    1
    16    44    49   am
    17    54    55    1
    18    54    53    1
    19    43    46    1
    20    47    46    1
    21    60    59    2
    22    50    49    1
    23    50    53    1
    24    50    51    1
    25    57    51   am
    26    57    58    1
    27    59    58    1
    28    51    52    2
    29    58    61    1
    30    61    62    1
    31    62    63    1
    32    62    64    1
    33    70    69    1
    34    65    66    1
    35    69    66    1
    36    32    29    1
    37    66    67    1
    38    79    77   ar
    39    79    80   ar
    40    74    73    2
    41    77    76   ar
    42    73    72    1
    43    29    30    1
    44    29    28    1
    45    31    30    2
    46    80    82   ar
    47    80    78   ar
    48    82    84   ar
    49    67    68    2
    50    76    78   ar
    51    76    75    1
    52    28    23   am
    53    78    81   ar
    54    72    75    1
    55    72    71    1
    56    84    83   ar
    57    25    26    1
    58    25    22    1
    59    23    24    2
    60    23    22    1
    61    12    10    1
    62    26    27    1
    63    81    83   ar
    64    22    21    1
    65    27    21    1
    66    21    15   am
    67     9    10    1
    68     9    11    1
    69     9     6    1
    70    15    16    2
    71    15    14    1
    72     5     6    1
    73     5     3   am
    74    19    17    1
    75     2     3    1
    76     2     1    1
    77     6     7    1
    78    14    17    1
    79    14    13    1
    80     3     4    2
    81     7     8    2
    82    17    18    1
    83    18    20    1
