@<TRIPOS>MOLECULE
tmp/4jdrA02.pdb
 83 80 0 0 0
SMALL
GASTEIGER

@<TRIPOS>ATOM
      1  N         24.1770    0.5210   63.7650 N.3   180  MET180     -0.1230
      2  CA        23.4730   -0.3500   62.8440 C.3   180  MET180      0.1702
      3  C         24.4420   -0.9110   61.8180 C.2   180  MET180      0.2592
      4  O         24.7880   -0.2330   60.8490 O.2   180  MET180     -0.2718
      5  CB        22.3690    0.4130   62.1130 C.3   180  MET180      0.0401
      6  CG        21.0200    0.3290   62.7730 C.3   180  MET180      0.0596
      7  SD        19.8050    1.4090   61.9640 S.3   180  MET180     -0.1393
      8  CE        19.3670    0.4220   60.5000 C.3   180  MET180      0.0692
      9  N         24.8620   -2.1550   62.0120 N.am  181  GLY181     -0.1957
     10  CA        25.8390   -2.7600   61.1300 C.3   181  GLY181      0.1869
     11  C         27.1190   -3.1460   61.8420 C.2   181  GLY181      0.2309
     12  O         27.9370   -2.2760   62.1690 O.2   181  GLY181     -0.2863
     13  N         29.6410   -4.2830   60.6880 N.3   183  GLY183     -0.1210
     14  CA        30.7580   -4.1900   59.7660 C.3   183  GLY183      0.1956
     15  C         31.9090   -3.3870   60.3570 C.2   183  GLY183      0.2611
     16  O         31.8690   -2.9370   61.5100 O.2   183  GLY183     -0.2717
     17  N         32.9500   -3.1950   59.5620 N.am  184  ILE184     -0.1979
     18  CA        34.1680   -2.5860   60.0670 C.3   184  ILE184      0.1595
     19  C         33.9790   -1.1360   60.5180 C.2   184  ILE184      0.2287
     20  O         34.3010   -0.7780   61.6590 O.2   184  ILE184     -0.2864
     21  CB        35.2770   -2.6730   59.0180 C.3   184  ILE184      0.0276
     22  CG1       35.9020   -4.0640   59.0540 C.3   184  ILE184      0.0022
     23  CG2       36.3560   -1.6610   59.2800 C.3   184  ILE184      0.0022
     24  CD1       36.6610   -4.3890   57.8080 C.3   184  ILE184      0.0001
     25  N         23.6670   -3.6160   66.3200 N.3   203  VAL203     -0.1231
     26  CA        22.6440   -4.4870   65.7660 C.3   203  VAL203      0.1692
     27  C         23.0600   -4.9490   64.3780 C.2   203  VAL203      0.2592
     28  O         23.3200   -4.1450   63.4950 O.2   203  VAL203     -0.2718
     29  CB        21.1880   -3.8530   65.7980 C.3   203  VAL203      0.0266
     30  CG1       21.0670   -2.6580   64.8700 C.3   203  VAL203      0.0020
     31  CG2       20.1280   -4.8820   65.4600 C.3   203  VAL203      0.0020
     32  N         23.1520   -6.2680   64.2110 N.am  204  GLU204     -0.1966
     33  CA        23.6590   -6.8640   62.9830 C.3   204  GLU204      0.1733
     34  C         22.7280   -7.9800   62.5410 C.2   204  GLU204      0.2616
     35  O         22.3720   -8.8280   63.3420 O.2   204  GLU204     -0.2715
     36  CB        25.0630   -7.4240   63.2200 C.3   204  GLU204      0.0429
     37  CG        25.6260   -8.1690   62.0220 C.3   204  GLU204      0.1163
     38  CD        25.5700   -7.3500   60.7440 C.2   204  GLU204      0.3649
     39  OE1       26.0180   -6.1780   60.7460 O.co2 204  GLU204     -0.2457
     40  OE2       25.0840   -7.8630   59.7130 O.co2 204  GLU204     -0.2457
     41  N         22.3530   -7.9840   61.2670 N.am  205  MET205     -0.1963
     42  CA        21.4580   -9.0050   60.7410 C.3   205  MET205      0.1736
     43  C         22.1250  -10.3860   60.6840 C.2   205  MET205      0.2616
     44  O         21.5540  -11.3850   61.1420 O.2   205  MET205     -0.2715
     45  CB        20.8880   -8.5990   59.3750 C.3   205  MET205      0.0427
     46  CG        19.8320   -7.4640   59.4480 C.3   205  MET205      0.0599
     47  SD        18.7730   -7.3070   57.9770 S.3   205  MET205     -0.1393
     48  CE        19.8790   -6.5370   56.7960 C.3   205  MET205      0.0692
     49  N         23.3370  -10.4390   60.1440 N.am  206  PHE206     -0.1974
     50  CA        24.1530  -11.6500   60.1910 C.3   206  PHE206      0.1639
     51  C         24.4030  -12.1490   61.6030 C.2   206  PHE206      0.2290
     52  O         24.1260  -11.4650   62.5880 O.2   206  PHE206     -0.2864
     53  CB        25.4990  -11.4260   59.5100 C.3   206  PHE206      0.0560
     54  CG        25.3900  -11.0920   58.0550 C.ar  206  PHE206     -0.0200
     55  CD1       25.5920  -12.0670   57.0910 C.ar  206  PHE206     -0.0042
     56  CD2       25.0890   -9.8000   57.6430 C.ar  206  PHE206     -0.0042
     57  CE1       25.4960  -11.7630   55.7440 C.ar  206  PHE206     -0.0003
     58  CE2       24.9930   -9.4900   56.2970 C.ar  206  PHE206     -0.0003
     59  CZ        25.1940  -10.4760   55.3470 C.ar  206  PHE206     -0.0000
     60  N         31.2790  -10.0650   58.8140 N.3   211  PRO211     -0.2116
     61  CA        30.8320  -11.2920   58.1540 C.3   211  PRO211      0.1372
     62  C         31.9210  -12.0160   57.3400 C.2   211  PRO211      0.2244
     63  O         31.9780  -13.2410   57.3530 O.2   211  PRO211     -0.2868
     64  CB        29.7310  -10.7800   57.2230 C.3   211  PRO211      0.0268
     65  CG        29.2020   -9.5990   57.9100 C.3   211  PRO211      0.0207
     66  CD        30.3760   -8.9380   58.5510 C.3   211  PRO211      0.0892
     67  N         25.4930    2.3620   59.7030 N.3   269  ALA269     -0.1231
     68  CA        26.7160    1.9120   59.0190 C.3   269  ALA269      0.1694
     69  C         26.4360    0.5830   58.3390 C.2   269  ALA269      0.2592
     70  O         27.0080   -0.4560   58.7010 O.2   269  ALA269     -0.2718
     71  CB        27.8470    1.7630   60.0050 C.3   269  ALA269      0.0304
     72  N         25.5470    0.6490   57.3550 N.am  270  ILE270     -0.1966
     73  CA        25.0370   -0.5070   56.6550 C.3   270  ILE270      0.1727
     74  C         25.9280   -0.8470   55.4860 C.2   270  ILE270      0.2616
     75  O         26.0050   -1.9940   55.0820 O.2   270  ILE270     -0.2715
     76  CB        23.6180   -0.2400   56.1090 C.3   270  ILE270      0.0290
     77  CG1       22.6280   -0.0420   57.2460 C.3   270  ILE270      0.0022
     78  CG2       23.1510   -1.3900   55.2570 C.3   270  ILE270      0.0023
     79  CD1       22.7560   -1.0760   58.3150 C.3   270  ILE270      0.0001
     80  N         26.6040    0.1430   54.9320 N.am  271  GLY271     -0.1955
     81  CA        27.4260   -0.1020   53.7670 C.3   271  GLY271      0.1869
     82  C         27.4940    1.0980   52.8540 C.2   271  GLY271      0.2309
     83  O         26.9910    2.1750   53.1790 O.2   271  GLY271     -0.2863
@<TRIPOS>BOND
     1    82    83    2
     2    82    81    1
     3    81    80    1
     4    80    74   am
     5    75    74    2
     6    78    76    1
     7    59    57   ar
     8    59    58   ar
     9    74    73    1
    10    57    55   ar
    11    76    73    1
    12    76    77    1
    13    58    56   ar
    14    73    72    1
    15    48    47    1
    16    55    54   ar
    17    64    65    1
    18    64    61    1
    19    77    79    1
    20    62    63    2
    21    62    61    1
    22    72    69   am
    23    56    54   ar
    24    24    22    1
    25    65    66    1
    26    47    46    1
    27    54    53    1
    28    61    60    1
    29    69    70    2
    30    69    68    1
    31    66    60    1
    32    21    22    1
    33    21    23    1
    34    21    18    1
    35    68    67    1
    36    68    71    1
    37    45    46    1
    38    45    42    1
    39    53    50    1
    40    17    18    1
    41    17    15   am
    42    40    38   ar
    43    14    15    1
    44    14    13    1
    45    18    19    1
    46    49    50    1
    47    49    43   am
    48    50    51    1
    49    15    16    2
    50     8     7    1
    51    19    20    2
    52    43    42    1
    53    43    44    2
    54    42    41    1
    55    38    39   ar
    56    38    37    1
    57     4     3    2
    58    10    11    1
    59    10     9    1
    60    41    34   am
    61    51    52    2
    62     3     9   am
    63     3     2    1
    64    11    12    2
    65     7     6    1
    66    37    36    1
    67     5     6    1
    68     5     2    1
    69    34    33    1
    70    34    35    2
    71     2     1    1
    72    33    36    1
    73    33    32    1
    74    28    27    2
    75    32    27   am
    76    27    26    1
    77    30    29    1
    78    31    29    1
    79    26    29    1
    80    26    25    1
