@<TRIPOS>MOLECULE
tmp/4jdvD01.pdb
 96 92 0 0 0
SMALL
GASTEIGER

@<TRIPOS>ATOM
      1  N        -24.4360  -10.5880   34.1440 N.3    37  GLN37      -0.1245
      2  CA       -23.6200   -9.6840   33.3420 C.3    37  GLN37       0.1566
      3  C        -22.5750  -10.4990   32.5920 C.2    37  GLN37       0.2260
      4  O        -22.0270  -11.4470   33.1410 O.2    37  GLN37      -0.2867
      5  CB       -22.9300   -8.6930   34.2690 C.3    37  GLN37       0.0367
      6  CG       -22.1270   -7.6050   33.5940 C.3    37  GLN37       0.0905
      7  CD       -21.2380   -6.8930   34.6040 C.2    37  GLN37       0.2608
      8  OE1      -20.2900   -7.4790   35.1250 O.2    37  GLN37      -0.2717
      9  NE2      -21.5600   -5.6440   34.9160 N.am   37  GLN37      -0.0878
     10  N        -19.0360   -9.9180   30.0020 N.3    39  LYS39      -0.1245
     11  CA       -18.1060   -9.1500   29.1820 C.3    39  LYS39       0.1561
     12  C        -17.4440  -10.0750   28.1710 C.2    39  LYS39       0.2260
     13  O        -17.4040  -11.2910   28.3730 O.2    39  LYS39      -0.2867
     14  CB       -17.0780   -8.4640   30.0740 C.3    39  LYS39       0.0271
     15  CG       -17.7430   -7.6710   31.1830 C.3    39  LYS39       0.0035
     16  CD       -16.7680   -6.8290   31.9740 C.3    39  LYS39       0.0206
     17  CE       -17.5040   -6.0570   33.0590 C.3    39  LYS39       0.1093
     18  NZ       -16.5910   -5.2150   33.8810 N.3    39  LYS39      -0.1314
     19  N        -21.7770  -13.5310   34.9860 N.3    45  ARG45      -0.1245
     20  CA       -21.7020  -13.3370   36.4250 C.3    45  ARG45       0.1563
     21  C        -23.1050  -13.0830   36.9700 C.2    45  ARG45       0.2260
     22  O        -23.8300  -12.2540   36.4320 O.2    45  ARG45      -0.2867
     23  CB       -20.8110  -12.1180   36.7430 C.3    45  ARG45       0.0307
     24  CG       -20.6860  -11.8560   38.2170 C.3    45  ARG45       0.0489
     25  CD       -19.7130  -10.7470   38.5430 C.3    45  ARG45       0.2205
     26  NE       -19.1720  -10.9340   39.8890 N.pl3  45  ARG45      -0.0865
     27  CZ       -18.6690   -9.9590   40.6370 C.cat  45  ARG45       0.5346
     28  NH1      -18.6500   -8.7150   40.1760 N.pl3  45  ARG45       0.1354
     29  NH2      -18.1960  -10.2260   41.8490 N.pl3  45  ARG45       0.1354
     30  N        -25.7880  -11.3610   39.0100 N.3    47  LEU47      -0.1245
     31  CA       -25.9590  -10.0660   39.6780 C.3    47  LEU47       0.1561
     32  C        -27.1010  -10.0100   40.6940 C.2    47  LEU47       0.2260
     33  O        -26.9410   -9.4980   41.8030 O.2    47  LEU47      -0.2867
     34  CB       -26.2810   -8.9780   38.6480 C.3    47  LEU47       0.0270
     35  CG       -25.3070   -8.7280   37.5010 C.3    47  LEU47       0.0019
     36  CD1      -25.9650   -7.7920   36.4810 C.3    47  LEU47       0.0001
     37  CD2      -24.0210   -8.1360   38.0290 C.3    47  LEU47       0.0001
     38  N        -21.7440   -8.2540   44.7400 N.3    58  ILE58      -0.1231
     39  CA       -22.2780   -7.3830   43.6960 C.3    58  ILE58       0.1678
     40  C        -22.5320   -5.9830   44.2570 C.2    58  ILE58       0.2434
     41  O        -23.0820   -5.8440   45.3450 O.2    58  ILE58      -0.2733
     42  CB       -23.5580   -7.9890   43.0960 C.3    58  ILE58       0.0265
     43  CG1      -23.2170   -9.3290   42.4290 C.3    58  ILE58       0.0019
     44  CG2      -24.2120   -7.0220   42.1210 C.3    58  ILE58       0.0020
     45  CD1      -22.0900   -9.2230   41.3930 C.3    58  ILE58       0.0001
     46  N        -22.1050   -4.9430   43.5280 N.am   59  PRO59      -0.2718
     47  CA       -22.2550   -3.5680   44.0210 C.3    59  PRO59       0.1535
     48  C        -23.6860   -3.1570   44.3270 C.2    59  PRO59       0.2598
     49  O        -24.6470   -3.5570   43.6510 O.2    59  PRO59      -0.2715
     50  CB       -21.7200   -2.7170   42.8660 C.3    59  PRO59       0.0310
     51  CG       -20.7830   -3.6150   42.1470 C.3    59  PRO59       0.0237
     52  CD       -21.4060   -4.9820   42.2330 C.3    59  PRO59       0.0939
     53  N        -23.8040   -2.3070   45.3400 N.am   60  ALA60      -0.1964
     54  CA       -25.0750   -1.7550   45.7780 C.3    60  ALA60       0.1728
     55  C        -25.8910   -1.0770   44.6770 C.2    60  ALA60       0.2616
     56  O        -27.1140   -0.9980   44.7760 O.2    60  ALA60      -0.2715
     57  CB       -24.8400   -0.7770   46.9290 C.3    60  ALA60       0.0334
     58  N        -25.2140   -0.5760   43.6450 N.am   61  ARG61      -0.1963
     59  CA       -25.8960    0.1580   42.5730 C.3    61  ARG61       0.1729
     60  C        -26.8240   -0.7150   41.7280 C.2    61  ARG61       0.2616
     61  O        -27.6900   -0.1930   41.0270 O.2    61  ARG61      -0.2715
     62  CB       -24.8950    0.9220   41.6920 C.3    61  ARG61       0.0348
     63  CG       -23.9080    0.0470   40.9370 C.3    61  ARG61       0.0492
     64  CD       -22.9250    0.9100   40.1430 C.3    61  ARG61       0.2205
     65  NE       -21.9260    0.1020   39.4510 N.pl3  61  ARG61      -0.0865
     66  CZ       -20.7960   -0.3490   39.9940 C.cat  61  ARG61       0.5346
     67  NH1      -20.4930   -0.0780   41.2620 N.pl3  61  ARG61       0.1354
     68  NH2      -19.9620   -1.0740   39.2590 N.pl3  61  ARG61       0.1354
     69  N        -26.6540   -2.0350   41.8070 N.am   62  PHE62      -0.1974
     70  CA       -27.5310   -2.9610   41.0900 C.3    62  PHE62       0.1639
     71  C        -28.7330   -3.3250   41.9350 C.2    62  PHE62       0.2290
     72  O        -28.5960   -3.7320   43.0830 O.2    62  PHE62      -0.2864
     73  CB       -26.7860   -4.2540   40.7130 C.3    62  PHE62       0.0560
     74  CG       -25.6930   -4.0530   39.7010 C.ar   62  PHE62      -0.0200
     75  CD1      -24.3960   -3.7670   40.1160 C.ar   62  PHE62      -0.0042
     76  CD2      -25.9650   -4.1190   38.3400 C.ar   62  PHE62      -0.0042
     77  CE1      -23.3850   -3.5650   39.1770 C.ar   62  PHE62      -0.0003
     78  CE2      -24.9610   -3.9200   37.4050 C.ar   62  PHE62      -0.0003
     79  CZ       -23.6660   -3.6460   37.8330 C.ar   62  PHE62      -0.0000
     80  N        -17.0530    0.0350   34.5470 N.3    81  GLU81      -0.1231
     81  CA       -17.0010   -1.4220   34.5110 C.3    81  GLU81       0.1699
     82  C        -18.3710   -2.0500   34.1910 C.2    81  GLU81       0.2592
     83  O        -18.4790   -3.2620   33.9940 O.2    81  GLU81      -0.2718
     84  CB       -16.4560   -1.9590   35.8440 C.3    81  GLU81       0.0402
     85  CG       -17.1880   -1.4340   37.0590 C.3    81  GLU81       0.1161
     86  CD       -16.4840   -0.2480   37.7480 C.2    81  GLU81       0.3649
     87  OE1      -15.9360    0.6580   37.0600 O.co2  81  GLU81      -0.2457
     88  OE2      -16.4850   -0.2290   39.0020 O.co2  81  GLU81      -0.2457
     89  N        -19.4180   -1.2310   34.1380 N.am   82  ASP82      -0.1974
     90  CA       -20.7730   -1.7640   33.9500 C.3    82  ASP82       0.1709
     91  C        -21.1710   -1.9130   32.4820 C.2    82  ASP82       0.2293
     92  O        -22.2480   -2.4290   32.1670 O.2    82  ASP82      -0.2864
     93  CB       -21.8090   -0.8720   34.6430 C.3    82  ASP82       0.1436
     94  CG       -21.5780   -0.7400   36.1420 C.2    82  ASP82       0.3671
     95  OD1      -20.9110   -1.6250   36.7500 O.co2  82  ASP82      -0.2456
     96  OD2      -22.0790    0.2540   36.7260 O.co2  82  ASP82      -0.2456
@<TRIPOS>BOND
     1    12    13    2
     2    12    11    1
     3    11    10    1
     4    11    14    1
     5    14    15    1
     6    15    16    1
     7    16    17    1
     8    92    91    2
     9    91    90    1
    10     3     4    2
    11     3     2    1
    12    17    18    1
    13     2     1    1
    14     2     5    1
    15     6     5    1
    16     6     7    1
    17    90    89    1
    18    90    93    1
    19    83    82    2
    20    89    82   am
    21    82    81    1
    22    81    80    1
    23    81    84    1
    24     7     9   am
    25     7     8    2
    26    93    94    1
    27    19    20    1
    28    84    85    1
    29    94    96   ar
    30    94    95   ar
    31    20    23    1
    32    20    21    1
    33    22    21    2
    34    36    35    1
    35    23    24    1
    36    85    86    1
    37    87    86   ar
    38    78    79   ar
    39    78    76   ar
    40    35    37    1
    41    35    34    1
    42    86    88   ar
    43    79    77   ar
    44    24    25    1
    45    76    74   ar
    46    25    26    1
    47    34    31    1
    48    30    31    1
    49    77    75   ar
    50    68    66    1
    51    65    66    2
    52    65    64    1
    53    31    32    1
    54    74    75   ar
    55    74    73    1
    56    26    27    2
    57    66    67    1
    58    64    63    1
    59    28    27    1
    60    27    29    1
    61    32    33    2
    62    73    70    1
    63    63    62    1
    64    61    60    2
    65    70    69    1
    66    70    71    1
    67    45    43    1
    68    62    59    1
    69    60    69   am
    70    60    59    1
    71    71    72    2
    72    44    42    1
    73    51    52    1
    74    51    50    1
    75    52    46    1
    76    43    42    1
    77    59    58    1
    78    50    47    1
    79    42    39    1
    80    46    47    1
    81    46    40   am
    82    58    55   am
    83    49    48    2
    84    39    40    1
    85    39    38    1
    86    47    48    1
    87    40    41    2
    88    48    53   am
    89    55    56    2
    90    55    54    1
    91    53    54    1
    92    54    57    1
