@<TRIPOS>MOLECULE
tmp/4jdwA00.pdb
 161 151 0 0 0
SMALL
GASTEIGER

@<TRIPOS>ATOM
      1  N         48.9710   79.3770    9.5050 N.3    35  ASN35      -0.1240
      2  CA        48.6430   78.7380   10.7740 C.3    35  ASN35       0.1653
      3  C         48.8720   79.6180   12.0080 C.2    35  ASN35       0.2266
      4  O         48.1780   79.4680   13.0180 O.2    35  ASN35      -0.2867
      5  CB        49.4290   77.4420   10.9560 C.3    35  ASN35       0.1155
      6  CG        48.9770   76.6610   12.1840 C.2    35  ASN35       0.2627
      7  OD1       47.8780   76.1060   12.2020 O.2    35  ASN35      -0.2716
      8  ND2       49.8170   76.6190   13.2170 N.am   35  ASN35      -0.0877
      9  N         48.9920   82.7540   14.6410 N.3    37  TYR37      -0.1241
     10  CA        48.1930   83.8620   15.1380 C.3    37  TYR37       0.1605
     11  C         49.0340   85.1240   15.0820 C.2    37  TYR37       0.2264
     12  O         50.2050   85.0860   15.4320 O.2    37  TYR37      -0.2867
     13  CB        47.7790   83.6010   16.5940 C.3    37  TYR37       0.0534
     14  CG        46.7610   82.4830   16.7720 C.ar   37  TYR37      -0.0201
     15  CD1       45.9030   82.1220   15.7300 C.ar   37  TYR37      -0.0009
     16  CD2       46.6150   81.8180   17.9950 C.ar   37  TYR37      -0.0009
     17  CE1       44.9190   81.1360   15.8970 C.ar   37  TYR37       0.0417
     18  CE2       45.6280   80.8310   18.1730 C.ar   37  TYR37       0.0417
     19  CZ        44.7830   80.5040   17.1180 C.ar   37  TYR37       0.1957
     20  OH        43.7480   79.6080   17.2830 O.3    37  TYR37      -0.2866
     21  N         55.2270   65.5130   17.7390 N.3   104  MET104     -0.1245
     22  CA        53.8900   64.9860   17.5220 C.3   104  MET104      0.1570
     23  C         53.8120   63.7470   16.6420 C.2   104  MET104      0.2261
     24  O         53.5950   63.8490   15.4330 O.2   104  MET104     -0.2867
     25  CB        52.9900   66.0920   16.9470 C.3   104  MET104      0.0387
     26  CG        53.0430   67.4680   17.6520 C.3   104  MET104      0.0595
     27  SD        52.7600   67.5330   19.4820 S.3   104  MET104     -0.1393
     28  CE        53.5490   69.0540   19.8610 C.3   104  MET104      0.0692
     29  N         51.4200   61.7940   16.2340 N.3   106  ARG106     -0.1231
     30  CA        50.0680   61.7640   15.6730 C.3   106  ARG106      0.1694
     31  C         49.9960   62.5030   14.3380 C.2   106  ARG106      0.2592
     32  O         49.1350   62.2360   13.5030 O.2   106  ARG106     -0.2718
     33  CB        49.0890   62.4160   16.6730 C.3   106  ARG106      0.0321
     34  CG        47.5940   62.2100   16.4150 C.3   106  ARG106      0.0489
     35  CD        47.1520   60.7490   16.5680 C.3   106  ARG106      0.2205
     36  NE        47.3210   60.2080   17.9230 N.pl3 106  ARG106     -0.0865
     37  CZ        46.9200   58.9910   18.3130 C.cat 106  ARG106      0.5346
     38  NH1       46.3030   58.1790   17.4620 N.pl3 106  ARG106      0.1354
     39  NH2       47.2300   58.5310   19.5270 N.pl3 106  ARG106      0.1354
     40  N         50.8640   63.4870   14.1790 N.am  107  ASP107     -0.1974
     41  CA        50.8730   64.2960   12.9770 C.3   107  ASP107      0.1709
     42  C         51.3520   63.5380   11.7610 C.2   107  ASP107      0.2293
     43  O         50.8350   63.7610   10.6620 O.2   107  ASP107     -0.2864
     44  CB        51.7680   65.5210   13.1680 C.3   107  ASP107      0.1436
     45  CG        51.1980   66.5190   14.1340 C.2   107  ASP107      0.3671
     46  OD1       50.2520   66.1770   14.8720 O.co2 107  ASP107     -0.2456
     47  OD2       51.7040   67.6560   14.1530 O.co2 107  ASP107     -0.2456
     48  N         46.9890   63.2170   11.4580 N.3   193  ALA193     -0.1245
     49  CA        46.0380   63.6840   12.4760 C.3   193  ALA193      0.1562
     50  C         44.6880   64.2250   12.0200 C.2   193  ALA193      0.2260
     51  O         43.8500   64.5840   12.8710 O.2   193  ALA193     -0.2867
     52  CB        46.7170   64.6890   13.4050 C.3   193  ALA193      0.0290
     53  N         40.6980   77.9560   10.1210 N.3   237  ASN237     -0.1240
     54  CA        42.0860   77.5040   10.1370 C.3   237  ASN237      0.1653
     55  C         42.2260   76.0700   10.6510 C.2   237  ASN237      0.2266
     56  O         42.8270   75.8420   11.6870 O.2   237  ASN237     -0.2867
     57  CB        42.9170   78.4610   10.9940 C.3   237  ASN237      0.1155
     58  CG        44.3550   78.0170   11.1600 C.2   237  ASN237      0.2627
     59  OD1       44.8860   78.0130   12.2620 O.2   237  ASN237     -0.2716
     60  ND2       44.9950   77.6590   10.0710 N.am  237  ASN237     -0.0877
     61  N         43.5630   72.2580   11.0480 N.3   239  MET239     -0.1230
     62  CA        44.8060   71.5120   10.9570 C.3   239  MET239      0.1702
     63  C         44.7120   70.4610   12.0500 C.2   239  MET239      0.2592
     64  O         44.8410   70.7580   13.2450 O.2   239  MET239     -0.2718
     65  CB        46.0460   72.3900   11.1450 C.3   239  MET239      0.0401
     66  CG        47.3530   71.6570   10.7860 C.3   239  MET239      0.0596
     67  SD        48.8580   72.6590   10.7650 S.3   239  MET239     -0.1393
     68  CE        49.2980   72.7380   12.5230 C.3   239  MET239      0.0692
     69  N         44.4780   69.2290   11.6210 N.am  240  HIS240     -0.1976
     70  CA        44.3190   68.0860   12.5210 C.3   240  HIS240      0.1656
     71  C         42.8870   68.1620   13.0610 C.2   240  HIS240      0.2291
     72  O         42.3180   69.2550   13.2090 O.2   240  HIS240     -0.2864
     73  CB        45.3930   68.0720   13.6160 C.3   240  HIS240      0.0771
     74  CG        46.7890   68.1740   13.0770 C.ar  240  HIS240      0.0820
     75  ND1       47.8060   68.8160   13.7490 N.ar  240  HIS240     -0.2267
     76  CD2       47.3240   67.7640   11.8990 C.ar  240  HIS240      0.1154
     77  CE1       48.9040   68.7980   13.0160 C.ar  240  HIS240      0.1986
     78  NE2       48.6340   68.1640   11.8890 N.ar  240  HIS240     -0.2212
     79  N         41.8230   66.1550   15.8630 N.3   242  ASP242     -0.1225
     80  CA        41.8020   65.7450   17.2620 C.3   242  ASP242      0.1805
     81  C         41.6440   66.8050   18.3770 C.2   242  ASP242      0.2597
     82  O         41.7500   66.4790   19.5460 O.2   242  ASP242     -0.2718
     83  CB        42.9600   64.7810   17.5410 C.3   242  ASP242      0.1424
     84  CG        44.3130   65.3450   17.1470 C.2   242  ASP242      0.3668
     85  OD1       44.3900   66.4040   16.4760 O.co2 242  ASP242     -0.2456
     86  OD2       45.3220   64.7100   17.5200 O.co2 242  ASP242     -0.2456
     87  N         41.4110   68.0630   18.0110 N.am  243  ALA243     -0.1979
     88  CA        41.1540   69.1270   18.9790 C.3   243  ALA243      0.1597
     89  C         39.8580   69.7800   18.4800 C.2   243  ALA243      0.2287
     90  O         39.5440   70.9280   18.7960 O.2   243  ALA243     -0.2864
     91  CB        42.2870   70.1390   19.0010 C.3   243  ALA243      0.0319
     92  N         33.8060   74.8770   16.9680 N.3   259  ARG259     -0.1245
     93  CA        33.9620   74.2510   15.6690 C.3   259  ARG259      0.1563
     94  C         32.8940   73.1950   15.4140 C.2   259  ARG259      0.2260
     95  O         33.1700   71.9920   15.3950 O.2   259  ARG259     -0.2867
     96  CB        35.3540   73.6200   15.5980 C.3   259  ARG259      0.0307
     97  CG        36.4610   74.6050   15.8250 C.3   259  ARG259      0.0489
     98  CD        37.7460   73.9010   16.0690 C.3   259  ARG259      0.2205
     99  NE        38.8260   74.8390   16.3510 N.pl3 259  ARG259     -0.0865
    100  CZ        40.0070   74.4910   16.8440 C.cat 259  ARG259      0.5346
    101  NH1       40.2600   73.2230   17.1180 N.pl3 259  ARG259      0.1354
    102  NH2       40.9460   75.4040   17.0190 N.pl3 259  ARG259      0.1354
    103  N         52.0200   77.0980   18.1100 N.3   290  MET290     -0.1230
    104  CA        51.5140   76.3120   17.0040 C.3   290  MET290      0.1702
    105  C         50.0390   75.9480   17.0780 C.2   290  MET290      0.2593
    106  O         49.5370   75.2260   16.2120 O.2   290  MET290     -0.2718
    107  CB        52.3030   74.9940   16.9890 C.3   290  MET290      0.0401
    108  CG        53.7460   75.0650   16.5420 C.3   290  MET290      0.0596
    109  SD        53.7780   75.1000   14.7590 S.3   290  MET290     -0.1393
    110  CE        53.1970   73.4880   14.3490 C.3   290  MET290      0.0692
    111  N         49.3120   76.5160   18.0290 N.am  291  SER291     -0.1938
    112  CA        47.9540   76.0630   18.2170 C.3   291  SER291      0.2055
    113  C         46.9920   77.0290   18.8700 C.2   291  SER291      0.2643
    114  O         47.3270   78.1730   19.1540 O.2   291  SER291     -0.2714
    115  CB        48.0640   74.8500   19.1200 C.3   291  SER291      0.2130
    116  OG        46.9950   73.9740   18.9150 O.3   291  SER291     -0.2179
    117  N         45.7830   76.5320   19.1050 N.am  292  SER292     -0.1949
    118  CA        44.7260   77.2660   19.7820 C.3   292  SER292      0.1924
    119  C         44.7260   76.7750   21.2390 C.2   292  SER292      0.2314
    120  O         45.5500   75.9450   21.6350 O.2   292  SER292     -0.2863
    121  CB        43.3590   76.9790   19.1520 C.3   292  SER292      0.2116
    122  OG        42.7520   75.8040   19.6780 O.3   292  SER292     -0.2180
    123  N         42.2830   75.0410   22.6320 N.3   294  TRP294     -0.1227
    124  CA        41.5680   73.7690   22.7270 C.3   294  TRP294      0.1737
    125  C         42.3160   72.4670   22.9110 C.2   294  TRP294      0.2595
    126  O         41.7280   71.3960   22.8040 O.2   294  TRP294     -0.2718
    127  CB        40.5500   73.6730   21.6010 C.3   294  TRP294      0.0564
    128  CG        39.3870   74.5950   21.8490 C.ar  294  TRP294      0.0003
    129  CD1       39.1870   75.8230   21.2980 C.ar  294  TRP294      0.0946
    130  CD2       38.2820   74.3700   22.7490 C.ar  294  TRP294      0.0152
    131  NE1       38.0260   76.3790   21.8020 N.ar  294  TRP294     -0.2442
    132  CE2       37.4540   75.5070   22.6890 C.ar  294  TRP294      0.0810
    133  CE3       37.9140   73.3190   23.5960 C.ar  294  TRP294      0.0012
    134  CZ2       36.2800   75.6260   23.4420 C.ar  294  TRP294      0.0191
    135  CZ3       36.7440   73.4380   24.3460 C.ar  294  TRP294      0.0001
    136  CH2       35.9430   74.5870   24.2590 C.ar  294  TRP294      0.0015
    137  N         43.5820   72.5480   23.2870 N.am  295  LEU295     -0.1980
    138  CA        44.3920   71.3660   23.5140 C.3   295  LEU295      0.1596
    139  C         43.8540   70.5700   24.6910 C.2   295  LEU295      0.2287
    140  O         44.1780   69.3830   24.8710 O.2   295  LEU295     -0.2864
    141  CB        45.8420   71.7650   23.7680 C.3   295  LEU295      0.0297
    142  CG        46.5740   72.4410   22.6030 C.3   295  LEU295      0.0022
    143  CD1       47.9820   72.7400   23.0050 C.3   295  LEU295      0.0001
    144  CD2       46.5580   71.5420   21.3730 C.3   295  LEU295      0.0001
    145  N         42.0800   67.5200   23.6430 N.3   298  ASN298     -0.1240
    146  CA        42.9620   66.6460   22.8950 C.3   298  ASN298      0.1653
    147  C         43.4230   65.5490   23.8540 C.2   298  ASN298      0.2266
    148  O         44.6220   65.3190   24.0260 O.2   298  ASN298     -0.2867
    149  CB        44.1620   67.4590   22.3840 C.3   298  ASN298      0.1155
    150  CG        44.9420   66.7470   21.2750 C.2   298  ASN298      0.2627
    151  OD1       44.3910   65.9810   20.4740 O.2   298  ASN298     -0.2716
    152  ND2       46.2300   67.0240   21.2160 N.am  298  ASN298     -0.0877
    153  N         52.4630   72.6470   20.3890 N.3   339  GLY339     -0.1225
    154  CA        51.2970   72.3770   19.5660 C.3   339  GLY339      0.1811
    155  C         50.3510   71.2370   19.8560 C.2   339  GLY339      0.2280
    156  O         49.3910   71.0530   19.1160 O.2   339  GLY339     -0.2866
    157  N         47.9720   64.3350   20.5950 N.3   344  ALA344     -0.1245
    158  CA        48.9600   64.7740   19.6400 C.3   344  ALA344      0.1562
    159  C         50.3810   64.2920   19.9370 C.2   344  ALA344      0.2260
    160  O         51.1350   64.0120   19.0150 O.2   344  ALA344     -0.2867
    161  CB        48.9410   66.2640   19.5380 C.3   344  ALA344      0.0290
@<TRIPOS>BOND
     1     1     2    1
     2    60    58   am
     3    53    54    1
     4    54    55    1
     5    54    57    1
     6    55    56    2
     7    43    42    2
     8    67    66    1
     9    67    68    1
    10     2     5    1
    11     2     3    1
    12    66    65    1
    13     5     6    1
    14    62    61    1
    15    62    65    1
    16    62    63    1
    17    57    58    1
    18    58    59    2
    19    48    49    1
    20    69    63   am
    21    69    70    1
    22    42    41    1
    23    78    76   ar
    24    78    77   ar
    25    76    74   ar
    26     3     4    2
    27    50    49    1
    28    50    51    2
    29    63    64    2
    30     6     7    2
    31     6     8   am
    32    49    52    1
    33    70    71    1
    34    70    73    1
    35    41    44    1
    36    41    40    1
    37    77    75   ar
    38    71    72    2
    39    74    73    1
    40    74    75   ar
    41    44    45    1
    42    32    31    2
    43    45    47   ar
    44    45    46   ar
    45    40    31   am
    46    31    30    1
    47   110   109    1
    48     9    10    1
    49   109   108    1
    50    11    10    1
    51    11    12    2
    52    10    13    1
    53    95    94    2
    54    94    93    1
    55    24    23    2
    56    96    93    1
    57    96    97    1
    58    93    92    1
    59    30    29    1
    60    30    33    1
    61    15    17   ar
    62    15    14   ar
    63    97    98    1
    64    79    80    1
    65    17    19   ar
    66    98    99    1
    67   106   105    2
    68    99   100    2
    69    34    35    1
    70    34    33    1
    71    85    84   ar
    72   108   107    1
    73    35    36    1
    74    13    14    1
    75    23    22    1
    76    14    16   ar
    77   100   102    1
    78   100   101    1
    79    25    22    1
    80    25    26    1
    81   107   104    1
    82   104   105    1
    83   104   103    1
    84   105   111   am
    85    19    20    1
    86    19    18   ar
    87    84    86   ar
    88    84    83    1
    89    80    83    1
    90    80    81    1
    91    38    37    1
    92    22    21    1
    93    26    27    1
    94    36    37    2
    95    16    18   ar
    96    87    81   am
    97    87    88    1
    98   111   112    1
    99   112   113    1
   100   112   115    1
   101    37    39    1
   102    81    82    2
   103    89    90    2
   104    89    88    1
   105   113   117   am
   106   113   114    2
   107   116   115    1
   108    88    91    1
   109   160   159    2
   110   117   118    1
   111   156   155    2
   112   121   122    1
   113   121   118    1
   114    27    28    1
   115   161   158    1
   116   154   155    1
   117   154   153    1
   118   158   159    1
   119   158   157    1
   120   118   119    1
   121   151   150    2
   122   152   150   am
   123   119   120    2
   124   150   149    1
   125   129   131   ar
   126   129   128   ar
   127   144   142    1
   128   127   128    1
   129   127   124    1
   130   131   132   ar
   131   128   130   ar
   132   149   146    1
   133   142   143    1
   134   142   141    1
   135   123   124    1
   136   132   130   ar
   137   132   134   ar
   138   124   125    1
   139   130   133   ar
   140   126   125    2
   141   146   145    1
   142   146   147    1
   143   125   137   am
   144   137   138    1
   145   134   136   ar
   146   138   141    1
   147   138   139    1
   148   133   135   ar
   149   147   148    2
   150   136   135   ar
   151   139   140    2
