@<TRIPOS>MOLECULE
tmp/4je5A03.pdb
 83 77 0 0 0
SMALL
GASTEIGER

@<TRIPOS>ATOM
      1  N         91.3120  -35.2140   29.3920 N.3    22  SER22      -0.1217
      2  CA        91.3740  -36.0710   30.5710 C.3    22  SER22       0.1889
      3  C         91.8850  -37.4820   30.1670 C.2    22  SER22       0.2288
      4  O         91.3820  -38.0600   29.2110 O.2    22  SER22      -0.2866
      5  CB        89.9610  -36.1540   31.1820 C.3    22  SER22       0.2089
      6  OG        89.9060  -37.0390   32.2880 O.3    22  SER22      -0.2183
      7  N         91.2490  -39.9710   31.6590 N.3    24  LEU24      -0.1231
      8  CA        90.1130  -40.7670   32.0520 C.3    24  LEU24       0.1693
      9  C         89.0410  -40.6520   30.9590 C.2    24  LEU24       0.2591
     10  O         88.2520  -39.6900   30.9440 O.2    24  LEU24      -0.2718
     11  CB        89.6290  -40.2410   33.4020 C.3    24  LEU24       0.0284
     12  CG        88.4790  -40.8660   34.1650 C.3    24  LEU24       0.0019
     13  CD1       88.7630  -42.3380   34.4690 C.3    24  LEU24       0.0001
     14  CD2       88.2830  -40.0320   35.4360 C.3    24  LEU24       0.0001
     15  N         89.0450  -41.6140   30.0300 N.am   25  LYS25      -0.1980
     16  CA        88.1680  -41.5830   28.8520 C.3    25  LYS25       0.1596
     17  C         87.0650  -42.6480   28.9040 C.2    25  LYS25       0.2287
     18  O         87.2110  -43.6850   29.5620 O.2    25  LYS25      -0.2864
     19  CB        88.9800  -41.7200   27.5580 C.3    25  LYS25       0.0298
     20  CG        89.8950  -40.5580   27.2530 C.3    25  LYS25       0.0038
     21  CD        90.5170  -40.7700   25.8830 C.3    25  LYS25       0.0206
     22  CE        91.4290  -39.6270   25.4820 C.3    25  LYS25       0.1093
     23  NZ        92.5140  -39.3960   26.4660 N.3    25  LYS25      -0.1314
     24  N         87.1630  -49.0120   35.9720 N.3    36  GLY36      -0.1210
     25  CA        87.6700  -47.6580   35.7030 C.3    36  GLY36       0.1956
     26  C         86.6230  -46.5510   35.6270 C.2    36  GLY36       0.2612
     27  O         86.3410  -45.8930   36.6330 O.2    36  GLY36      -0.2717
     28  N         86.0390  -46.3380   34.4500 N.am   37  GLY37      -0.1942
     29  CA        85.0720  -45.2560   34.2440 C.3    37  GLY37       0.2014
     30  C         83.7000  -45.5020   34.8560 C.2    37  GLY37       0.2639
     31  O         83.1900  -46.6340   34.8630 O.2    37  GLY37      -0.2714
     32  N         83.0860  -44.4380   35.3540 N.am   38  GLY38      -0.1939
     33  CA        81.7790  -44.5520   35.9870 C.3    38  GLY38       0.2014
     34  C         80.6610  -44.6700   34.9730 C.2    38  GLY38       0.2638
     35  O         79.8900  -43.7280   34.7930 O.2    38  GLY38      -0.2714
     36  N         80.5760  -45.8110   34.2900 N.am   39  LEU39      -0.1977
     37  CA        79.5090  -46.0270   33.3180 C.3    39  LEU39       0.1596
     38  C         78.3950  -46.7990   34.0200 C.2    39  LEU39       0.2287
     39  O         78.5540  -47.9780   34.3600 O.2    39  LEU39      -0.2864
     40  CB        80.0100  -46.7490   32.0570 C.3    39  LEU39       0.0297
     41  CG        80.5760  -45.8460   30.9360 C.3    39  LEU39       0.0022
     42  CD1       81.7120  -44.9170   31.4280 C.3    39  LEU39       0.0001
     43  CD2       81.0180  -46.6460   29.7060 C.3    39  LEU39       0.0001
     44  N         77.3440  -43.2030   28.0470 N.3   100  TYR100     -0.1227
     45  CA        78.4990  -42.3730   27.6510 C.3   100  TYR100      0.1736
     46  C         79.1590  -42.9860   26.4050 C.2   100  TYR100      0.2596
     47  O         79.0630  -44.2000   26.1750 O.2   100  TYR100     -0.2718
     48  CB        79.5400  -42.3600   28.7920 C.3   100  TYR100      0.0548
     49  CG        79.1570  -41.4760   29.9700 C.ar  100  TYR100     -0.0200
     50  CD1       79.0410  -40.0820   29.8090 C.ar  100  TYR100     -0.0009
     51  CD2       78.9520  -42.0180   31.2320 C.ar  100  TYR100     -0.0009
     52  CE1       78.6820  -39.2460   30.8870 C.ar  100  TYR100      0.0417
     53  CE2       78.6110  -41.1930   32.3330 C.ar  100  TYR100      0.0417
     54  CZ        78.4590  -39.8070   32.1370 C.ar  100  TYR100      0.1957
     55  OH        78.1320  -38.9700   33.1950 O.3   100  TYR100     -0.2866
     56  N         79.8570  -42.1640   25.6300 N.am  101  GLY101     -0.1957
     57  CA        80.6450  -42.6520   24.5100 C.3   101  GLY101      0.1869
     58  C         80.2750  -41.9300   23.2230 C.2   101  GLY101      0.2309
     59  O         79.2880  -41.1540   23.1850 O.2   101  GLY101     -0.2863
     60  N         81.5390  -39.4630   21.3230 N.3   103  SER103     -0.1217
     61  CA        81.4920  -38.0030   21.3690 C.3   103  SER103      0.1889
     62  C         81.4220  -37.3730   19.9830 C.2   103  SER103      0.2288
     63  O         80.9190  -36.2510   19.8120 O.2   103  SER103     -0.2866
     64  CB        82.7040  -37.4540   22.1330 C.3   103  SER103      0.2089
     65  OG        82.4790  -37.5300   23.5430 O.3   103  SER103     -0.2183
     66  N         84.4030  -33.0950   23.7050 N.3   326  GLU326     -0.1245
     67  CA        84.5780  -33.9980   24.8310 C.3   326  GLU326      0.1567
     68  C         84.5240  -33.3270   26.1930 C.2   326  GLU326      0.2260
     69  O         84.0130  -33.9260   27.1370 O.2   326  GLU326     -0.2867
     70  CB        85.8500  -34.8420   24.6620 C.3   326  GLU326      0.0388
     71  CG        85.6370  -35.9160   23.6090 C.3   326  GLU326      0.1160
     72  CD        86.8690  -36.7720   23.3390 C.2   326  GLU326      0.3649
     73  OE1       88.0010  -36.3190   23.6320 O.co2 326  GLU326     -0.2457
     74  OE2       86.6880  -37.9040   22.8220 O.co2 326  GLU326     -0.2457
     75  N         79.9230  -32.8370   25.3920 N.3   330  GLN330     -0.1245
     76  CA        80.1430  -34.2960   25.4500 C.3   330  GLN330      0.1566
     77  C         79.7150  -35.1060   24.2300 C.2   330  GLN330      0.2260
     78  O         80.5180  -35.8700   23.6960 O.2   330  GLN330     -0.2867
     79  CB        79.6100  -34.9340   26.7320 C.3   330  GLN330      0.0367
     80  CG        80.6190  -34.9350   27.8390 C.3   330  GLN330      0.0905
     81  CD        80.5830  -36.1780   28.7000 C.2   330  GLN330      0.2608
     82  OE1       80.3280  -37.2900   28.2180 O.2   330  GLN330     -0.2717
     83  NE2       80.8890  -36.0010   29.9890 N.am  330  GLN330     -0.0878
@<TRIPOS>BOND
     1    63    62    2
     2    62    61    1
     3    60    61    1
     4    61    64    1
     5    64    65    1
     6    74    72   ar
     7    59    58    2
     8    58    57    1
     9    72    71    1
    10    72    73   ar
    11    71    70    1
    12    78    77    2
    13    66    67    1
    14    77    76    1
    15    57    56    1
    16    70    67    1
    17    67    68    1
    18    75    76    1
    19    76    79    1
    20    22    21    1
    21    22    23    1
    22    56    46   am
    23    21    20    1
    24    47    46    2
    25    68    69    2
    26    46    45    1
    27    79    80    1
    28    20    19    1
    29    19    16    1
    30    45    44    1
    31    45    48    1
    32    80    81    1
    33    82    81    2
    34    81    83   am
    35    48    49    1
    36    16    17    1
    37    16    15    1
    38    17    18    2
    39     4     3    2
    40     1     2    1
    41    43    41    1
    42    50    49   ar
    43    50    52   ar
    44    49    51   ar
    45    15     9   am
    46     3     2    1
    47     2     5    1
    48    52    54   ar
    49    41    42    1
    50    41    40    1
    51    10     9    2
    52     9     8    1
    53     5     6    1
    54    51    53   ar
    55     7     8    1
    56     8    11    1
    57    40    37    1
    58    54    53   ar
    59    54    55    1
    60    37    38    1
    61    37    36    1
    62    11    12    1
    63    38    39    2
    64    12    13    1
    65    12    14    1
    66    29    28    1
    67    29    30    1
    68    36    34   am
    69    28    26   am
    70    35    34    2
    71    30    31    2
    72    30    32   am
    73    34    33    1
    74    32    33    1
    75    26    25    1
    76    26    27    2
    77    25    24    1
