@<TRIPOS>MOLECULE
tmp/4je5B01.pdb
 123 117 0 0 0
SMALL
GASTEIGER

@<TRIPOS>ATOM
      1  N         74.0050  -30.9760   30.7590 N.3   139  GLY139     -0.1210
      2  CA        74.7690  -31.8530   31.6260 C.3   139  GLY139      0.1956
      3  C         75.7980  -31.0850   32.4330 C.2   139  GLY139      0.2612
      4  O         76.0690  -29.9080   32.1460 O.2   139  GLY139     -0.2717
      5  N         76.3880  -31.7340   33.4410 N.am  140  ASN140     -0.1960
      6  CA        77.3450  -31.0280   34.3210 C.3   140  ASN140      0.1819
      7  C         78.6660  -30.6710   33.6360 C.2   140  ASN140      0.2621
      8  O         79.3380  -29.7000   34.0270 O.2   140  ASN140     -0.2715
      9  CB        77.6080  -31.7870   35.6230 C.3   140  ASN140      0.1195
     10  CG        76.4810  -31.6150   36.6370 C.2   140  ASN140      0.2630
     11  OD1       75.4080  -31.0760   36.3250 O.2   140  ASN140     -0.2716
     12  ND2       76.7390  -32.0370   37.8730 N.am  140  ASN140     -0.0877
     13  N         79.0370  -31.4700   32.6380 N.am  141  THR141     -0.1951
     14  CA        80.2040  -31.1590   31.7840 C.3   141  THR141      0.1897
     15  C         80.0400  -29.7640   31.1660 C.2   141  THR141      0.2313
     16  O         80.9390  -28.9180   31.2420 O.2   141  THR141     -0.2863
     17  CB        80.3510  -32.1720   30.5990 C.3   141  THR141      0.1794
     18  OG1       80.4210  -33.5020   31.1080 O.3   141  THR141     -0.2208
     19  CG2       81.5970  -31.9110   29.7910 C.3   141  THR141      0.0378
     20  N         87.8580  -34.0670   40.1350 N.3   165  PHE165     -0.1241
     21  CA        87.4180  -34.6870   38.8890 C.3   165  PHE165      0.1605
     22  C         88.3760  -34.2510   37.7900 C.2   165  PHE165      0.2264
     23  O         88.5790  -33.0600   37.5710 O.2   165  PHE165     -0.2867
     24  CB        85.9480  -34.3370   38.5870 C.3   165  PHE165      0.0534
     25  CG        85.4030  -34.9840   37.3290 C.ar  165  PHE165     -0.0203
     26  CD1       85.8480  -36.2620   36.9120 C.ar  165  PHE165     -0.0042
     27  CD2       84.4470  -34.3270   36.5650 C.ar  165  PHE165     -0.0042
     28  CE1       85.3580  -36.8610   35.7330 C.ar  165  PHE165     -0.0003
     29  CE2       83.9250  -34.9180   35.4020 C.ar  165  PHE165     -0.0003
     30  CZ        84.3850  -36.1880   34.9810 C.ar  165  PHE165     -0.0000
     31  N         82.8720  -31.1360   44.9470 N.3   214  ILE214     -0.1245
     32  CA        81.9850  -32.2600   44.6540 C.3   214  ILE214      0.1561
     33  C         81.6250  -32.8280   46.0250 C.2   214  ILE214      0.2260
     34  O         82.2530  -33.7830   46.5010 O.2   214  ILE214     -0.2867
     35  CB        82.6760  -33.3380   43.7510 C.3   214  ILE214      0.0252
     36  CG1       83.1700  -32.7020   42.4410 C.3   214  ILE214      0.0019
     37  CG2       81.7110  -34.5280   43.4620 C.3   214  ILE214      0.0019
     38  CD1       84.4740  -33.2980   41.9310 C.3   214  ILE214      0.0001
     39  N         84.5100  -37.1160   43.8450 N.3   219  ASN219     -0.1240
     40  CA        85.2550  -37.8230   42.8050 C.3   219  ASN219      0.1653
     41  C         86.6860  -37.2920   42.8660 C.2   219  ASN219      0.2266
     42  O         86.9000  -36.1270   42.5500 O.2   219  ASN219     -0.2867
     43  CB        84.6050  -37.5960   41.4240 C.3   219  ASN219      0.1155
     44  CG        85.2140  -38.4710   40.3290 C.2   219  ASN219      0.2627
     45  OD1       86.2300  -39.1450   40.5400 O.2   219  ASN219     -0.2716
     46  ND2       84.5800  -38.4750   39.1450 N.am  219  ASN219     -0.0877
     47  N         79.1970  -29.2880   42.5310 N.3   247  ASP247     -0.1239
     48  CA        78.9900  -30.1640   41.3730 C.3   247  ASP247      0.1674
     49  C         78.4650  -31.4510   41.9580 C.2   247  ASP247      0.2266
     50  O         79.2160  -32.2060   42.5900 O.2   247  ASP247     -0.2867
     51  CB        80.3380  -30.4130   40.6830 C.3   247  ASP247      0.1410
     52  CG        80.2060  -31.1480   39.3490 C.2   247  ASP247      0.3668
     53  OD1       79.1100  -31.6270   38.9720 O.co2 247  ASP247     -0.2456
     54  OD2       81.2310  -31.2290   38.6610 O.co2 247  ASP247     -0.2456
     55  N         76.5710  -34.4880   40.8030 N.3   249  PRO249     -0.2102
     56  CA        75.8740  -35.5070   39.9820 C.3   249  PRO249      0.1504
     57  C         75.6150  -36.7950   40.7550 C.2   249  PRO249      0.2575
     58  O         74.7830  -37.6070   40.3230 O.2   249  PRO249     -0.2718
     59  CB        76.8530  -35.7650   38.8330 C.3   249  PRO249      0.0282
     60  CG        78.2290  -35.5630   39.4880 C.3   249  PRO249      0.0208
     61  CD        78.0050  -34.3920   40.4620 C.3   249  PRO249      0.0893
     62  N         76.2890  -36.9620   41.8970 N.am  250  TYR250     -0.1977
     63  CA        76.1690  -38.2000   42.7150 C.3   250  TYR250      0.1639
     64  C         75.3530  -38.0530   43.9830 C.2   250  TYR250      0.2290
     65  O         75.3610  -38.9610   44.8380 O.2   250  TYR250     -0.2864
     66  CB        77.5460  -38.7240   43.1110 C.3   250  TYR250      0.0560
     67  CG        78.5230  -38.7700   41.9790 C.ar  250  TYR250     -0.0198
     68  CD1       78.3230  -39.6380   40.9200 C.ar  250  TYR250     -0.0009
     69  CD2       79.6620  -37.9600   41.9680 C.ar  250  TYR250     -0.0009
     70  CE1       79.2020  -39.6920   39.8740 C.ar  250  TYR250      0.0417
     71  CE2       80.5530  -38.0190   40.9180 C.ar  250  TYR250      0.0417
     72  CZ        80.2930  -38.9000   39.8670 C.ar  250  TYR250      0.1957
     73  OH        81.1200  -39.0180   38.7790 O.3   250  TYR250     -0.2866
     74  N         72.5200  -33.0590   37.5510 N.3   301  SER301     -0.1217
     75  CA        72.5110  -33.8150   36.2960 C.3   301  SER301      0.1889
     76  C         71.5910  -35.0310   36.3720 C.2   301  SER301      0.2288
     77  O         71.4950  -35.6760   37.4300 O.2   301  SER301     -0.2866
     78  CB        73.9210  -34.3340   35.9880 C.3   301  SER301      0.2089
     79  OG        73.9090  -34.9840   34.7250 O.3   301  SER301     -0.2183
     80  N         72.3340  -37.5540   34.5980 N.3   303  SER303     -0.1202
     81  CA        73.2390  -38.5820   34.0650 C.3   303  SER303      0.2020
     82  C         73.2990  -39.8640   34.8640 C.2   303  SER303      0.2618
     83  O         73.1840  -40.9470   34.2910 O.2   303  SER303     -0.2717
     84  CB        74.6550  -38.0340   33.9220 C.3   303  SER303      0.2103
     85  OG        74.7320  -37.2610   32.7570 O.3   303  SER303     -0.2182
     86  N         73.5010  -39.7630   36.1830 N.am  304  LYS304     -0.1979
     87  CA        73.6350  -40.9580   37.0150 C.3   304  LYS304      0.1596
     88  C         72.2770  -41.4120   37.5420 C.2   304  LYS304      0.2287
     89  O         72.1380  -42.5350   38.0590 O.2   304  LYS304     -0.2864
     90  CB        74.6090  -40.7360   38.1830 C.3   304  LYS304      0.0298
     91  CG        75.9940  -40.2180   37.7690 C.3   304  LYS304      0.0038
     92  CD        76.6430  -41.0980   36.7030 C.3   304  LYS304      0.0206
     93  CE        78.0390  -40.5850   36.3510 C.3   304  LYS304      0.1093
     94  NZ        78.0560  -39.1560   35.8960 N.3   304  LYS304     -0.1314
     95  N         73.2900  -41.2510   31.1850 N.3   308  PRO308     -0.2116
     96  CA        74.2740  -40.2760   30.6830 C.3   308  PRO308      0.1372
     97  C         73.8470  -39.5870   29.3720 C.2   308  PRO308      0.2244
     98  O         74.0200  -38.3650   29.2310 O.2   308  PRO308     -0.2868
     99  CB        75.5170  -41.1480   30.4200 C.3   308  PRO308      0.0268
    100  CG        75.4190  -42.2530   31.4740 C.3   308  PRO308      0.0207
    101  CD        73.9160  -42.5410   31.5450 C.3   308  PRO308      0.0892
    102  N         71.8660  -36.1430   28.3300 N.3   311  ARG311     -0.1245
    103  CA        72.4820  -34.8240   28.0850 C.3   311  ARG311      0.1563
    104  C         71.5720  -33.7130   28.6290 C.2   311  ARG311      0.2260
    105  O         71.1790  -32.7660   27.9380 O.2   311  ARG311     -0.2867
    106  CB        72.7870  -34.6340   26.5920 C.3   311  ARG311      0.0307
    107  CG        73.6850  -35.7280   26.0260 C.3   311  ARG311      0.0489
    108  CD        74.5530  -36.3540   27.1620 C.3   311  ARG311      0.2205
    109  NE        75.3750  -35.3670   27.8290 N.pl3 311  ARG311     -0.0865
    110  CZ        76.0110  -35.5230   28.9960 C.cat 311  ARG311      0.5346
    111  NH1       75.9350  -36.6450   29.7110 N.pl3 311  ARG311      0.1354
    112  NH2       76.7290  -34.5170   29.4650 N.pl3 311  ARG311      0.1354
    113  N         82.3420  -44.6440   43.5520 N.3   398  PHE398     -0.1241
    114  CA        83.7830  -44.9530   43.6190 C.3   398  PHE398      0.1605
    115  C         84.2490  -45.3390   45.0220 C.2   398  PHE398      0.2264
    116  O         83.7140  -44.8480   46.0140 O.2   398  PHE398     -0.2867
    117  CB        84.6140  -43.7550   43.1460 C.3   398  PHE398      0.0534
    118  CG        84.1480  -43.1770   41.8400 C.ar  398  PHE398     -0.0203
    119  CD1       84.2380  -43.9140   40.6620 C.ar  398  PHE398     -0.0042
    120  CD2       83.6140  -41.8970   41.7860 C.ar  398  PHE398     -0.0042
    121  CE1       83.7960  -43.3650   39.4490 C.ar  398  PHE398     -0.0003
    122  CE2       83.1710  -41.3600   40.5760 C.ar  398  PHE398     -0.0003
    123  CZ        83.2600  -42.0960   39.4230 C.ar  398  PHE398     -0.0000
@<TRIPOS>BOND
     1   107   106    1
     2   107   108    1
     3   106   103    1
     4   108   109    1
     5   109   110    2
     6   105   104    2
     7   103   102    1
     8   103   104    1
     9   110   112    1
    10   110   111    1
    11    98    97    2
    12    97    96    1
    13    19    17    1
    14    99    96    1
    15    99   100    1
    16    17    18    1
    17    17    14    1
    18    96    95    1
    19     1     2    1
    20    15    16    2
    21    15    14    1
    22    95   101    1
    23   100   101    1
    24     2     3    1
    25    14    13    1
    26     4     3    2
    27     3     5   am
    28    13     7   am
    29    85    84    1
    30     5     6    1
    31     7     8    2
    32     7     6    1
    33    84    81    1
    34    81    80    1
    35    81    82    1
    36    83    82    2
    37     6     9    1
    38    79    78    1
    39    82    86   am
    40    30    29   ar
    41    30    28   ar
    42    29    27   ar
    43     9    10    1
    44    28    26   ar
    45    94    93    1
    46    78    75    1
    47    86    87    1
    48    75    76    1
    49    75    74    1
    50    11    10    2
    51    93    92    1
    52    76    77    2
    53    27    25   ar
    54    10    12   am
    55    92    91    1
    56    26    25   ar
    57    87    88    1
    58    87    90    1
    59    25    24    1
    60    88    89    2
    61    23    22    2
    62    91    90    1
    63    22    21    1
    64    24    21    1
    65    54    52   ar
    66    73    72    1
    67    59    60    1
    68    59    56    1
    69    21    20    1
    70    53    52   ar
    71    46    44   am
    72    52    51    1
    73   123   121   ar
    74   123   122   ar
    75   121   119   ar
    76    60    61    1
    77    72    70   ar
    78    72    71   ar
    79    70    68   ar
    80    56    57    1
    81    56    55    1
    82    58    57    2
    83    44    45    2
    84    44    43    1
    85    61    55    1
    86   122   120   ar
    87   119   118   ar
    88    51    48    1
    89    57    62   am
    90    71    69   ar
    91    68    67   ar
    92    48    49    1
    93    48    47    1
    94    43    40    1
    95   120   118   ar
    96   118   117    1
    97    62    63    1
    98    38    36    1
    99    49    50    2
   100    69    67   ar
   101    67    66    1
   102    36    35    1
   103    42    41    2
   104    63    66    1
   105    63    64    1
   106    40    41    1
   107    40    39    1
   108   117   114    1
   109    37    35    1
   110   113   114    1
   111   114   115    1
   112    35    32    1
   113    64    65    2
   114    32    31    1
   115    32    33    1
   116   115   116    2
   117    33    34    2
