@<TRIPOS>MOLECULE
tmp/4je7A00.pdb
 165 161 0 0 0
SMALL
GASTEIGER

@<TRIPOS>ATOM
      1  N         12.9180    0.8930  -14.7220 N.3    45  PRO45      -0.2102
      2  CA        11.7990    0.4410  -13.8990 C.3    45  PRO45       0.1504
      3  C         11.1690   -0.8240  -14.5370 C.2    45  PRO45       0.2576
      4  O         11.1310   -0.9860  -15.7700 O.2    45  PRO45      -0.2718
      5  CB        10.8180    1.6430  -13.9600 C.3    45  PRO45       0.0282
      6  CG        11.1190    2.3010  -15.2240 C.3    45  PRO45       0.0208
      7  CD        12.5490    2.0590  -15.5480 C.3    45  PRO45       0.0893
      8  N         10.6600   -1.7170  -13.7230 N.am   46  CYS46      -0.1957
      9  CA         9.9060   -2.8020  -14.2880 C.3    46  CYS46       0.1843
     10  C          8.6930   -3.1540  -13.4390 C.2    46  CYS46       0.2625
     11  O          8.4730   -2.5580  -12.3940 O.2    46  CYS46      -0.2714
     12  CB        10.7960   -3.9740  -14.7050 C.3    46  CYS46       0.0997
     13  SG        11.4850   -4.8460  -13.4030 S.3    46  CYS46      -0.0797
     14  N          7.8590   -4.0650  -13.9380 N.am   47  VAL47      -0.1963
     15  CA         6.5790   -4.3920  -13.3050 C.3    47  VAL47       0.1727
     16  C          6.5550   -5.6150  -12.3940 C.2    47  VAL47       0.2617
     17  O          5.5270   -5.9370  -11.8310 O.2    47  VAL47      -0.2715
     18  CB         5.4130   -4.4950  -14.3400 C.3    47  VAL47       0.0290
     19  CG1        5.1040   -3.0940  -14.9160 C.3    47  VAL47       0.0023
     20  CG2        5.7140   -5.5450  -15.3690 C.3    47  VAL47       0.0023
     21  N          7.6880   -6.2920  -12.2410 N.am   48  GLY48      -0.1940
     22  CA         7.7510   -7.4270  -11.3310 C.3    48  GLY48       0.2014
     23  C          9.1670   -7.9000  -11.2430 C.2    48  GLY48       0.2638
     24  O          9.9540   -7.5330  -12.0860 O.2    48  GLY48      -0.2714
     25  N          9.4740   -8.7260  -10.2340 N.am   49  LEU49      -0.1977
     26  CA        10.8170   -9.3190  -10.0450 C.3    49  LEU49       0.1596
     27  C         10.7460  -10.6130   -9.2660 C.2    49  LEU49       0.2287
     28  O          9.8790  -10.8120   -8.4040 O.2    49  LEU49      -0.2864
     29  CB        11.7590   -8.3230   -9.3120 C.3    49  LEU49       0.0297
     30  CG        13.2470   -8.1360   -9.7080 C.3    49  LEU49       0.0022
     31  CD1       13.5340   -7.3780  -11.0800 C.3    49  LEU49       0.0001
     32  CD2       14.0020   -7.3910   -8.5830 C.3    49  LEU49       0.0001
     33  N         16.5990  -13.3020   -9.5690 N.3    53  GLN53      -0.1245
     34  CA        17.0500  -12.0770  -10.3140 C.3    53  GLN53       0.1566
     35  C         17.9700  -11.1220   -9.5670 C.2    53  GLN53       0.2260
     36  O         18.6600  -10.3380  -10.1780 O.2    53  GLN53      -0.2867
     37  CB        15.8550  -11.3230  -10.8780 C.3    53  GLN53       0.0367
     38  CG        15.2370  -12.0290  -12.0720 C.3    53  GLN53       0.0905
     39  CD        14.0540  -11.2970  -12.6070 C.2    53  GLN53       0.2608
     40  OE1       12.9780  -11.2690  -11.9910 O.2    53  GLN53      -0.2717
     41  NE2       14.2400  -10.6610  -13.7730 N.am   53  GLN53      -0.0878
     42  N          3.3050    4.2260  -15.1270 N.3    69  TYR69      -0.1241
     43  CA         3.9130    3.3960  -16.1560 C.3    69  TYR69       0.1605
     44  C          2.9370    3.2810  -17.3580 C.2    69  TYR69       0.2264
     45  O          3.3370    3.3210  -18.5330 O.2    69  TYR69      -0.2867
     46  CB         4.1770    1.9500  -15.6460 C.3    69  TYR69       0.0534
     47  CG         5.1870    1.7200  -14.5130 C.ar   69  TYR69      -0.0201
     48  CD1        6.0990    2.7130  -14.1240 C.ar   69  TYR69      -0.0009
     49  CD2        5.2580    0.4600  -13.8810 C.ar   69  TYR69      -0.0009
     50  CE1        7.0290    2.4910  -13.0910 C.ar   69  TYR69       0.0417
     51  CE2        6.2050    0.2160  -12.8560 C.ar   69  TYR69       0.0417
     52  CZ         7.0840    1.2480  -12.4650 C.ar   69  TYR69       0.1957
     53  OH         8.0220    1.0430  -11.4240 O.3    69  TYR69      -0.2866
     54  N         -4.7230   -4.2780  -19.3730 N.3    83  ARG83      -0.1245
     55  CA        -3.6230   -3.8750  -18.5130 C.3    83  ARG83       0.1563
     56  C         -4.1800   -2.8280  -17.5310 C.2    83  ARG83       0.2260
     57  O         -4.4730   -1.6830  -17.9290 O.2    83  ARG83      -0.2867
     58  CB        -2.5310   -3.2570  -19.3810 C.3    83  ARG83       0.0307
     59  CG        -1.4720   -2.4690  -18.6170 C.3    83  ARG83       0.0489
     60  CD        -0.0920   -2.5530  -19.3050 C.3    83  ARG83       0.2205
     61  NE         0.8990   -2.0690  -18.3860 N.pl3  83  ARG83      -0.0865
     62  CZ         2.0630   -1.5240  -18.7220 C.cat  83  ARG83       0.5346
     63  NH1        2.4100   -1.3950  -20.0160 N.pl3  83  ARG83       0.1354
     64  NH2        2.8780   -1.0950  -17.7420 N.pl3  83  ARG83       0.1354
     65  N          6.6160   -9.7600  -24.4760 N.3   108  GLU108     -0.1231
     66  CA         7.2580   -9.6340  -23.1420 C.3   108  GLU108      0.1699
     67  C          8.7440   -9.3280  -23.2460 C.2   108  GLU108      0.2593
     68  O          9.4010   -9.7860  -24.1450 O.2   108  GLU108     -0.2718
     69  CB         7.1440  -10.9380  -22.3230 C.3   108  GLU108      0.0402
     70  CG         5.7480  -11.4180  -21.9880 C.3   108  GLU108      0.1161
     71  CD         5.7360  -12.6060  -20.9900 C.2   108  GLU108      0.3649
     72  OE1        6.7700  -12.9210  -20.3390 O.co2 108  GLU108     -0.2457
     73  OE2        4.6360  -13.1790  -20.8280 O.co2 108  GLU108     -0.2457
     74  N          9.2660   -8.5760  -22.2960 N.am  109  GLY109     -0.1942
     75  CA        10.6970   -8.6250  -22.0500 C.3   109  GLY109      0.2014
     76  C         11.0310   -9.0440  -20.6140 C.2   109  GLY109      0.2639
     77  O         10.1640   -8.9860  -19.7180 O.2   109  GLY109     -0.2714
     78  N         12.2880   -9.4330  -20.4090 N.am  110  CYS110     -0.1953
     79  CA        12.7890   -9.8520  -19.1160 C.3   110  CYS110      0.1843
     80  C         14.0150   -9.0110  -18.7750 C.2   110  CYS110      0.2625
     81  O         14.8740   -8.7920  -19.6210 O.2   110  CYS110     -0.2714
     82  CB        13.1020  -11.3370  -19.1410 C.3   110  CYS110      0.0997
     83  SG        13.6090  -12.0890  -17.5370 S.3   110  CYS110     -0.0797
     84  N         14.0760   -8.5070  -17.5430 N.am  111  GLU111     -0.1977
     85  CA        15.2800   -7.8270  -17.0710 C.3   111  GLU111      0.1602
     86  C         16.5500   -8.6780  -17.1480 C.2   111  GLU111      0.2287
     87  O         17.6730   -8.1660  -17.1540 O.2   111  GLU111     -0.2864
     88  CB        15.0880   -7.3440  -15.6440 C.3   111  GLU111      0.0415
     89  CG        14.2850   -5.9940  -15.5580 C.3   111  GLU111      0.1163
     90  CD        14.7800   -4.8510  -16.4700 C.2   111  GLU111      0.3649
     91  OE1       13.9970   -4.3510  -17.3170 O.co2 111  GLU111     -0.2457
     92  OE2       15.9510   -4.4300  -16.3120 O.co2 111  GLU111     -0.2457
     93  N         12.6990   -8.9270  -27.0540 N.3   117  ARG117     -0.1245
     94  CA        11.3190   -9.1900  -26.7140 C.3   117  ARG117      0.1563
     95  C         10.8410  -10.4500  -27.4930 C.2   117  ARG117      0.2260
     96  O         11.3850  -10.8030  -28.5240 O.2   117  ARG117     -0.2867
     97  CB        10.4470   -7.9720  -27.0910 C.3   117  ARG117      0.0307
     98  CG        10.9030   -6.5580  -26.5590 C.3   117  ARG117      0.0489
     99  CD        10.5110   -6.4270  -25.0610 C.3   117  ARG117      0.2205
    100  NE        10.7020   -5.0600  -24.5620 N.pl3 117  ARG117     -0.0865
    101  CZ        11.8470   -4.6090  -24.0350 C.cat 117  ARG117      0.5346
    102  NH1       12.9110   -5.4300  -23.8960 N.pl3 117  ARG117      0.1354
    103  NH2       11.9550   -3.3240  -23.6660 N.pl3 117  ARG117      0.1354
    104  N         -3.2320   -8.4480  -17.7290 N.3   145  TRP145     -0.1241
    105  CA        -1.7990   -8.2210  -17.7330 C.3   145  TRP145      0.1605
    106  C         -1.2540   -8.6060  -16.3990 C.2   145  TRP145      0.2264
    107  O         -0.1840   -9.1820  -16.3290 O.2   145  TRP145     -0.2867
    108  CB        -1.4580   -6.7570  -17.9490 C.3   145  TRP145      0.0550
    109  CG        -0.0790   -6.5680  -18.5540 C.ar  145  TRP145      0.0003
    110  CD1        0.9530   -5.8770  -18.0180 C.ar  145  TRP145      0.0946
    111  CD2        0.3670   -7.0410  -19.8330 C.ar  145  TRP145      0.0152
    112  NE1        2.0510   -5.9070  -18.8590 N.ar  145  TRP145     -0.2442
    113  CE2        1.7240   -6.6190  -19.9850 C.ar  145  TRP145      0.0810
    114  CE3       -0.2440   -7.7780  -20.8670 C.ar  145  TRP145      0.0012
    115  CZ2        2.5170   -6.9190  -21.1510 C.ar  145  TRP145      0.0191
    116  CZ3        0.5610   -8.0910  -22.0520 C.ar  145  TRP145      0.0001
    117  CH2        1.9240   -7.6600  -22.1610 C.ar  145  TRP145      0.0015
    118  N         -0.5370  -12.0690  -16.2670 N.3   148  ARG148     -0.1231
    119  CA         0.6420  -12.2950  -17.1010 C.3   148  ARG148      0.1694
    120  C          1.8920  -12.0820  -16.2990 C.2   148  ARG148      0.2591
    121  O          2.7390  -12.9260  -16.3300 O.2   148  ARG148     -0.2718
    122  CB         0.5960  -11.3950  -18.3230 C.3   148  ARG148      0.0321
    123  CG         1.7590  -11.3890  -19.2480 C.3   148  ARG148      0.0489
    124  CD         1.1180  -10.8830  -20.5740 C.3   148  ARG148      0.2205
    125  NE         1.8740  -11.5550  -21.5420 N.pl3 148  ARG148     -0.0865
    126  CZ         1.4970  -12.3570  -22.4970 C.cat 148  ARG148      0.5346
    127  NH1        0.2520  -12.5650  -22.9060 N.pl3 148  ARG148      0.1354
    128  NH2        2.5200  -12.9000  -23.1010 N.pl3 148  ARG148      0.1354
    129  N          2.0060  -10.9530  -15.6120 N.am  149  ILE149     -0.1980
    130  CA         3.1890  -10.6620  -14.7450 C.3   149  ILE149      0.1595
    131  C          3.3710  -11.7470  -13.7000 C.2   149  ILE149      0.2287
    132  O          4.4740  -12.2470  -13.5080 O.2   149  ILE149     -0.2864
    133  CB         3.0460   -9.2620  -14.0440 C.3   149  ILE149      0.0276
    134  CG1        2.7740   -8.1420  -15.0690 C.3   149  ILE149      0.0022
    135  CG2        4.2660   -8.9040  -13.1150 C.3   149  ILE149      0.0022
    136  CD1        2.3890   -6.8090  -14.3840 C.3   149  ILE149      0.0001
    137  N          4.9600  -14.8530  -15.4580 N.3   152  HIS152     -0.1226
    138  CA         6.3710  -14.6200  -15.7610 C.3   152  HIS152      0.1752
    139  C          7.2650  -14.7300  -14.4860 C.2   152  HIS152      0.2595
    140  O          8.3430  -15.3570  -14.5060 O.2   152  HIS152     -0.2718
    141  CB         6.4810  -13.2150  -16.3470 C.3   152  HIS152      0.0759
    142  CG         7.8750  -12.7910  -16.6870 C.ar  152  HIS152      0.0818
    143  ND1        8.3130  -12.6600  -17.9880 N.ar  152  HIS152     -0.2268
    144  CD2        8.9310  -12.4720  -15.9020 C.ar  152  HIS152      0.1154
    145  CE1        9.5770  -12.2820  -17.9890 C.ar  152  HIS152      0.1986
    146  NE2        9.9660  -12.1310  -16.7380 N.ar  152  HIS152     -0.2212
    147  N          6.8310  -14.1000  -13.3890 N.am  153  GLU153     -0.1979
    148  CA         7.5730  -14.1320  -12.1280 C.3   153  GLU153      0.1602
    149  C          7.6220  -15.5090  -11.4960 C.2   153  GLU153      0.2287
    150  O          8.7040  -15.9290  -11.0850 O.2   153  GLU153     -0.2864
    151  CB         7.0230  -13.1470  -11.1250 C.3   153  GLU153      0.0415
    152  CG         7.0130  -11.7330  -11.5850 C.3   153  GLU153      0.1163
    153  CD         8.3380  -11.2670  -12.1990 C.2   153  GLU153      0.3649
    154  OE1        8.2780  -10.2590  -12.9610 O.co2 153  GLU153     -0.2457
    155  OE2        9.4270  -11.8730  -11.9390 O.co2 153  GLU153     -0.2457
    156  N         10.0430  -17.7500  -13.1900 N.3   156  HIS156     -0.1241
    157  CA        11.4290  -17.5480  -12.7780 C.3   156  HIS156      0.1621
    158  C         11.8100  -18.4530  -11.5970 C.2   156  HIS156      0.2264
    159  O         12.9720  -18.8200  -11.4340 O.2   156  HIS156     -0.2867
    160  CB        11.6390  -16.1050  -12.3130 C.3   156  HIS156      0.0745
    161  CG        12.0710  -15.1500  -13.3910 C.ar  156  HIS156      0.0817
    162  ND1       13.2590  -15.2840  -14.0760 N.ar  156  HIS156     -0.2268
    163  CD2       11.4930  -14.0260  -13.8580 C.ar  156  HIS156      0.1154
    164  CE1       13.3910  -14.2920  -14.9270 C.ar  156  HIS156      0.1986
    165  NE2       12.3360  -13.5040  -14.8110 N.ar  156  HIS156     -0.2212
@<TRIPOS>BOND
     1    96    95    2
     2    95    94    1
     3    97    94    1
     4    97    98    1
     5    93    94    1
     6    98    99    1
     7    99   100    1
     8   100   101    2
     9    65    66    1
    10    68    67    2
    11   101   102    1
    12   101   103    1
    13    67    66    1
    14    67    74   am
    15    66    69    1
    16   128   126    1
    17   127   126    1
    18   126   125    2
    19    69    70    1
    20    74    75    1
    21   117   116   ar
    22   117   115   ar
    23   116   114   ar
    24    75    76    1
    25    70    71    1
    26   125   124    1
    27   115   113   ar
    28    71    73   ar
    29    71    72   ar
    30   114   111   ar
    31    76    78   am
    32    76    77    2
    33   124   123    1
    34    78    79    1
    35    63    62    1
    36   113   111   ar
    37   113   112   ar
    38   111   109   ar
    39    81    80    2
    40    58    59    1
    41    58    55    1
    42    54    55    1
    43    60    59    1
    44    60    61    1
    45   123   122    1
    46    82    79    1
    47    82    83    1
    48    79    80    1
    49   112   110   ar
    50    80    84   am
    51    62    61    2
    52    62    64    1
    53   109   110   ar
    54   109   108    1
    55    45    44    2
    56    55    56    1
    57   122   119    1
    58   145   143   ar
    59   145   146   ar
    60   143   142   ar
    61   108   105    1
    62    57    56    2
    63   105   104    1
    64   105   106    1
    65    84    85    1
    66    44    43    1
    67    91    90   ar
    68    87    86    2
    69    86    85    1
    70   119   120    1
    71   119   118    1
    72    85    88    1
    73   146   144   ar
    74   142   141    1
    75   142   144   ar
    76    90    92   ar
    77    90    89    1
    78   106   107    2
    79   141   138    1
    80   121   120    2
    81   120   129   am
    82    43    46    1
    83    43    42    1
    84     4     3    2
    85   138   137    1
    86   138   139    1
    87    46    47    1
    88    88    89    1
    89   129   130    1
    90     7     6    1
    91     7     1    1
    92    20    18    1
    93     6     5    1
    94   134   136    1
    95   134   133    1
    96   164   165   ar
    97   164   162   ar
    98    19    18    1
    99   165   163   ar
   100   130   133    1
   101   130   131    1
   102     1     2    1
   103    12     9    1
   104    12    13    1
   105     3     2    1
   106     3     8   am
   107    47    48   ar
   108    47    49   ar
   109   140   139    2
   110   139   147   am
   111    18    15    1
   112     9     8    1
   113     9    10    1
   114    48    50   ar
   115   162   161   ar
   116   133   135    1
   117     5     2    1
   118    14    10   am
   119    14    15    1
   120    49    51   ar
   121   163   161   ar
   122    41    39   am
   123   131   132    2
   124    10    11    2
   125   161   160    1
   126   147   148    1
   127    15    16    1
   128   156   157    1
   129    50    52   ar
   130   154   153   ar
   131    51    52   ar
   132   157   160    1
   133   157   158    1
   134    39    38    1
   135    39    40    2
   136    52    53    1
   137    16    21   am
   138    16    17    2
   139    21    22    1
   140   153   155   ar
   141   153   152    1
   142   148   149    1
   143   148   151    1
   144    24    23    2
   145    38    37    1
   146   158   159    2
   147   152   151    1
   148   149   150    2
   149    22    23    1
   150    23    25   am
   151    31    30    1
   152    37    34    1
   153    34    33    1
   154    34    35    1
   155    25    26    1
   156    36    35    2
   157    26    29    1
   158    26    27    1
   159    30    29    1
   160    30    32    1
   161    27    28    2
