@<TRIPOS>MOLECULE
tmp/4jejA00.pdb
 124 117 0 0 0
SMALL
GASTEIGER

@<TRIPOS>ATOM
      1  N         47.6050   -2.6250   83.6840 N.3    24  LEU24      -0.1245
      2  CA        47.7710   -3.6350   84.7090 C.3    24  LEU24       0.1561
      3  C         49.0810   -4.3560   84.4720 C.2    24  LEU24       0.2260
      4  O         49.2910   -4.9170   83.4020 O.2    24  LEU24      -0.2867
      5  CB        46.6350   -4.6460   84.6430 C.3    24  LEU24       0.0270
      6  CG        46.7990   -5.8930   85.4980 C.3    24  LEU24       0.0019
      7  CD1       46.8320   -5.5340   86.9680 C.3    24  LEU24       0.0001
      8  CD2       45.6280   -6.8230   85.2080 C.3    24  LEU24       0.0001
      9  N         46.8100   -9.5200   89.8890 N.3    54  GLY54      -0.1225
     10  CA        46.3460  -10.4010   88.8280 C.3    54  GLY54       0.1811
     11  C         47.0250  -11.7590   88.7490 C.2    54  GLY54       0.2280
     12  O         46.9010  -12.4780   87.7530 O.2    54  GLY54      -0.2866
     13  N         45.6880   -4.3010   93.0090 N.3    80  PHE80      -0.1241
     14  CA        44.5610   -5.0190   92.4550 C.3    80  PHE80       0.1605
     15  C         44.7530   -6.4220   93.0050 C.2    80  PHE80       0.2264
     16  O         45.3730   -7.2680   92.3730 O.2    80  PHE80      -0.2867
     17  CB        44.6650   -4.9570   90.9160 C.3    80  PHE80       0.0534
     18  CG        43.5430   -5.5950   90.1850 C.ar   80  PHE80      -0.0203
     19  CD1       42.2510   -5.4200   90.5810 C.ar   80  PHE80      -0.0042
     20  CD2       43.7900   -6.3150   89.0250 C.ar   80  PHE80      -0.0042
     21  CE1       41.2250   -5.9810   89.8750 C.ar   80  PHE80      -0.0003
     22  CE2       42.7690   -6.8830   88.3220 C.ar   80  PHE80      -0.0003
     23  CZ        41.4850   -6.7120   88.7320 C.ar   80  PHE80      -0.0000
     24  N         33.4600   -6.3080   92.4060 N.3   131  TYR131     -0.1241
     25  CA        34.1690   -7.0310   91.3460 C.3   131  TYR131      0.1605
     26  C         33.2370   -8.0830   90.7750 C.2   131  TYR131      0.2264
     27  O         32.7890   -8.9950   91.4820 O.2   131  TYR131     -0.2867
     28  CB        35.4500   -7.6480   91.9240 C.3   131  TYR131      0.0534
     29  CG        36.5170   -8.1700   90.9820 C.ar  131  TYR131     -0.0201
     30  CD1       36.9600   -7.4340   89.8900 C.ar  131  TYR131     -0.0009
     31  CD2       37.1470   -9.3700   91.2580 C.ar  131  TYR131     -0.0009
     32  CE1       37.9520   -7.9150   89.0610 C.ar  131  TYR131      0.0417
     33  CE2       38.1410   -9.8550   90.4350 C.ar  131  TYR131      0.0417
     34  CZ        38.5370   -9.1220   89.3600 C.ar  131  TYR131      0.1957
     35  OH        39.5390   -9.6400   88.5560 O.3   131  TYR131     -0.2866
     36  N         40.6740  -15.8780   87.3990 N.3   142  VAL142     -0.1245
     37  CA        39.7770  -15.4140   88.4600 C.3   142  VAL142      0.1561
     38  C         38.8110  -16.5330   88.8780 C.2   142  VAL142      0.2260
     39  O         38.6990  -16.8520   90.0490 O.2   142  VAL142     -0.2867
     40  CB        38.9870  -14.1550   88.0420 C.3   142  VAL142      0.0252
     41  CG1       38.0470  -13.7130   89.1580 C.3   142  VAL142      0.0019
     42  CG2       39.9330  -13.0290   87.6880 C.3   142  VAL142      0.0019
     43  N         33.7570   -2.9370   89.0610 N.3   175  TYR175     -0.1241
     44  CA        34.7370   -3.4000   88.0870 C.3   175  TYR175      0.1605
     45  C         34.1370   -4.5930   87.3690 C.2   175  TYR175      0.2264
     46  O         33.9730   -5.6710   87.9730 O.2   175  TYR175     -0.2867
     47  CB        36.0430   -3.7670   88.8030 C.3   175  TYR175      0.0534
     48  CG        37.2580   -4.1110   87.9630 C.ar  175  TYR175     -0.0201
     49  CD1       38.5190   -3.7570   88.4180 C.ar  175  TYR175     -0.0009
     50  CD2       37.1620   -4.7950   86.7620 C.ar  175  TYR175     -0.0009
     51  CE1       39.6720   -4.0590   87.6790 C.ar  175  TYR175      0.0417
     52  CE2       38.3350   -5.1350   86.0180 C.ar  175  TYR175      0.0417
     53  CZ        39.5590   -4.7380   86.4820 C.ar  175  TYR175      0.1957
     54  OH        40.7160   -5.0590   85.7910 O.3   175  TYR175     -0.2866
     55  N         34.6240   -7.3800   84.8600 N.3   177  GLU177     -0.1245
     56  CA        35.8590   -8.0750   84.5700 C.3   177  GLU177      0.1567
     57  C         35.5930   -9.2650   83.6870 C.2   177  GLU177      0.2260
     58  O         34.8460  -10.1420   84.0650 O.2   177  GLU177     -0.2867
     59  CB        36.4850   -8.5380   85.8760 C.3   177  GLU177      0.0388
     60  CG        37.5840   -9.5400   85.7450 C.3   177  GLU177      0.1160
     61  CD        38.8870   -8.9100   85.3180 C.2   177  GLU177      0.3649
     62  OE1       39.0520   -8.7660   84.1020 O.co2 177  GLU177     -0.2457
     63  OE2       39.7270   -8.5920   86.1850 O.co2 177  GLU177     -0.2457
     64  N         41.7180  -11.8550   82.6970 N.3   180  SER180     -0.1202
     65  CA        42.9350  -11.5950   81.9450 C.3   180  SER180      0.2020
     66  C         43.0030  -12.4930   80.7120 C.2   180  SER180      0.2619
     67  O         42.9120  -13.7160   80.8160 O.2   180  SER180     -0.2717
     68  CB        44.1490  -11.8170   82.8310 C.3   180  SER180      0.2103
     69  OG        45.3160  -11.3410   82.1830 O.3   180  SER180     -0.2182
     70  N         43.1490  -11.8720   79.5500 N.am  181  GLY181     -0.1956
     71  CA        43.3040  -12.5920   78.3010 C.3   181  GLY181      0.1869
     72  C         42.0100  -13.2180   77.8210 C.2   181  GLY181      0.2309
     73  O         42.0200  -14.1430   77.0150 O.2   181  GLY181     -0.2863
     74  N         37.5360   -4.1650   82.2760 N.3   205  GLY205     -0.1210
     75  CA        38.7320   -4.8000   81.7880 C.3   205  GLY205      0.1956
     76  C         38.5170   -6.2230   81.3790 C.2   205  GLY205      0.2612
     77  O         37.4690   -6.8070   81.7020 O.2   205  GLY205     -0.2717
     78  N         39.5030   -6.7700   80.6630 N.am  206  GLY206     -0.1942
     79  CA        39.5290   -8.1750   80.3130 C.3   206  GLY206      0.2014
     80  C         39.2950   -8.3850   78.8310 C.2   206  GLY206      0.2639
     81  O         38.2420   -8.0710   78.2900 O.2   206  GLY206     -0.2714
     82  N         40.3040   -8.9030   78.1480 N.am  207  GLY207     -0.1939
     83  CA        40.1280   -9.2480   76.7480 C.3   207  GLY207      0.2014
     84  C         40.1950   -8.1140   75.7310 C.2   207  GLY207      0.2638
     85  O         39.9190   -8.3310   74.5400 O.2   207  GLY207     -0.2714
     86  N         40.5740   -6.9150   76.1490 N.am  208  ILE208     -0.1977
     87  CA        40.6010   -5.7880   75.2280 C.3   208  ILE208      0.1596
     88  C         41.9610   -5.7660   74.5650 C.2   208  ILE208      0.2287
     89  O         42.9670   -5.6560   75.2480 O.2   208  ILE208     -0.2864
     90  CB        40.2810   -4.4820   75.9430 C.3   208  ILE208      0.0276
     91  CG1       38.8690   -4.5570   76.5190 C.3   208  ILE208      0.0022
     92  CG2       40.3710   -3.3070   74.9850 C.3   208  ILE208      0.0022
     93  CD1       38.4020   -3.3200   77.2280 C.3   208  ILE208      0.0001
     94  N         40.9040   -0.9600   81.8460 N.3   226  VAL226     -0.1231
     95  CA        42.1460   -1.6290   82.2230 C.3   226  VAL226      0.1692
     96  C         42.6910   -2.4480   81.0590 C.2   226  VAL226      0.2592
     97  O         41.9700   -3.2330   80.4470 O.2   226  VAL226     -0.2718
     98  CB        41.9430   -2.5540   83.4200 C.3   226  VAL226      0.0266
     99  CG1       43.2690   -3.1950   83.8770 C.3   226  VAL226      0.0020
    100  CG2       41.2690   -1.8000   84.5580 C.3   226  VAL226      0.0020
    101  N         43.9700   -2.2460   80.7300 N.am  227  ILE227     -0.1966
    102  CA        44.6590   -3.0620   79.7430 C.3   227  ILE227      0.1727
    103  C         45.8380   -3.7300   80.4000 C.2   227  ILE227      0.2617
    104  O         46.6840   -3.0410   80.9760 O.2   227  ILE227     -0.2715
    105  CB        45.2430   -2.2070   78.6050 C.3   227  ILE227      0.0290
    106  CG1       44.1330   -1.5100   77.8430 C.3   227  ILE227      0.0022
    107  CG2       46.1310   -3.0730   77.6760 C.3   227  ILE227      0.0023
    108  CD1       43.2380   -2.4660   77.0120 C.3   227  ILE227      0.0001
    109  N         45.8860   -5.0550   80.3420 N.am  228  GLY228     -0.1940
    110  CA        47.0310   -5.8130   80.8120 C.3   228  GLY228      0.2014
    111  C         47.7510   -6.5230   79.6910 C.2   228  GLY228      0.2640
    112  O         48.7980   -6.0800   79.2040 O.2   228  GLY228     -0.2714
    113  N         47.1470   -7.6270   79.2660 N.am  229  THR229     -0.1936
    114  CA        47.7070   -8.5420   78.2980 C.3   229  THR229      0.2028
    115  C         48.2500   -7.8600   77.0500 C.2   229  THR229      0.2642
    116  O         49.3720   -8.1610   76.6280 O.2   229  THR229     -0.2714
    117  CB        46.6450   -9.5720   77.8870 C.3   229  THR229      0.1808
    118  OG1       46.3390  -10.3840   79.0250 O.3   229  THR229     -0.2208
    119  CG2       47.1570  -10.4600   76.7740 C.3   229  THR229      0.0379
    120  N         47.4900   -6.9370   76.4690 N.am  230  ALA230     -0.1977
    121  CA        47.8700   -6.3800   75.1720 C.3   230  ALA230      0.1597
    122  C         49.1500   -5.5730   75.2890 C.2   230  ALA230      0.2287
    123  O         49.8890   -5.4570   74.3170 O.2   230  ALA230     -0.2864
    124  CB        46.7800   -5.5070   74.6120 C.3   230  ALA230      0.0319
@<TRIPOS>BOND
     1   123   122    2
     2    85    84    2
     3    88    87    1
     4    88    89    2
     5   124   121    1
     6    92    90    1
     7   121   122    1
     8   121   120    1
     9    87    90    1
    10    87    86    1
    11    84    86   am
    12    84    83    1
    13    90    91    1
    14   120   115   am
    15    91    93    1
    16   116   115    2
    17    83    82    1
    18   119   117    1
    19   108   106    1
    20    73    72    2
    21   115   114    1
    22   107   105    1
    23    72    71    1
    24   106   105    1
    25   117   114    1
    26   117   118    1
    27    82    80   am
    28    81    80    2
    29   114   113    1
    30    71    70    1
    31   105   102    1
    32    80    79    1
    33   112   111    2
    34   113   111   am
    35    70    66   am
    36   111   110    1
    37   102   103    1
    38   102   101    1
    39    79    78    1
    40   109   103   am
    41   109   110    1
    42   103   104    2
    43    97    96    2
    44    78    76   am
    45    66    67    2
    46    66    65    1
    47   101    96   am
    48    96    95    1
    49    76    77    2
    50    76    75    1
    51    75    74    1
    52    94    95    1
    53    65    64    1
    54    65    68    1
    55    69    68    1
    56    95    98    1
    57     4     3    2
    58    98    99    1
    59    98   100    1
    60     1     2    1
    61    57    58    2
    62    57    56    1
    63    62    61   ar
    64     3     2    1
    65    56    55    1
    66    56    59    1
    67     5     2    1
    68     5     6    1
    69     8     6    1
    70    61    60    1
    71    61    63   ar
    72     6     7    1
    73    60    59    1
    74    54    53    1
    75    52    53   ar
    76    52    50   ar
    77    53    51   ar
    78    50    48   ar
    79    45    46    2
    80    45    44    1
    81    36    37    1
    82    51    49   ar
    83    42    40    1
    84    12    11    2
    85    48    49   ar
    86    48    47    1
    87    40    37    1
    88    40    41    1
    89    44    47    1
    90    44    43    1
    91    22    23   ar
    92    22    20   ar
    93    37    38    1
    94    35    34    1
    95    23    21   ar
    96    11    10    1
    97    10     9    1
    98    38    39    2
    99    20    18   ar
   100    32    34   ar
   101    32    30   ar
   102    34    33   ar
   103    21    19   ar
   104    30    29   ar
   105    18    19   ar
   106    18    17    1
   107    33    31   ar
   108    26    25    1
   109    26    27    2
   110    17    14    1
   111    29    31   ar
   112    29    28    1
   113    25    28    1
   114    25    24    1
   115    16    15    2
   116    14    15    1
   117    14    13    1
