@<TRIPOS>MOLECULE
tmp/4jejA01.pdb
 139 134 0 0 0
SMALL
GASTEIGER

@<TRIPOS>ATOM
      1  N         44.2880   -6.6520   94.2370 N.3    81  PRO81      -0.2102
      2  CA        44.7470   -7.7990   95.0440 C.3    81  PRO81       0.1504
      3  C         43.8960   -9.0740   94.8890 C.2    81  PRO81       0.2576
      4  O         42.6780   -9.0080   94.7210 O.2    81  PRO81      -0.2718
      5  CB        44.6190   -7.2630   96.4720 C.3    81  PRO81       0.0282
      6  CG        43.4210   -6.3860   96.3870 C.3    81  PRO81       0.0208
      7  CD        43.4880   -5.7140   95.0400 C.3    81  PRO81       0.0893
      8  N         44.5370  -10.2320   94.9520 N.am   82  GLY82      -0.1943
      9  CA        43.8170  -11.4890   94.9580 C.3    82  GLY82       0.2014
     10  C         43.7240  -12.1380   96.3260 C.2    82  GLY82       0.2639
     11  O         42.9300  -13.0520   96.5020 O.2    82  GLY82      -0.2714
     12  N         44.5130  -11.6490   97.2880 N.am   83  ASP83      -0.1957
     13  CA        44.7180  -12.2790   98.6020 C.3    83  ASP83       0.1825
     14  C         45.3200  -11.1680   99.4630 C.2    83  ASP83       0.2464
     15  O         45.9780  -10.2860   98.9160 O.2    83  ASP83      -0.2730
     16  CB        45.7050  -13.4520   98.4390 C.3    83  ASP83       0.1450
     17  CG        46.0800  -14.1360   99.7640 C.2    83  ASP83       0.3671
     18  OD1       46.8560  -13.5610  100.5640 O.co2  83  ASP83      -0.2456
     19  OD2       45.6360  -15.2850   99.9870 O.co2  83  ASP83      -0.2456
     20  N         45.0990  -11.1840  100.7930 N.am   84  PRO84      -0.2727
     21  CA        45.6760  -10.1500  101.6700 C.3    84  PRO84       0.1402
     22  C         47.2110  -10.1110  101.6660 C.2    84  PRO84       0.2269
     23  O         47.8160   -9.1050  102.0470 O.2    84  PRO84      -0.2865
     24  CB        45.1500  -10.5360  103.0560 C.3    84  PRO84       0.0296
     25  CG        43.9480  -11.3600  102.7990 C.3    84  PRO84       0.0237
     26  CD        44.2110  -12.0980  101.5320 C.3    84  PRO84       0.0939
     27  N         49.0560   -7.2230   99.7250 N.3    87  ILE87      -0.1245
     28  CA        49.0870   -5.8500  100.1780 C.3    87  ILE87       0.1561
     29  C         50.5230   -5.3860  100.3520 C.2    87  ILE87       0.2260
     30  O         51.3050   -6.0250  101.0450 O.2    87  ILE87      -0.2867
     31  CB        48.3560   -5.6990  101.5120 C.3    87  ILE87       0.0252
     32  CG1       46.8730   -5.9970  101.3200 C.3    87  ILE87       0.0019
     33  CG2       48.5410   -4.2960  102.0580 C.3    87  ILE87       0.0019
     34  CD1       46.1010   -6.0710  102.6160 C.3    87  ILE87       0.0001
     35  N         44.4720    0.8410   97.1140 N.3    94  ILE94      -0.1245
     36  CA        44.1250   -0.5310   96.9000 C.3    94  ILE94       0.1561
     37  C         42.6510   -0.5890   96.5610 C.2    94  ILE94       0.2260
     38  O         41.8250    0.0800   97.1880 O.2    94  ILE94      -0.2867
     39  CB        44.4380   -1.4160   98.1140 C.3    94  ILE94       0.0252
     40  CG1       43.9940   -2.8530   97.8420 C.3    94  ILE94       0.0019
     41  CG2       43.7580   -0.9080   99.3940 C.3    94  ILE94       0.0019
     42  CD1       44.6200   -3.8590   98.8290 C.3    94  ILE94       0.0001
     43  N         39.6780   -2.4810   97.1170 N.3    96  PHE96      -0.1227
     44  CA        39.2430   -3.4310   98.1190 C.3    96  PHE96       0.1736
     45  C         38.0880   -4.2020   97.5110 C.2    96  PHE96       0.2595
     46  O         36.9420   -3.8060   97.6310 O.2    96  PHE96      -0.2718
     47  CB        38.8210   -2.6760   99.3790 C.3    96  PHE96       0.0547
     48  CG        38.8500   -3.4920  100.6450 C.ar   96  PHE96      -0.0202
     49  CD1       39.9670   -4.2220  101.0130 C.ar   96  PHE96      -0.0042
     50  CD2       37.7790   -3.4750  101.4980 C.ar   96  PHE96      -0.0042
     51  CE1       39.9860   -4.9390  102.2010 C.ar   96  PHE96      -0.0003
     52  CE2       37.8030   -4.1740  102.6980 C.ar   96  PHE96      -0.0003
     53  CZ        38.9210   -4.9090  103.0360 C.ar   96  PHE96      -0.0000
     54  N         38.4400   -5.2430   96.7750 N.am   97  LEU97      -0.1980
     55  CA        37.5190   -6.0120   95.9600 C.3    97  LEU97       0.1596
     56  C         36.6330   -6.9000   96.7970 C.2    97  LEU97       0.2287
     57  O         37.0610   -7.4620   97.8040 O.2    97  LEU97      -0.2864
     58  CB        38.2810   -6.9360   95.0210 C.3    97  LEU97       0.0297
     59  CG        39.2720   -6.2960   94.0600 C.3    97  LEU97       0.0022
     60  CD1       40.0740   -7.4140   93.4120 C.3    97  LEU97       0.0001
     61  CD2       38.6070   -5.4340   93.0070 C.3    97  LEU97       0.0001
     62  N         34.0380  -10.0920   95.4540 N.3    99  LEU99      -0.1245
     63  CA        33.6890  -10.8300   94.2330 C.3    99  LEU99       0.1561
     64  C         32.1850  -11.1000   94.2320 C.2    99  LEU99       0.2260
     65  O         31.7360  -12.1810   94.5590 O.2    99  LEU99      -0.2867
     66  CB        34.4940  -12.1460   94.1590 C.3    99  LEU99       0.0270
     67  CG        34.3280  -13.0040   92.9160 C.3    99  LEU99       0.0019
     68  CD1       34.5850  -12.1940   91.6670 C.3    99  LEU99       0.0001
     69  CD2       35.2500  -14.2460   93.0250 C.3    99  LEU99       0.0001
     70  N         36.0100  -14.6650   99.3160 N.3   107  TYR107     -0.1241
     71  CA        36.2400  -13.5000   98.4630 C.3   107  TYR107      0.1605
     72  C         35.1290  -12.4460   98.6300 C.2   107  TYR107      0.2264
     73  O         35.1300  -11.3930   97.9690 O.2   107  TYR107     -0.2867
     74  CB        36.3720  -13.9490   97.0110 C.3   107  TYR107      0.0534
     75  CG        37.5800  -14.8210   96.8150 C.ar  107  TYR107     -0.0201
     76  CD1       38.8260  -14.2580   96.6750 C.ar  107  TYR107     -0.0009
     77  CD2       37.4880  -16.1960   96.8420 C.ar  107  TYR107     -0.0009
     78  CE1       39.9490  -15.0340   96.5190 C.ar  107  TYR107      0.0417
     79  CE2       38.6140  -16.9810   96.7080 C.ar  107  TYR107      0.0417
     80  CZ        39.8330  -16.3880   96.5290 C.ar  107  TYR107      0.1957
     81  OH        40.9840  -17.1380   96.3960 O.3   107  TYR107     -0.2866
     82  N         38.6010  -12.6910  103.3880 N.3   111  TYR111     -0.1227
     83  CA        39.8990  -12.0870  103.1140 C.3   111  TYR111      0.1736
     84  C         39.8730  -10.6100  103.4590 C.2   111  TYR111      0.2595
     85  O         40.8950  -10.0290  103.8240 O.2   111  TYR111     -0.2718
     86  CB        40.3220  -12.3250  101.6610 C.3   111  TYR111      0.0548
     87  CG        40.7560  -13.7500  101.3720 C.ar  111  TYR111     -0.0200
     88  CD1       41.1710  -14.5930  102.3790 C.ar  111  TYR111     -0.0009
     89  CD2       40.7320  -14.2480  100.0930 C.ar  111  TYR111     -0.0009
     90  CE1       41.5690  -15.8910  102.1210 C.ar  111  TYR111      0.0417
     91  CE2       41.1270  -15.5480   99.8210 C.ar  111  TYR111      0.0417
     92  CZ        41.5370  -16.3650  100.8360 C.ar  111  TYR111      0.1957
     93  OH        41.9240  -17.6590  100.5660 O.3   111  TYR111     -0.2866
     94  N         38.7080   -9.9860  103.3230 N.am  112  GLN112     -0.1979
     95  CA        38.5700   -8.5860  103.6810 C.3   112  GLN112      0.1601
     96  C         38.7380   -8.3650  105.2010 C.2   112  GLN112      0.2287
     97  O         39.3630   -7.3910  105.6200 O.2   112  GLN112     -0.2864
     98  CB        37.2270   -8.0390  103.2170 C.3   112  GLN112      0.0394
     99  CG        37.0790   -8.0110  101.6780 C.3   112  GLN112      0.0908
    100  CD        36.6880   -9.3250  101.0350 C.2   112  GLN112      0.2608
    101  OE1       36.5870  -10.3680  101.6630 O.2   112  GLN112     -0.2717
    102  NE2       36.4720   -9.2730   99.7240 N.am  112  GLN112     -0.0878
    103  N         42.3280   -8.7350  105.9140 N.3   115  ALA115     -0.1245
    104  CA        43.0300   -7.5690  105.4030 C.3   115  ALA115      0.1562
    105  C         42.8680   -6.3050  106.2280 C.2   115  ALA115      0.2260
    106  O         43.7250   -5.4480  106.2280 O.2   115  ALA115     -0.2867
    107  CB        42.6030   -7.2950  103.9740 C.3   115  ALA115      0.0290
    108  N         33.4600   -6.3080   92.4060 N.3   131  TYR131     -0.1241
    109  CA        34.1690   -7.0310   91.3460 C.3   131  TYR131      0.1605
    110  C         33.2370   -8.0830   90.7750 C.2   131  TYR131      0.2264
    111  O         32.7890   -8.9950   91.4820 O.2   131  TYR131     -0.2867
    112  CB        35.4500   -7.6480   91.9240 C.3   131  TYR131      0.0534
    113  CG        36.5170   -8.1700   90.9820 C.ar  131  TYR131     -0.0201
    114  CD1       36.9600   -7.4340   89.8900 C.ar  131  TYR131     -0.0009
    115  CD2       37.1470   -9.3700   91.2580 C.ar  131  TYR131     -0.0009
    116  CE1       37.9520   -7.9150   89.0610 C.ar  131  TYR131      0.0417
    117  CE2       38.1410   -9.8550   90.4350 C.ar  131  TYR131      0.0417
    118  CZ        38.5370   -9.1220   89.3600 C.ar  131  TYR131      0.1957
    119  OH        39.5390   -9.6400   88.5560 O.3   131  TYR131     -0.2866
    120  N         40.6740  -15.8780   87.3990 N.3   142  VAL142     -0.1245
    121  CA        39.7770  -15.4140   88.4600 C.3   142  VAL142      0.1561
    122  C         38.8110  -16.5330   88.8780 C.2   142  VAL142      0.2260
    123  O         38.6990  -16.8520   90.0490 O.2   142  VAL142     -0.2867
    124  CB        38.9870  -14.1550   88.0420 C.3   142  VAL142      0.0252
    125  CG1       38.0470  -13.7130   89.1580 C.3   142  VAL142      0.0019
    126  CG2       39.9330  -13.0290   87.6880 C.3   142  VAL142      0.0019
    127  N         40.8700  -19.6120   90.4800 N.3   145  VAL145     -0.1231
    128  CA        41.4020  -19.4450   91.8190 C.3   145  VAL145      0.1692
    129  C         40.2700  -19.2650   92.8430 C.2   145  VAL145      0.2592
    130  O         40.3220  -19.8290   93.9420 O.2   145  VAL145     -0.2718
    131  CB        42.4140  -18.2790   91.8820 C.3   145  VAL145      0.0266
    132  CG1       42.8050  -17.9930   93.3160 C.3   145  VAL145      0.0020
    133  CG2       43.6360  -18.6110   91.0400 C.3   145  VAL145      0.0020
    134  N         39.2260  -18.5310   92.4670 N.am  146  SER146     -0.1952
    135  CA        38.1270  -18.2630   93.3940 C.3   146  SER146      0.1924
    136  C         37.1490  -19.4350   93.5360 C.2   146  SER146      0.2314
    137  O         36.3210  -19.4570   94.4450 O.2   146  SER146     -0.2863
    138  CB        37.3540  -17.0050   92.9640 C.3   146  SER146      0.2116
    139  OG        36.6480  -17.2050   91.7470 O.3   146  SER146     -0.2180
@<TRIPOS>BOND
     1   120   121    1
     2   126   124    1
     3   124   121    1
     4   124   125    1
     5   121   122    1
     6   119   118    1
     7   122   123    2
     8   116   118   ar
     9   116   114   ar
    10   118   117   ar
    11   114   113   ar
    12   117   115   ar
    13   127   128    1
    14   110   109    1
    15   110   111    2
    16   113   115   ar
    17   113   112    1
    18   133   131    1
    19   109   112    1
    20   109   108    1
    21    68    67    1
    22   139   138    1
    23   128   131    1
    24   128   129    1
    25   131   132    1
    26   134   129   am
    27   134   135    1
    28   129   130    2
    29    67    69    1
    30    67    66    1
    31   138   135    1
    32    61    59    1
    33   135   136    1
    34    60    59    1
    35   136   137    2
    36    59    58    1
    37    66    63    1
    38    64    63    1
    39    64    65    2
    40    63    62    1
    41     1     7    1
    42     1     2    1
    43     4     3    2
    44     3     8   am
    45     3     2    1
    46     8     9    1
    47     9    10    1
    48    58    55    1
    49     7     6    1
    50     2     5    1
    51    55    54    1
    52    55    56    1
    53    10    11    2
    54    10    12   am
    55     6     5    1
    56    81    80    1
    57    78    80   ar
    58    78    76   ar
    59    80    79   ar
    60    37    36    1
    61    37    38    2
    62    76    75   ar
    63    79    77   ar
    64    54    45   am
    65    56    57    2
    66    75    77   ar
    67    75    74    1
    68    36    35    1
    69    36    39    1
    70    74    71    1
    71    43    44    1
    72    12    13    1
    73    45    46    2
    74    45    44    1
    75    40    39    1
    76    40    42    1
    77    73    72    2
    78    39    41    1
    79    44    47    1
    80    16    13    1
    81    16    17    1
    82    71    72    1
    83    71    70    1
    84    13    14    1
    85    15    14    2
    86    47    48    1
    87    14    20   am
    88   102   100   am
    89    27    28    1
    90    17    19   ar
    91    17    18   ar
    92    91    89   ar
    93    91    92   ar
    94    89    87   ar
    95    28    29    1
    96    28    31    1
    97    29    30    2
    98    93    92    1
    99    48    49   ar
   100    48    50   ar
   101    20    26    1
   102    20    21    1
   103    92    90   ar
   104    49    51   ar
   105   100   101    2
   106   100    99    1
   107    32    31    1
   108    32    34    1
   109    87    86    1
   110    87    88   ar
   111    50    52   ar
   112    31    33    1
   113    26    25    1
   114    86    83    1
   115    22    21    1
   116    22    23    2
   117    21    24    1
   118    99    98    1
   119    90    88   ar
   120    51    53   ar
   121    52    53   ar
   122    25    24    1
   123    83    82    1
   124    83    84    1
   125    98    95    1
   126    94    84   am
   127    94    95    1
   128    84    85    2
   129    95    96    1
   130   107   104    1
   131    96    97    2
   132   104   103    1
   133   104   105    1
   134   105   106    2
