@<TRIPOS>MOLECULE
tmp/4jeqA00.pdb
 73 70 0 0 0
SMALL
GASTEIGER

@<TRIPOS>ATOM
      1  N        -15.5530    5.6970  420.2400 N.3    15  ASN15      -0.1225
      2  CA       -14.8340    6.3140  419.1380 C.3    15  ASN15       0.1785
      3  C        -14.0320    5.2710  418.3670 C.2    15  ASN15       0.2598
      4  O        -13.7870    4.1530  418.8550 O.2    15  ASN15      -0.2718
      5  CB       -13.9030    7.4250  419.6540 C.3    15  ASN15       0.1169
      6  CG       -14.6550    8.5440  420.3760 C.2    15  ASN15       0.2627
      7  OD1      -15.0950    9.5110  419.7580 O.2    15  ASN15      -0.2716
      8  ND2      -14.8110    8.4110  421.6830 N.am   15  ASN15      -0.0877
      9  N        -13.6630    5.6290  417.1440 N.am   16  GLY16      -0.1942
     10  CA       -12.6450    4.9060  416.4170 C.3    16  GLY16       0.2014
     11  C        -13.1190    4.3930  415.0840 C.2    16  GLY16       0.2639
     12  O        -14.2630    3.9550  414.9540 O.2    16  GLY16      -0.2714
     13  N        -12.2410    4.4410  414.0870 N.am   17  SER17      -0.1949
     14  CA       -12.5040    3.7580  412.8250 C.3    17  SER17       0.1924
     15  C        -11.4910    2.6560  412.7490 C.2    17  SER17       0.2314
     16  O        -10.5390    2.6350  413.5390 O.2    17  SER17      -0.2863
     17  CB       -12.3520    4.7060  411.6350 C.3    17  SER17       0.2116
     18  OG       -11.0330    5.2130  411.5580 O.3    17  SER17      -0.2180
     19  N         -8.1910    4.6040  411.8650 N.3    20  SER20      -0.1202
     20  CA        -7.5970    5.4520  412.9100 C.3    20  SER20       0.2020
     21  C         -7.0810    4.6310  414.0980 C.2    20  SER20       0.2618
     22  O         -5.9980    4.8940  414.6300 O.2    20  SER20      -0.2717
     23  CB        -8.5830    6.5170  413.3860 C.3    20  SER20       0.2103
     24  OG        -9.6120    5.9470  414.1730 O.3    20  SER20      -0.2182
     25  N         -7.8420    3.6320  414.5220 N.am   21  LEU21      -0.1979
     26  CA        -7.3720    2.8050  415.6370 C.3    21  LEU21       0.1596
     27  C         -6.1520    1.9250  415.2950 C.2    21  LEU21       0.2287
     28  O         -5.3390    1.6450  416.1700 O.2    21  LEU21      -0.2864
     29  CB        -8.5100    1.9680  416.2370 C.3    21  LEU21       0.0297
     30  CG        -9.7520    2.7350  416.7090 C.3    21  LEU21       0.0022
     31  CD1      -10.8050    1.7580  417.2530 C.3    21  LEU21       0.0001
     32  CD2       -9.4200    3.8060  417.7440 C.3    21  LEU21       0.0001
     33  N         -3.5980    2.7490  413.0770 N.3    23  GLU23      -0.1231
     34  CA        -2.4590    3.6670  413.1090 C.3    23  GLU23       0.1699
     35  C         -2.0460    3.9240  414.5460 C.2    23  GLU23       0.2592
     36  O         -0.8660    3.9520  414.8760 O.2    23  GLU23      -0.2718
     37  CB        -2.8220    4.9900  412.4320 C.3    23  GLU23       0.0402
     38  CG        -3.1710    4.8450  410.9590 C.3    23  GLU23       0.1161
     39  CD        -3.7770    6.1100  410.3840 C.2    23  GLU23       0.3649
     40  OE1       -3.8050    7.1310  411.1120 O.co2  23  GLU23      -0.2457
     41  OE2       -4.2270    6.0800  409.2120 O.co2  23  GLU23      -0.2457
     42  N         -3.0280    4.0850  415.4170 N.am   24  LEU24      -0.1980
     43  CA        -2.7230    4.2880  416.8250 C.3    24  LEU24       0.1596
     44  C         -2.1240    3.0170  417.4310 C.2    24  LEU24       0.2287
     45  O         -1.2280    3.0900  418.2550 O.2    24  LEU24      -0.2864
     46  CB        -3.9800    4.7290  417.5650 C.3    24  LEU24       0.0297
     47  CG        -3.9250    5.3590  418.9480 C.3    24  LEU24       0.0022
     48  CD1       -2.9200    6.5110  419.0050 C.3    24  LEU24       0.0001
     49  CD2       -5.3200    5.8620  419.2390 C.3    24  LEU24       0.0001
     50  N         -6.7410    8.7180  422.4850 N.3   238  LEU238     -0.1231
     51  CA        -6.9660    8.5170  421.0540 C.3   238  LEU238      0.1693
     52  C         -5.8640    9.2160  420.2680 C.2   238  LEU238      0.2592
     53  O         -5.9420    9.3590  419.0450 O.2   238  LEU238     -0.2718
     54  CB        -8.3200    9.1010  420.6360 C.3   238  LEU238      0.0284
     55  CG        -9.5560    8.3730  421.1730 C.3   238  LEU238      0.0019
     56  CD1      -10.8450    9.1840  420.9740 C.3   238  LEU238      0.0001
     57  CD2       -9.6940    7.0240  420.4820 C.3   238  LEU238      0.0001
     58  N         -4.8530    9.6870  420.9800 N.am  239  LYS239     -0.1966
     59  CA        -3.8170   10.4990  420.3660 C.3   239  LYS239      0.1713
     60  C         -2.4370    9.9670  420.7110 C.2   239  LYS239      0.2458
     61  O         -2.2580    9.2830  421.7300 O.2   239  LYS239     -0.2730
     62  CB        -3.9540   11.9430  420.8340 C.3   239  LYS239      0.0311
     63  CG        -5.1740   12.6580  420.2960 C.3   239  LYS239      0.0038
     64  CD        -5.2750   14.0330  420.9350 C.3   239  LYS239      0.0206
     65  CE        -6.6000   14.6900  420.6460 C.3   239  LYS239      0.1093
     66  NZ        -6.7470   15.9410  421.4510 N.3   239  LYS239     -0.1314
     67  N         -1.4630   10.2590  419.8410 N.am  240  PRO240     -0.2727
     68  CA        -0.0630    9.9580  420.1470 C.3   240  PRO240      0.1402
     69  C          0.3510   10.4880  421.5070 C.2   240  PRO240      0.2269
     70  O          1.2500    9.9110  422.1050 O.2   240  PRO240     -0.2865
     71  CB         0.6890   10.6820  419.0340 C.3   240  PRO240      0.0296
     72  CG        -0.2750   10.5440  417.8370 C.3   240  PRO240      0.0237
     73  CD        -1.6530   10.6870  418.4390 C.3   240  PRO240      0.0939
@<TRIPOS>BOND
     1    41    39   ar
     2    39    38    1
     3    39    40   ar
     4    38    37    1
     5    18    17    1
     6    17    14    1
     7    19    20    1
     8    37    34    1
     9    15    14    1
    10    15    16    2
    11    14    13    1
    12    20    23    1
    13    20    21    1
    14    33    34    1
    15    34    35    1
    16    23    24    1
    17    13    11   am
    18    21    25   am
    19    21    22    2
    20    25    26    1
    21    35    36    2
    22    35    42   am
    23    12    11    2
    24    11    10    1
    25    27    26    1
    26    27    28    2
    27    42    43    1
    28    26    29    1
    29    29    30    1
    30    10     9    1
    31    30    31    1
    32    30    32    1
    33    43    44    1
    34    43    46    1
    35     9     3   am
    36    44    45    2
    37    46    47    1
    38    72    73    1
    39    72    71    1
    40     3     4    2
    41     3     2    1
    42    73    67    1
    43    47    48    1
    44    47    49    1
    45    71    68    1
    46    53    52    2
    47     2     5    1
    48     2     1    1
    49     5     6    1
    50     7     6    2
    51    67    68    1
    52    67    60   am
    53    68    69    1
    54    52    58   am
    55    52    51    1
    56    63    62    1
    57    63    64    1
    58    59    60    1
    59    59    62    1
    60    59    58    1
    61     6     8   am
    62    57    55    1
    63    54    51    1
    64    54    55    1
    65    65    64    1
    66    65    66    1
    67    60    61    2
    68    56    55    1
    69    51    50    1
    70    69    70    2
