@<TRIPOS>MOLECULE
tmp/4jeqC00.pdb
 81 74 0 0 0
SMALL
GASTEIGER

@<TRIPOS>ATOM
      1  N        -58.1150    8.8480  447.7290 N.3    11  ASN11      -0.1240
      2  CA       -58.1650    8.9600  446.2750 C.3    11  ASN11       0.1653
      3  C        -59.4800    8.3810  445.7620 C.2    11  ASN11       0.2266
      4  O        -59.6320    7.1590  445.6580 O.2    11  ASN11      -0.2867
      5  CB       -56.9710    8.2510  445.6310 C.3    11  ASN11       0.1155
      6  CG       -56.9440    8.3940  444.0980 C.2    11  ASN11       0.2627
      7  OD1      -57.7080    9.1720  443.5100 O.2    11  ASN11      -0.2716
      8  ND2      -56.0420    7.6570  443.4550 N.am   11  ASN11      -0.0877
      9  N        -60.5450    8.5740  442.8840 N.3    13  LYS13      -0.1245
     10  CA       -60.3660    8.2260  441.4820 C.3    13  LYS13       0.1561
     11  C        -61.4940    8.8150  440.6620 C.2    13  LYS13       0.2260
     12  O        -61.8830    9.9510  440.9040 O.2    13  LYS13      -0.2867
     13  CB       -60.2370    6.7140  441.3100 C.3    13  LYS13       0.0271
     14  CG       -59.1620    6.1250  442.2060 C.3    13  LYS13       0.0035
     15  CD       -58.8080    4.6980  441.8650 C.3    13  LYS13       0.0206
     16  CE       -57.6700    4.2590  442.7820 C.3    13  LYS13       0.1093
     17  NZ       -56.9520    3.0560  442.2860 N.3    13  LYS13      -0.1314
     18  N        -49.7050    8.5260  439.5080 N.3    95  HIS95      -0.1241
     19  CA       -50.4590    7.3610  439.9590 C.3    95  HIS95       0.1621
     20  C        -50.2640    6.2040  438.9860 C.2    95  HIS95       0.2264
     21  O        -50.1880    6.4210  437.7750 O.2    95  HIS95      -0.2867
     22  CB       -51.9580    7.6920  440.0570 C.3    95  HIS95       0.0745
     23  CG       -52.7480    6.6310  440.7530 C.ar   95  HIS95       0.0817
     24  ND1      -53.2210    5.5060  440.1010 N.ar   95  HIS95      -0.2268
     25  CD2      -53.1140    6.5010  442.0470 C.ar   95  HIS95       0.1154
     26  CE1      -53.8440    4.7330  440.9730 C.ar   95  HIS95       0.1986
     27  NE2      -53.8000    5.3150  442.1560 N.ar   95  HIS95      -0.2212
     28  N        -47.0550    2.3900  445.6140 N.3   167  GLU167     -0.1245
     29  CA       -48.1730    1.5280  445.2300 C.3   167  GLU167      0.1567
     30  C        -47.6670    0.1850  444.7300 C.2   167  GLU167      0.2260
     31  O        -47.0750    0.1080  443.6620 O.2   167  GLU167     -0.2867
     32  CB       -49.0090    2.1080  444.0810 C.3   167  GLU167      0.0388
     33  CG       -49.6980    3.4670  444.2450 C.3   167  GLU167      0.1160
     34  CD       -50.5750    3.7860  443.0110 C.2   167  GLU167      0.3649
     35  OE1      -51.7020    3.2360  442.9390 O.co2 167  GLU167     -0.2457
     36  OE2      -50.1300    4.5340  442.0920 O.co2 167  GLU167     -0.2457
     37  N        -52.5250   -6.0750  442.5550 N.3   172  ILE172     -0.1245
     38  CA       -53.8760   -5.8790  442.0190 C.3   172  ILE172      0.1561
     39  C        -54.5280   -7.2120  441.6170 C.2   172  ILE172      0.2260
     40  O        -53.9580   -7.9720  440.8320 O.2   172  ILE172     -0.2867
     41  CB       -53.8850   -4.8950  440.8180 C.3   172  ILE172      0.0252
     42  CG1      -53.5010   -3.4760  441.2700 C.3   172  ILE172      0.0019
     43  CG2      -55.2430   -4.8890  440.1340 C.3   172  ILE172      0.0019
     44  CD1      -54.2770   -2.9500  442.4700 C.3   172  ILE172      0.0001
     45  N        -49.7060    2.8190  449.6280 N.3   209  GLY209     -0.1210
     46  CA       -50.7720    3.0200  448.6640 C.3   209  GLY209      0.1956
     47  C        -51.3020    1.7390  448.0510 C.2   209  GLY209      0.2612
     48  O        -51.7660    1.7510  446.9070 O.2   209  GLY209     -0.2717
     49  N        -51.2250    0.6320  448.7930 N.am  210  GLY210     -0.1942
     50  CA       -51.8720   -0.6060  448.3760 C.3   210  GLY210      0.2014
     51  C        -53.2790   -0.6100  448.9350 C.2   210  GLY210      0.2640
     52  O        -53.7250    0.4270  449.4340 O.2   210  GLY210     -0.2714
     53  N        -53.9850   -1.7400  448.8730 N.am  211  SER211     -0.1935
     54  CA       -55.3920   -1.7530  449.3030 C.3   211  SER211      0.2055
     55  C        -55.5340   -1.6670  450.8150 C.2   211  SER211      0.2642
     56  O        -55.4120   -2.6670  451.5250 O.2   211  SER211     -0.2714
     57  CB       -56.1480   -2.9670  448.7700 C.3   211  SER211      0.2130
     58  OG       -56.5990   -2.7150  447.4560 O.3   211  SER211     -0.2179
     59  N        -55.8120   -0.4590  451.2930 N.am  212  VAL212     -0.1977
     60  CA       -55.9310   -0.2000  452.7170 C.3   212  VAL212      0.1596
     61  C        -57.4000   -0.1330  453.0960 C.2   212  VAL212      0.2287
     62  O        -58.2030    0.4420  452.3570 O.2   212  VAL212     -0.2864
     63  CB       -55.2770    1.1310  453.0750 C.3   212  VAL212      0.0276
     64  CG1      -55.3930    1.4080  454.5740 C.3   212  VAL212      0.0022
     65  CG2      -53.8380    1.1220  452.6290 C.3   212  VAL212      0.0022
     66  N        -52.2560    6.3050  451.0140 N.3   230  LEU230     -0.1245
     67  CA       -52.9690    6.8080  449.8500 C.3   230  LEU230      0.1561
     68  C        -54.0390    5.7710  449.5750 C.2   230  LEU230      0.2260
     69  O        -53.7210    4.6570  449.1150 O.2   230  LEU230     -0.2867
     70  CB       -52.0610    6.9850  448.6380 C.3   230  LEU230      0.0270
     71  CG       -52.8030    7.5970  447.4290 C.3   230  LEU230      0.0019
     72  CD1      -53.3280    8.9560  447.8300 C.3   230  LEU230      0.0001
     73  CD2      -51.8890    7.7210  446.2010 C.3   230  LEU230      0.0001
     74  N        -57.5190    4.1060  448.0130 N.3   232  GLY232     -0.1210
     75  CA       -58.4340    4.0160  446.8850 C.3   232  GLY232      0.1956
     76  C        -59.8350    3.6120  447.3270 C.2   232  GLY232      0.2612
     77  O        -60.5720    4.4400  447.8690 O.2   232  GLY232     -0.2717
     78  N        -60.1990    2.3460  447.1120 N.am  233  GLY233     -0.1956
     79  CA       -61.5650    1.8830  447.3500 C.3   233  GLY233      0.1869
     80  C        -62.2170    2.2960  448.6700 C.2   233  GLY233      0.2309
     81  O        -63.3800    2.7150  448.6820 O.2   233  GLY233     -0.2863
@<TRIPOS>BOND
     1    21    20    2
     2    20    19    1
     3    18    19    1
     4    19    22    1
     5    22    23    1
     6    24    23   ar
     7    24    26   ar
     8    43    41    1
     9    11    12    2
    10    11    10    1
    11    23    25   ar
    12    41    42    1
    13    41    38    1
    14    40    39    2
    15    26    27   ar
    16    42    44    1
    17    13    10    1
    18    13    14    1
    19    10     9    1
    20    39    38    1
    21    15    14    1
    22    15    16    1
    23    38    37    1
    24    25    27   ar
    25    36    34   ar
    26    17    16    1
    27    35    34   ar
    28    34    33    1
    29     8     6   am
    30     7     6    2
    31    31    30    2
    32    32    33    1
    33    32    29    1
    34     6     5    1
    35    30    29    1
    36    29    28    1
    37     5     2    1
    38     4     3    2
    39     3     2    1
    40    73    71    1
    41     2     1    1
    42    75    76    1
    43    75    74    1
    44    48    47    2
    45    78    76   am
    46    78    79    1
    47    76    77    2
    48    79    80    1
    49    71    72    1
    50    71    70    1
    51    58    57    1
    52    47    46    1
    53    47    49   am
    54    50    49    1
    55    50    51    1
    56    70    67    1
    57    46    45    1
    58    80    81    2
    59    57    54    1
    60    53    51   am
    61    53    54    1
    62    51    52    2
    63    69    68    2
    64    54    55    1
    65    68    67    1
    66    67    66    1
    67    55    59   am
    68    55    56    2
    69    59    60    1
    70    62    61    2
    71    65    63    1
    72    60    63    1
    73    60    61    1
    74    63    64    1
