@<TRIPOS>MOLECULE
tmp/4jesB01.pdb
 126 123 0 0 0
SMALL
GASTEIGER

@<TRIPOS>ATOM
      1  N         62.6070  -31.8620   36.3840 N.3    39  ARG39      -0.1231
      2  CA        64.0480  -31.7910   36.1840 C.3    39  ARG39       0.1694
      3  C         64.4410  -31.5750   34.7280 C.2    39  ARG39       0.2592
      4  O         65.6350  -31.5720   34.4200 O.2    39  ARG39      -0.2718
      5  CB        64.7360  -33.0530   36.7220 C.3    39  ARG39       0.0321
      6  CG        65.0430  -32.9600   38.2080 C.3    39  ARG39       0.0489
      7  CD        66.3490  -32.2240   38.5040 C.3    39  ARG39       0.2205
      8  NE        67.4990  -32.9380   37.9510 N.pl3  39  ARG39      -0.0865
      9  CZ        68.7070  -32.3960   37.7590 C.cat  39  ARG39       0.5346
     10  NH1       68.9460  -31.1250   38.0700 N.pl3  39  ARG39       0.1354
     11  NH2       69.6940  -33.1310   37.2370 N.pl3  39  ARG39       0.1354
     12  N         63.4840  -31.3930   33.8280 N.am   40  GLY40      -0.1957
     13  CA        63.8100  -31.2360   32.4260 C.3    40  GLY40       0.1869
     14  C         63.9050  -32.5720   31.7100 C.2    40  GLY40       0.2309
     15  O         63.9910  -33.6340   32.3190 O.2    40  GLY40      -0.2863
     16  N         65.5960  -34.4070   28.0630 N.3    42  PHE42      -0.1241
     17  CA        66.3200  -34.4730   26.8020 C.3    42  PHE42       0.1605
     18  C         65.5460  -35.2940   25.7890 C.2    42  PHE42       0.2264
     19  O         64.9100  -36.3140   26.1150 O.2    42  PHE42      -0.2867
     20  CB        67.6550  -35.2070   26.9640 C.3    42  PHE42       0.0534
     21  CG        68.7880  -34.3710   27.4790 C.ar   42  PHE42      -0.0203
     22  CD1       69.1220  -33.1690   26.9070 C.ar   42  PHE42      -0.0042
     23  CD2       69.5570  -34.8360   28.5420 C.ar   42  PHE42      -0.0042
     24  CE1       70.1950  -32.4280   27.3860 C.ar   42  PHE42      -0.0003
     25  CE2       70.6260  -34.1090   29.0120 C.ar   42  PHE42      -0.0003
     26  CZ        70.9440  -32.9050   28.4430 C.ar   42  PHE42      -0.0000
     27  N         71.3800  -41.2130   27.1710 N.3    48  LEU48      -0.1231
     28  CA        70.5700  -40.6680   28.2510 C.3    48  LEU48       0.1693
     29  C         70.9700  -39.2550   28.6100 C.2    48  LEU48       0.2592
     30  O         70.1390  -38.4970   29.1200 O.2    48  LEU48      -0.2718
     31  CB        70.7660  -41.5300   29.4920 C.3    48  LEU48       0.0284
     32  CG        69.5950  -41.9030   30.3770 C.3    48  LEU48       0.0019
     33  CD1       68.3880  -42.3480   29.5830 C.3    48  LEU48       0.0001
     34  CD2       70.0910  -43.0090   31.2740 C.3    48  LEU48       0.0001
     35  N         72.2230  -38.8790   28.3570 N.am   49  PHE49      -0.1976
     36  CA        72.7850  -37.6560   28.9130 C.3    49  PHE49       0.1639
     37  C         73.1440  -36.6350   27.8480 C.2    49  PHE49       0.2290
     38  O         73.9230  -35.7270   28.1010 O.2    49  PHE49      -0.2864
     39  CB        73.9750  -37.9990   29.8040 C.3    49  PHE49       0.0560
     40  CG        73.6070  -38.8840   30.9570 C.ar   49  PHE49      -0.0200
     41  CD1       72.6600  -38.4780   31.8640 C.ar   49  PHE49      -0.0042
     42  CD2       74.1780  -40.1270   31.1090 C.ar   49  PHE49      -0.0042
     43  CE1       72.3040  -39.3230   32.9530 C.ar   49  PHE49      -0.0003
     44  CE2       73.8360  -40.9610   32.1730 C.ar   49  PHE49      -0.0003
     45  CZ        72.8960  -40.5430   33.0930 C.ar   49  PHE49      -0.0000
     46  N         66.5050  -29.7350   25.1030 N.3    54  TYR54      -0.1241
     47  CA        66.3010  -29.8540   26.5410 C.3    54  TYR54       0.1605
     48  C         65.1560  -28.9230   26.9080 C.2    54  TYR54       0.2264
     49  O         65.2260  -27.7190   26.6340 O.2    54  TYR54      -0.2867
     50  CB        67.5760  -29.4990   27.3170 C.3    54  TYR54       0.0534
     51  CG        67.3990  -29.4930   28.8300 C.ar   54  TYR54      -0.0201
     52  CD1       67.1980  -30.6650   29.5340 C.ar   54  TYR54      -0.0009
     53  CD2       67.4190  -28.2910   29.5370 C.ar   54  TYR54      -0.0009
     54  CE1       67.0290  -30.6520   30.9200 C.ar   54  TYR54       0.0417
     55  CE2       67.2470  -28.2660   30.9090 C.ar   54  TYR54       0.0417
     56  CZ        67.0650  -29.4580   31.5920 C.ar   54  TYR54       0.1957
     57  OH        66.8950  -29.4270   32.9490 O.3    54  TYR54      -0.2866
     58  N         75.3600  -33.3680   28.9030 N.3    74  TYR74      -0.1241
     59  CA        75.3750  -33.3220   30.3590 C.3    74  TYR74       0.1605
     60  C         76.3730  -34.3490   30.8560 C.2    74  TYR74       0.2264
     61  O         76.2850  -35.5320   30.5090 O.2    74  TYR74      -0.2867
     62  CB        73.9790  -33.6410   30.8680 C.3    74  TYR74       0.0534
     63  CG        73.8020  -33.6300   32.3620 C.ar   74  TYR74      -0.0201
     64  CD1       73.9340  -32.4440   33.0650 C.ar   74  TYR74      -0.0009
     65  CD2       73.4250  -34.7660   33.0490 C.ar   74  TYR74      -0.0009
     66  CE1       73.7280  -32.3850   34.4280 C.ar   74  TYR74       0.0417
     67  CE2       73.2240  -34.7260   34.4440 C.ar   74  TYR74       0.0417
     68  CZ        73.3930  -33.5100   35.1140 C.ar   74  TYR74       0.1957
     69  OH        73.1540  -33.3750   36.4790 O.3    74  TYR74      -0.2866
     70  N         78.4230  -32.9430   36.8770 N.3    80  HIS80      -0.1241
     71  CA        77.0730  -32.5050   36.5110 C.3    80  HIS80       0.1621
     72  C         77.0770  -31.1580   35.7910 C.2    80  HIS80       0.2264
     73  O         76.3930  -30.2240   36.1960 O.2    80  HIS80      -0.2867
     74  CB        76.1690  -32.4660   37.7380 C.3    80  HIS80       0.0745
     75  CG        76.0810  -33.7830   38.4530 C.ar   80  HIS80       0.0817
     76  ND1       75.2500  -34.8080   38.0480 N.ar   80  HIS80      -0.2268
     77  CD2       76.7340  -34.2460   39.5450 C.ar   80  HIS80       0.1154
     78  CE1       75.3930  -35.8380   38.8580 C.ar   80  HIS80       0.1986
     79  NE2       76.3020  -35.5300   39.7620 N.ar   80  HIS80      -0.2212
     80  N         76.5180  -28.9170   32.2360 N.3    82  PHE82      -0.1241
     81  CA        75.7100  -28.7790   31.0310 C.3    82  PHE82       0.1605
     82  C         76.5890  -28.0410   30.0350 C.2    82  PHE82       0.2264
     83  O         77.0570  -26.9330   30.3340 O.2    82  PHE82      -0.2867
     84  CB        74.4280  -27.9790   31.3420 C.3    82  PHE82       0.0534
     85  CG        73.3890  -28.0060   30.2560 C.ar   82  PHE82      -0.0203
     86  CD1       73.1240  -29.1680   29.5450 C.ar   82  PHE82      -0.0042
     87  CD2       72.6280  -26.8720   29.9770 C.ar   82  PHE82      -0.0042
     88  CE1       72.1310  -29.2130   28.5570 C.ar   82  PHE82      -0.0003
     89  CE2       71.6410  -26.9110   28.9720 C.ar   82  PHE82      -0.0003
     90  CZ        71.3950  -28.0900   28.2700 C.ar   82  PHE82      -0.0000
     91  N         76.6170  -23.4720   30.9680 N.3   139  HIS139     -0.1241
     92  CA        76.1950  -24.0410   32.2390 C.3   139  HIS139      0.1621
     93  C         75.6640  -22.9570   33.1670 C.2   139  HIS139      0.2264
     94  O         74.6140  -23.1280   33.7960 O.2   139  HIS139     -0.2867
     95  CB        77.3460  -24.7460   32.9270 C.3   139  HIS139      0.0745
     96  CG        76.9440  -25.3750   34.2280 C.ar  139  HIS139      0.0817
     97  ND1       76.3400  -26.6030   34.2880 N.ar  139  HIS139     -0.2268
     98  CD2       77.0050  -24.9260   35.5060 C.ar  139  HIS139      0.1154
     99  CE1       76.0670  -26.9070   35.5470 C.ar  139  HIS139      0.1986
    100  NE2       76.4710  -25.9060   36.3090 N.ar  139  HIS139     -0.2212
    101  N         72.1550  -21.3890   32.1160 N.3   142  VAL142     -0.1231
    102  CA        70.9840  -22.2390   32.2480 C.3   142  VAL142      0.1692
    103  C         70.7600  -22.6190   33.7070 C.2   142  VAL142      0.2591
    104  O         69.6280  -22.5940   34.2020 O.2   142  VAL142     -0.2718
    105  CB        71.1040  -23.4590   31.3220 C.3   142  VAL142      0.0266
    106  CG1       69.9910  -24.4670   31.6150 C.3   142  VAL142      0.0020
    107  CG2       71.0730  -22.9830   29.8420 C.3   142  VAL142      0.0020
    108  N         71.8240  -22.9840   34.4180 N.am  143  ARG143     -0.1980
    109  CA        71.6750  -23.2530   35.8440 C.3   143  ARG143      0.1597
    110  C         71.0800  -22.0500   36.5600 C.2   143  ARG143      0.2287
    111  O         70.2230  -22.2050   37.4400 O.2   143  ARG143     -0.2864
    112  CB        73.0200  -23.6650   36.4510 C.3   143  ARG143      0.0334
    113  CG        73.0040  -23.9350   37.9620 C.3   143  ARG143      0.0492
    114  CD        72.1380  -25.1050   38.3510 C.3   143  ARG143      0.2205
    115  NE        72.2380  -25.3830   39.7820 N.pl3 143  ARG143     -0.0865
    116  CZ        71.3520  -26.0930   40.4740 C.cat 143  ARG143      0.5346
    117  NH1       70.2820  -26.6000   39.8780 N.pl3 143  ARG143      0.1354
    118  NH2       71.5320  -26.2890   41.7720 N.pl3 143  ARG143      0.1354
    119  N         67.2920  -21.9520   35.9060 N.3   146  MET146     -0.1245
    120  CA        66.6060  -23.0260   36.6210 C.3   146  MET146      0.1570
    121  C         66.4940  -22.7310   38.1030 C.2   146  MET146      0.2261
    122  O         65.6230  -23.2940   38.7790 O.2   146  MET146     -0.2867
    123  CB        67.3530  -24.3480   36.4040 C.3   146  MET146      0.0387
    124  CG        67.3090  -24.7990   34.9470 C.3   146  MET146      0.0595
    125  SD        68.2930  -26.2910   34.6150 S.3   146  MET146     -0.1393
    126  CE        67.5160  -27.4650   35.7190 C.3   146  MET146      0.0692
@<TRIPOS>BOND
     1    46    47    1
     2    18    19    2
     3    18    17    1
     4    47    48    1
     5    47    50    1
     6    49    48    2
     7    17    20    1
     8    17    16    1
     9    22    24   ar
    10    22    21   ar
    11    20    21    1
    12    27    28    1
    13    50    51    1
    14    24    26   ar
    15    21    23   ar
    16    37    38    2
    17    37    36    1
    18    28    29    1
    19    28    31    1
    20    90    88   ar
    21    90    89   ar
    22    35    29   am
    23    35    36    1
    24    26    25   ar
    25    23    25   ar
    26    88    86   ar
    27    29    30    2
    28    51    52   ar
    29    51    53   ar
    30    58    59    1
    31    36    39    1
    32    89    87   ar
    33    31    32    1
    34    52    54   ar
    35    53    55   ar
    36    86    85   ar
    37    33    32    1
    38    39    40    1
    39   107   105    1
    40    87    85   ar
    41    82    83    2
    42    82    81    1
    43    85    84    1
    44    59    60    1
    45    59    62    1
    46    32    34    1
    47    61    60    2
    48    62    63    1
    49    55    56   ar
    50    54    56   ar
    51    40    42   ar
    52    40    41   ar
    53    91    92    1
    54    81    84    1
    55    81    80    1
    56    42    44   ar
    57   105   106    1
    58   105   102    1
    59    56    57    1
    60    14    15    2
    61    14    13    1
    62    41    43   ar
    63   101   102    1
    64    44    45   ar
    65    92    95    1
    66    92    93    1
    67   102   103    1
    68    63    65   ar
    69    63    64   ar
    70    13    12    1
    71    95    96    1
    72    43    45   ar
    73    65    67   ar
    74    64    66   ar
    75    93    94    2
    76   103   104    2
    77   103   108   am
    78    12     3   am
    79    96    97   ar
    80    96    98   ar
    81    97    99   ar
    82   108   109    1
    83     4     3    2
    84    66    68   ar
    85    67    68   ar
    86   125   124    1
    87   125   126    1
    88     3     2    1
    89   124   123    1
    90    68    69    1
    91    98   100   ar
    92    99   100   ar
    93    72    73    2
    94    72    71    1
    95   109   112    1
    96   109   110    1
    97   119   120    1
    98     2     1    1
    99     2     5    1
   100   123   120    1
   101   112   113    1
   102    71    70    1
   103    71    74    1
   104   110   111    2
   105   120   121    1
   106     5     6    1
   107    11     9    1
   108    74    75    1
   109     9     8    2
   110     9    10    1
   111     8     7    1
   112   113   114    1
   113    76    75   ar
   114    76    78   ar
   115   121   122    2
   116     6     7    1
   117   114   115    1
   118    75    77   ar
   119    78    79   ar
   120    77    79   ar
   121   115   116    2
   122   117   116    1
   123   116   118    1
