@<TRIPOS>MOLECULE
tmp/4jesB00.pdb
 106 96 0 0 0
SMALL
GASTEIGER

@<TRIPOS>ATOM
      1  N         65.6920  -34.9020   24.5360 N.3    43  SER43      -0.1217
      2  CA        65.2430  -35.7290   23.4350 C.3    43  SER43       0.1889
      3  C         66.1810  -35.4920   22.2650 C.2    43  SER43       0.2288
      4  O         66.9410  -34.5250   22.2450 O.2    43  SER43      -0.2866
      5  CB        63.8000  -35.4020   23.0500 C.3    43  SER43       0.2089
      6  OG        63.6490  -34.0390   22.7230 O.3    43  SER43      -0.2183
      7  N         69.3100  -33.2100   21.3630 N.3    52  THR52      -0.1203
      8  CA        69.2010  -32.0080   20.5620 C.3    52  THR52       0.1994
      9  C         68.2190  -30.9980   21.1450 C.2    52  THR52       0.2617
     10  O         68.2360  -29.8460   20.7220 O.2    52  THR52      -0.2717
     11  CB        68.7670  -32.3690   19.1370 C.3    52  THR52       0.1784
     12  OG1       67.4950  -33.0280   19.1780 O.3    52  THR52      -0.2211
     13  CG2       69.8110  -33.2770   18.4920 C.3    52  THR52       0.0376
     14  N         67.4090  -31.4040   22.1180 N.am   53  GLN53      -0.1979
     15  CA        66.5140  -30.5000   22.8070 C.3    53  GLN53       0.1601
     16  C         66.5120  -30.7950   24.2980 C.2    53  GLN53       0.2287
     17  O         66.5180  -31.9570   24.7180 O.2    53  GLN53      -0.2864
     18  CB        65.0830  -30.6490   22.2870 C.3    53  GLN53       0.0394
     19  CG        64.1310  -29.6390   22.9200 C.3    53  GLN53       0.0908
     20  CD        62.6650  -29.9500   22.6930 C.2    53  GLN53       0.2608
     21  OE1       62.0530  -30.7310   23.4290 O.2    53  GLN53      -0.2717
     22  NE2       62.0850  -29.2960   21.7180 N.am   53  GLN53      -0.0878
     23  N         62.9050  -23.8280   26.4920 N.3    67  ILE67      -0.1245
     24  CA        63.3880  -24.8880   25.6100 C.3    67  ILE67       0.1561
     25  C         64.7160  -24.4680   25.0140 C.2    67  ILE67       0.2260
     26  O         64.8340  -23.3730   24.4510 O.2    67  ILE67      -0.2867
     27  CB        62.3850  -25.1930   24.4800 C.3    67  ILE67       0.0252
     28  CG1       61.0620  -25.7160   25.0570 C.3    67  ILE67       0.0019
     29  CG2       62.9830  -26.2200   23.5540 C.3    67  ILE67       0.0019
     30  CD1       59.9860  -26.0530   24.0080 C.3    67  ILE67       0.0001
     31  N         67.7420  -25.7950   22.2680 N.3    69  GLU69      -0.1231
     32  CA        68.0240  -26.7370   21.1880 C.3    69  GLU69       0.1699
     33  C         69.4290  -26.5050   20.6590 C.2    69  GLU69       0.2592
     34  O         69.9110  -25.3650   20.6050 O.2    69  GLU69      -0.2718
     35  CB        66.9910  -26.6330   20.0700 C.3    69  GLU69       0.0402
     36  CG        65.6290  -27.1170   20.5560 C.3    69  GLU69       0.1161
     37  CD        64.5170  -26.9930   19.5540 C.2    69  GLU69       0.3649
     38  OE1       64.6900  -26.3280   18.5150 O.co2  69  GLU69      -0.2457
     39  OE2       63.4490  -27.5670   19.8180 O.co2  69  GLU69      -0.2457
     40  N         70.1080  -27.6050   20.3480 N.am   70  GLY70      -0.1957
     41  CA        71.4410  -27.5410   19.8030 C.3    70  GLY70       0.1869
     42  C         72.1460  -28.8680   19.9530 C.2    70  GLY70       0.2309
     43  O         71.5330  -29.9340   19.8010 O.2    70  GLY70      -0.2863
     44  N         69.3380  -22.4390   19.7530 N.3    88  THR88      -0.1218
     45  CA        68.0380  -21.8070   19.8910 C.3    88  THR88       0.1862
     46  C         67.6070  -21.8930   21.3450 C.2    88  THR88       0.2287
     47  O         67.7070  -22.9560   21.9730 O.2    88  THR88      -0.2866
     48  CB        67.0170  -22.5490   19.0300 C.3    88  THR88       0.1770
     49  OG1       67.5260  -22.7220   17.7040 O.3    88  THR88      -0.2211
     50  CG2       65.6990  -21.8080   18.9970 C.3    88  THR88       0.0375
     51  N         64.2970  -20.6570   23.8110 N.3    90  GLN90      -0.1245
     52  CA        62.9400  -20.1410   23.7150 C.3    90  GLN90       0.1566
     53  C         62.2980  -20.1510   25.0830 C.2    90  GLN90       0.2260
     54  O         62.4430  -21.1130   25.8360 O.2    90  GLN90      -0.2867
     55  CB        62.1440  -21.0150   22.7720 C.3    90  GLN90       0.0367
     56  CG        60.7430  -20.5740   22.4670 C.3    90  GLN90       0.0905
     57  CD        60.1260  -21.5050   21.4400 C.2    90  GLN90       0.2608
     58  OE1       59.7180  -22.6360   21.7650 O.2    90  GLN90      -0.2717
     59  NE2       60.0670  -21.0550   20.2000 N.am   90  GLN90      -0.0878
     60  N         55.2570  -33.1320   22.2970 N.3    98  ASN98      -0.1240
     61  CA        55.0280  -33.1600   20.8580 C.3    98  ASN98       0.1653
     62  C         54.2700  -34.4280   20.4750 C.2    98  ASN98       0.2266
     63  O         54.2130  -35.4070   21.2290 O.2    98  ASN98      -0.2867
     64  CB        56.3580  -33.1320   20.0880 C.3    98  ASN98       0.1155
     65  CG        57.0350  -31.7790   20.1400 C.2    98  ASN98       0.2627
     66  OD1       56.4130  -30.7800   20.4850 O.2    98  ASN98      -0.2716
     67  ND2       58.3300  -31.7420   19.8270 N.am   98  ASN98      -0.0877
     68  N         59.8950  -37.3830   21.1740 N.3   104  ALA104     -0.1245
     69  CA        59.7610  -36.4530   20.0610 C.3   104  ALA104      0.1562
     70  C         59.9860  -35.0100   20.4820 C.2   104  ALA104      0.2260
     71  O         59.9660  -34.1130   19.6310 O.2   104  ALA104     -0.2867
     72  CB        58.3760  -36.5860   19.4320 C.3   104  ALA104      0.0290
     73  N         59.2930  -31.5450   23.1800 N.3   106  LYS106     -0.1231
     74  CA        58.1850  -30.7640   23.7000 C.3   106  LYS106      0.1693
     75  C         58.1130  -29.4470   22.9530 C.2   106  LYS106      0.2592
     76  O         59.0220  -29.0750   22.2030 O.2   106  LYS106     -0.2718
     77  CB        58.3600  -30.5080   25.1950 C.3   106  LYS106      0.0285
     78  CG        58.4500  -31.8190   25.9770 C.3   106  LYS106      0.0035
     79  CD        58.3490  -31.6400   27.4520 C.3   106  LYS106      0.0206
     80  CE        58.3620  -33.0240   28.1160 C.3   106  LYS106      0.1093
     81  NZ        58.1230  -32.9420   29.5640 N.3   106  LYS106     -0.1314
     82  N         57.0100  -28.7350   23.1710 N.am  107  HIS107     -0.1976
     83  CA        56.8610  -27.3930   22.6370 C.3   107  HIS107      0.1656
     84  C         56.1790  -26.5480   23.6900 C.2   107  HIS107      0.2291
     85  O         55.5530  -27.0640   24.6210 O.2   107  HIS107     -0.2864
     86  CB        56.0360  -27.3990   21.3490 C.3   107  HIS107      0.0771
     87  CG        54.6460  -27.9330   21.5220 C.ar  107  HIS107      0.0820
     88  ND1       54.3560  -29.2820   21.5130 N.ar  107  HIS107     -0.2267
     89  CD2       53.4660  -27.2950   21.7160 C.ar  107  HIS107      0.1154
     90  CE1       53.0560  -29.4540   21.6900 C.ar  107  HIS107      0.1986
     91  NE2       52.4940  -28.2660   21.8260 N.ar  107  HIS107     -0.2212
     92  N         62.0010  -15.9840   21.3990 N.3   114  THR114     -0.1218
     93  CA        62.9550  -16.9680   20.8780 C.3   114  THR114      0.1862
     94  C         64.2560  -16.2920   20.4530 C.2   114  THR114      0.2287
     95  O         64.2350  -15.3190   19.6860 O.2   114  THR114     -0.2866
     96  CB        62.3510  -17.6970   19.6780 C.3   114  THR114      0.1770
     97  OG1       61.0910  -18.2720   20.0470 O.3   114  THR114     -0.2211
     98  CG2       63.2680  -18.7890   19.1890 C.3   114  THR114      0.0375
     99  N         67.4900  -16.8890   18.2050 N.3   116  ASN116     -0.1240
    100  CA        67.9630  -17.6860   17.0800 C.3   116  ASN116      0.1653
    101  C         69.4650  -17.4830   16.9160 C.2   116  ASN116      0.2266
    102  O         69.9580  -16.3570   17.0300 O.2   116  ASN116     -0.2867
    103  CB        67.2680  -17.2280   15.7930 C.3   116  ASN116      0.1155
    104  CG        65.7810  -17.4820   15.8200 C.2   116  ASN116      0.2627
    105  OD1       65.3330  -18.5700   16.1790 O.2   116  ASN116     -0.2716
    106  ND2       65.0050  -16.4820   15.4120 N.am  116  ASN116     -0.0877
@<TRIPOS>BOND
     1   106   104   am
     2   103   104    1
     3   103   100    1
     4   104   105    2
     5   101   102    2
     6   101   100    1
     7   100    99    1
     8    49    48    1
     9    13    11    1
    10    38    37   ar
    11    50    48    1
    12    48    45    1
    13    11    12    1
    14    11     8    1
    15    98    96    1
    16    72    69    1
    17    37    39   ar
    18    37    36    1
    19    71    70    2
    20    96    97    1
    21    96    93    1
    22    95    94    2
    23    44    45    1
    24    43    42    2
    25    41    42    1
    26    41    40    1
    27    67    65   am
    28    45    46    1
    29    69    70    1
    30    69    68    1
    31    35    36    1
    32    35    32    1
    33    64    65    1
    34    64    61    1
    35    65    66    2
    36    59    57   am
    37    40    33   am
    38    94    93    1
    39    62    61    1
    40    62    63    2
    41     8     9    1
    42     8     7    1
    43    34    33    2
    44    33    32    1
    45    10     9    2
    46    61    60    1
    47    93    92    1
    48     9    14   am
    49    32    31    1
    50    46    47    2
    51    86    87    1
    52    86    83    1
    53    57    58    2
    54    57    56    1
    55    88    87   ar
    56    88    90   ar
    57    87    89   ar
    58    90    91   ar
    59    89    91   ar
    60    22    20   am
    61    14    15    1
    62    76    75    2
    63     4     3    2
    64     3     2    1
    65    18    15    1
    66    18    19    1
    67    56    55    1
    68    83    82    1
    69    83    84    1
    70    20    19    1
    71    20    21    2
    72     6     5    1
    73    55    52    1
    74    15    16    1
    75    75    82   am
    76    75    74    1
    77     5     2    1
    78    73    74    1
    79     2     1    1
    80    29    27    1
    81    84    85    2
    82    74    77    1
    83    52    51    1
    84    52    53    1
    85    30    28    1
    86    16    17    2
    87    26    25    2
    88    27    28    1
    89    27    24    1
    90    25    24    1
    91    53    54    2
    92    77    78    1
    93    24    23    1
    94    78    79    1
    95    79    80    1
    96    80    81    1
