@<TRIPOS>MOLECULE
tmp/4jevB01.pdb
 136 128 0 0 0
SMALL
GASTEIGER

@<TRIPOS>ATOM
      1  N         63.4290   27.8150   16.9620 N.3    46  ILE46      -0.1245
      2  CA        62.9830   29.1220   16.4470 C.3    46  ILE46       0.1561
      3  C         64.1530   30.0650   16.1060 C.2    46  ILE46       0.2260
      4  O         64.2570   31.1580   16.6540 O.2    46  ILE46      -0.2867
      5  CB        61.9000   29.8140   17.3260 C.3    46  ILE46       0.0252
      6  CG1       60.9590   28.7740   17.9730 C.3    46  ILE46       0.0019
      7  CG2       61.1350   30.8420   16.4800 C.3    46  ILE46       0.0019
      8  CD1       59.9590   29.3560   18.9650 C.3    46  ILE46       0.0001
      9  N         67.9630   38.6110   26.7290 N.3   102  SER102     -0.1202
     10  CA        66.9380   38.1610   25.8190 C.3   102  SER102      0.2020
     11  C         66.6750   39.2480   24.7970 C.2   102  SER102      0.2619
     12  O         67.0850   40.4110   24.9720 O.2   102  SER102     -0.2717
     13  CB        65.6520   37.8770   26.5940 C.3   102  SER102      0.2103
     14  OG        65.1470   39.0970   27.1410 O.3   102  SER102     -0.2182
     15  N         65.9890   38.8800   23.7250 N.am  103  GLY103     -0.1942
     16  CA        65.6040   39.8640   22.7150 C.3   103  GLY103      0.2014
     17  C         64.6970   40.9270   23.3040 C.2   103  GLY103      0.2639
     18  O         64.8190   42.1210   22.9510 O.2   103  GLY103     -0.2714
     19  N         63.7760   40.5000   24.1730 N.am  104  THR104     -0.1950
     20  CA        62.8620   41.4100   24.8650 C.3   104  THR104      0.1897
     21  C         63.6590   42.4800   25.5840 C.2   104  THR104      0.2313
     22  O         63.3560   43.6830   25.4560 O.2   104  THR104     -0.2863
     23  CB        61.9680   40.6550   25.8800 C.3   104  THR104      0.1794
     24  OG1       61.0810   39.7880   25.1490 O.3   104  THR104     -0.2208
     25  CG2       61.1300   41.6390   26.6950 C.3   104  THR104      0.0378
     26  N         65.3430   44.9090   23.1950 N.3   107  ASN107     -0.1240
     27  CA        64.3340   45.8450   22.7010 C.3   107  ASN107      0.1653
     28  C         63.9180   46.8660   23.7510 C.2   107  ASN107      0.2266
     29  O         63.7710   48.0490   23.4120 O.2   107  ASN107     -0.2867
     30  CB        63.1040   45.1090   22.1610 C.3   107  ASN107      0.1155
     31  CG        63.3130   44.5490   20.7510 C.2   107  ASN107      0.2627
     32  OD1       62.5940   43.6280   20.3290 O.2   107  ASN107     -0.2716
     33  ND2       64.2790   45.0720   20.0350 N.am  107  ASN107     -0.0877
     34  N         56.4220   41.5340   16.0660 N.3   135  PHE135     -0.1227
     35  CA        56.6590   40.9050   17.3740 C.3   135  PHE135      0.1736
     36  C         57.9820   41.4240   17.9040 C.2   135  PHE135      0.2595
     37  O         58.9930   41.3320   17.2140 O.2   135  PHE135     -0.2718
     38  CB        56.7060   39.3620   17.2940 C.3   135  PHE135      0.0547
     39  CG        56.8310   38.7250   18.6460 C.ar  135  PHE135     -0.0202
     40  CD1       58.0810   38.4280   19.1820 C.ar  135  PHE135     -0.0042
     41  CD2       55.6960   38.5070   19.4230 C.ar  135  PHE135     -0.0042
     42  CE1       58.1840   37.8990   20.4570 C.ar  135  PHE135     -0.0003
     43  CE2       55.8010   37.9770   20.6970 C.ar  135  PHE135     -0.0003
     44  CZ        57.0440   37.6740   21.2120 C.ar  135  PHE135     -0.0000
     45  N         57.9630   41.9650   19.1250 N.am  136  HIS136     -0.1961
     46  CA        59.1410   42.5950   19.7190 C.3   136  HIS136      0.1787
     47  C         59.4520   42.1160   21.1020 C.2   136  HIS136      0.2621
     48  O         60.3920   42.6090   21.7210 O.2   136  HIS136     -0.2715
     49  CB        59.0030   44.1190   19.7220 C.3   136  HIS136      0.0785
     50  CG        58.9120   44.7130   18.3380 C.ar  136  HIS136      0.0821
     51  ND1       59.9000   44.5780   17.4220 N.ar  136  HIS136     -0.2267
     52  CD2       57.9240   45.4870   17.7400 C.ar  136  HIS136      0.1154
     53  CE1       59.5340   45.1900   16.2820 C.ar  136  HIS136      0.1986
     54  NE2       58.3360   45.7620   16.4830 N.ar  136  HIS136     -0.2212
     55  N         58.6860   41.1440   21.5850 N.am  137  GLY137     -0.1940
     56  CA        58.9340   40.5720   22.9050 C.3   137  GLY137      0.2014
     57  C         57.6970   40.5230   23.7750 C.2   137  GLY137      0.2638
     58  O         56.5980   40.8900   23.3340 O.2   137  GLY137     -0.2714
     59  N         57.8860   40.0630   25.0170 N.am  138  ARG138     -0.1977
     60  CA        56.7730   39.8150   25.9220 C.3   138  ARG138      0.1597
     61  C         56.6490   40.7020   27.1420 C.2   138  ARG138      0.2287
     62  O         55.7090   40.5400   27.9250 O.2   138  ARG138     -0.2864
     63  CB        56.8240   38.3690   26.4020 C.3   138  ARG138      0.0334
     64  CG        56.5600   37.4090   25.2740 C.3   138  ARG138      0.0492
     65  CD        55.0890   37.4540   24.8890 C.3   138  ARG138      0.2205
     66  NE        54.7490   36.2700   24.1090 N.pl3 138  ARG138     -0.0865
     67  CZ        53.5130   35.8620   23.8390 C.cat 138  ARG138      0.5346
     68  NH1       52.4610   36.5360   24.3060 N.pl3 138  ARG138      0.1354
     69  NH2       53.3270   34.7580   23.1100 N.pl3 138  ARG138      0.1354
     70  N         60.9580   45.3620   12.1130 N.3   187  GLU187     -0.1245
     71  CA        61.7360   44.1650   11.7680 C.3   187  GLU187      0.1567
     72  C         62.0380   44.2190   10.2660 C.2   187  GLU187      0.2260
     73  O         61.1030   44.2850    9.4660 O.2   187  GLU187     -0.2867
     74  CB        60.9350   42.8990   12.0320 C.3   187  GLU187      0.0388
     75  CG        60.5840   42.6480   13.4880 C.3   187  GLU187      0.1160
     76  CD        59.3790   41.7400   13.5930 C.2   187  GLU187      0.3649
     77  OE1       58.2730   42.2510   13.8200 O.co2 187  GLU187     -0.2457
     78  OE2       59.5230   40.5120   13.4220 O.co2 187  GLU187     -0.2457
     79  N         57.6040   36.5480   12.4800 N.3   192  GLU192     -0.1245
     80  CA        56.3860   36.0030   13.0590 C.3   192  GLU192      0.1567
     81  C         55.2240   36.2570   12.1100 C.2   192  GLU192      0.2260
     82  O         54.4650   35.3310   11.7940 O.2   192  GLU192     -0.2867
     83  CB        56.1420   36.6300   14.4440 C.3   192  GLU192      0.0388
     84  CG        54.8400   36.2500   15.1320 C.3   192  GLU192      0.1160
     85  CD        54.7630   34.7760   15.4680 C.2   192  GLU192      0.3649
     86  OE1       55.8220   34.1090   15.4990 O.co2 192  GLU192     -0.2457
     87  OE2       53.6380   34.2920   15.7060 O.co2 192  GLU192     -0.2457
     88  N         64.7580   45.8140   14.6680 N.3   220  ASP220     -0.1239
     89  CA        64.7210   44.6430   15.5180 C.3   220  ASP220      0.1674
     90  C         65.2290   43.4910   14.6600 C.2   220  ASP220      0.2266
     91  O         64.4990   42.9640   13.7940 O.2   220  ASP220     -0.2867
     92  CB        63.2890   44.4110   16.0460 C.3   220  ASP220      0.1410
     93  CG        63.1590   43.1170   16.8350 C.2   220  ASP220      0.3668
     94  OD1       64.0960   42.2970   16.7680 O.co2 220  ASP220     -0.2456
     95  OD2       62.1240   42.9200   17.5200 O.co2 220  ASP220     -0.2456
     96  N         66.4810   40.7390   16.0690 N.3   222  VAL222     -0.1231
     97  CA        66.5360   39.5680   16.9530 C.3   222  VAL222      0.1692
     98  C         66.4700   38.2660   16.1740 C.2   222  VAL222      0.2591
     99  O         67.2580   37.3580   16.4310 O.2   222  VAL222     -0.2718
    100  CB        65.4470   39.6250   18.0570 C.3   222  VAL222      0.0266
    101  CG1       65.2750   38.2680   18.7640 C.3   222  VAL222      0.0020
    102  CG2       65.8010   40.7060   19.0510 C.3   222  VAL222      0.0020
    103  N         65.5290   38.1800   15.2380 N.am  223  GLN223     -0.1979
    104  CA        65.3530   36.9780   14.4280 C.3   223  GLN223      0.1601
    105  C         66.2020   37.0280   13.1610 C.2   223  GLN223      0.2287
    106  O         66.8210   36.0330   12.7870 O.2   223  GLN223     -0.2864
    107  CB        63.8710   36.7690   14.0730 C.3   223  GLN223      0.0394
    108  CG        63.6270   35.4810   13.2780 C.3   223  GLN223      0.0908
    109  CD        62.1480   35.1140   13.1180 C.2   223  GLN223      0.2608
    110  OE1       61.8120   34.1740   12.4020 O.2   223  GLN223     -0.2717
    111  NE2       61.2670   35.8390   13.8100 N.am  223  GLN223     -0.0878
    112  N         69.6720   39.0390   19.0560 N.3   248  ALA248     -0.1231
    113  CA        69.6230   37.9880   20.0590 C.3   248  ALA248      0.1694
    114  C         69.6260   36.6790   19.3000 C.2   248  ALA248      0.2591
    115  O         70.2940   36.5680   18.2920 O.2   248  ALA248     -0.2718
    116  CB        68.3690   38.0980   20.9440 C.3   248  ALA248      0.0304
    117  N         68.8590   35.7140   19.7890 N.am  249  LYS249     -0.1980
    118  CA        68.7550   34.3690   19.1760 C.3   249  LYS249      0.1596
    119  C         70.0970   33.7790   18.7190 C.2   249  LYS249      0.2287
    120  O         70.8350   33.2210   19.5280 O.2   249  LYS249     -0.2864
    121  CB        67.7110   34.3650   18.0520 C.3   249  LYS249      0.0298
    122  CG        66.3220   34.6200   18.6040 C.3   249  LYS249      0.0038
    123  CD        65.1840   34.2420   17.6840 C.3   249  LYS249      0.0206
    124  CE        63.9750   34.0200   18.5880 C.3   249  LYS249      0.1093
    125  NZ        62.8960   33.1960   18.0000 N.3   249  LYS249     -0.1314
    126  N         57.4770   27.8050    8.1750 N.3   371  ARG371     -0.1245
    127  CA        58.7420   28.5210    8.3780 C.3   371  ARG371      0.1563
    128  C         59.8720   27.5360    8.6360 C.2   371  ARG371      0.2260
    129  O         59.6600   26.4920    9.2710 O.2   371  ARG371     -0.2867
    130  CB        58.6130   29.5440    9.5060 C.3   371  ARG371      0.0307
    131  CG        59.9260   30.2030    9.9260 C.3   371  ARG371      0.0489
    132  CD        59.7360   31.3900   10.8560 C.3   371  ARG371      0.2205
    133  NE        58.8380   31.0830   11.9730 N.pl3 371  ARG371     -0.0865
    134  CZ        58.8740   31.6700   13.1630 C.cat 371  ARG371      0.5346
    135  NH1       59.7880   32.6030   13.4450 N.pl3 371  ARG371      0.1354
    136  NH2       57.9920   31.3290   14.0890 N.pl3 371  ARG371      0.1354
@<TRIPOS>BOND
     1   126   127    1
     2   127   128    1
     3   127   130    1
     4   128   129    2
     5    73    72    2
     6   130   131    1
     7   131   132    1
     8    72    71    1
     9   132   133    1
    10    71    74    1
    11    71    70    1
    12    82    81    2
    13   133   134    2
    14    74    75    1
    15    81    80    1
    16   110   109    2
    17    79    80    1
    18   106   105    2
    19    80    83    1
    20   109   108    1
    21   109   111   am
    22   105   104    1
    23   134   135    1
    24   134   136    1
    25   108   107    1
    26    78    76   ar
    27    75    76    1
    28    76    77   ar
    29    91    90    2
    30   107   104    1
    31   104   103    1
    32    83    84    1
    33    90    89    1
    34    88    89    1
    35    84    85    1
    36   103    98   am
    37    85    86   ar
    38    85    87   ar
    39    89    92    1
    40    92    93    1
    41    34    35    1
    42    96    97    1
    43     3     2    1
    44     3     4    2
    45    98    99    2
    46    98    97    1
    47    53    54   ar
    48    53    51   ar
    49     2     1    1
    50     2     5    1
    51     7     5    1
    52    54    52   ar
    53    94    93   ar
    54    93    95   ar
    55    97   100    1
    56    37    36    2
    57    38    35    1
    58    38    39    1
    59     5     6    1
    60    35    36    1
    61    51    50   ar
    62   123   124    1
    63   123   122    1
    64    52    50   ar
    65    36    45   am
    66     6     8    1
    67   125   124    1
    68   121   122    1
    69   121   118    1
    70   100   101    1
    71   100   102    1
    72   115   114    2
    73    50    49    1
    74    39    40   ar
    75    39    41   ar
    76   119   118    1
    77   119   120    2
    78   112   113    1
    79    45    46    1
    80   118   117    1
    81    40    42   ar
    82   114   117   am
    83   114   113    1
    84    41    43   ar
    85    46    49    1
    86    46    47    1
    87    33    31   am
    88   113   116    1
    89    32    31    2
    90    42    44   ar
    91    43    44   ar
    92    31    30    1
    93    47    55   am
    94    47    48    2
    95    55    56    1
    96    30    27    1
    97    27    26    1
    98    27    28    1
    99    16    17    1
   100    16    15    1
   101    56    57    1
   102    18    17    2
   103    69    67    1
   104    17    19   am
   105    58    57    2
   106    29    28    2
   107    15    11   am
   108    57    59   am
   109    67    66    2
   110    67    68    1
   111    66    65    1
   112    19    20    1
   113    11    12    2
   114    11    10    1
   115    20    21    1
   116    20    23    1
   117    65    64    1
   118    59    60    1
   119    24    23    1
   120    64    63    1
   121    22    21    2
   122    10    13    1
   123    10     9    1
   124    23    25    1
   125    60    63    1
   126    60    61    1
   127    13    14    1
   128    61    62    2
