@<TRIPOS>MOLECULE
tmp/4jewB00.pdb
 74 71 0 0 0
SMALL
GASTEIGER

@<TRIPOS>ATOM
      1  N         79.0890   40.9850   37.9320 N.3    63  SER63      -0.1202
      2  CA        78.1930   42.1640   37.9130 C.3    63  SER63       0.2020
      3  C         78.8510   43.3500   37.2320 C.2    63  SER63       0.2618
      4  O         80.0660   43.4270   37.0670 O.2    63  SER63      -0.2717
      5  CB        77.6750   42.5830   39.3150 C.3    63  SER63       0.2103
      6  OG        78.5560   43.4800   39.9480 O.3    63  SER63      -0.2182
      7  N         78.0080   44.3030   36.8870 N.am   64  ASN64      -0.1974
      8  CA        78.4610   45.5070   36.2350 C.3    64  ASN64       0.1688
      9  C         79.0570   46.5590   37.1600 C.2    64  ASN64       0.2292
     10  O         79.3820   47.6480   36.7330 O.2    64  ASN64      -0.2864
     11  CB        77.3600   46.0250   35.3220 C.3    64  ASN64       0.1181
     12  CG        77.1270   45.0770   34.1690 C.2    64  ASN64       0.2629
     13  OD1       78.0490   44.8110   33.4080 O.2    64  ASN64      -0.2716
     14  ND2       75.9350   44.5120   34.0750 N.am   64  ASN64      -0.0877
     15  N         70.1280   39.9410   28.4570 N.3    91  ASN91      -0.1240
     16  CA        69.9680   38.4700   28.5140 C.3    91  ASN91       0.1653
     17  C         68.9820   37.8870   27.5590 C.2    91  ASN91       0.2266
     18  O         68.7980   36.6670   27.5390 O.2    91  ASN91      -0.2867
     19  CB        69.5550   38.0550   29.9230 C.3    91  ASN91       0.1155
     20  CG        70.4950   38.5810   30.9480 C.2    91  ASN91       0.2627
     21  OD1       71.6090   38.0650   31.0810 O.2    91  ASN91      -0.2716
     22  ND2       70.1010   39.6590   31.6540 N.am   91  ASN91      -0.0877
     23  N         64.7770   42.0240   26.4780 N.3    95  GLU95      -0.1245
     24  CA        65.5630   43.0050   27.2520 C.3    95  GLU95       0.1567
     25  C         66.3430   43.9770   26.3720 C.2    95  GLU95       0.2260
     26  O         66.4640   45.1500   26.7190 O.2    95  GLU95      -0.2867
     27  CB        66.5260   42.2940   28.1880 C.3    95  GLU95       0.0388
     28  CG        65.8550   41.6410   29.3670 C.3    95  GLU95       0.1160
     29  CD        66.8380   41.2810   30.4400 C.2    95  GLU95       0.3649
     30  OE1       67.9850   40.8880   30.1010 O.co2  95  GLU95      -0.2457
     31  OE2       66.4960   41.4670   31.6340 O.co2  95  GLU95      -0.2457
     32  N         73.5470   54.7790   35.7650 N.3   264  GLY264     -0.1225
     33  CA        72.3080   54.4270   36.4280 C.3   264  GLY264      0.1811
     34  C         71.0540   54.5940   35.5860 C.2   264  GLY264      0.2280
     35  O         69.9670   54.2950   36.0600 O.2   264  GLY264     -0.2866
     36  N         70.1660   52.7570   33.1150 N.3   266  HIS266     -0.1226
     37  CA        69.6870   51.4220   32.8130 C.3   266  HIS266      0.1752
     38  C         70.6850   50.4870   33.4400 C.2   266  HIS266      0.2597
     39  O         71.7390   50.9300   33.8980 O.2   266  HIS266     -0.2718
     40  CB        69.5960   51.2430   31.2950 C.3   266  HIS266      0.0759
     41  CG        68.7210   50.0870   30.8820 C.ar  266  HIS266      0.0818
     42  ND1       67.3810   50.1020   31.0710 N.ar  266  HIS266     -0.2268
     43  CD2       69.0230   48.8530   30.2960 C.ar  266  HIS266      0.1154
     44  CE1       66.8490   48.9390   30.6260 C.ar  266  HIS266      0.1986
     45  NE2       67.8580   48.1700   30.1600 N.ar  266  HIS266     -0.2212
     46  N         70.3840   49.1940   33.4940 N.am  267  GLY267     -0.1942
     47  CA        71.3250   48.2320   34.0590 C.3   267  GLY267      0.2014
     48  C         70.7690   46.8370   33.9690 C.2   267  GLY267      0.2640
     49  O         69.6680   46.6230   33.4410 O.2   267  GLY267     -0.2714
     50  N         71.5310   45.8810   34.4960 N.am  268  SER268     -0.1935
     51  CA        71.1650   44.4710   34.4420 C.3   268  SER268      0.2055
     52  C         72.0820   43.6960   35.3740 C.2   268  SER268      0.2644
     53  O         73.2870   43.8890   35.3320 O.2   268  SER268     -0.2714
     54  CB        71.3410   43.9320   33.0140 C.3   268  SER268      0.2130
     55  OG        71.0740   42.5380   32.9300 O.3   268  SER268     -0.2179
     56  N         71.5310   42.8040   36.1870 N.am  269  THR269     -0.1936
     57  CA        72.3820   41.9610   37.0130 C.3   269  THR269      0.2028
     58  C         73.2930   41.0930   36.1620 C.2   269  THR269      0.2642
     59  O         74.5150   41.1380   36.3130 O.2   269  THR269     -0.2714
     60  CB        71.5430   41.0780   37.9570 C.3   269  THR269      0.1808
     61  OG1       70.8230   41.9240   38.8570 O.3   269  THR269     -0.2208
     62  CG2       72.4280   40.1530   38.7860 C.3   269  THR269      0.0379
     63  N         72.7050   40.3300   35.2600 N.am  270  TYR270     -0.1973
     64  CA        73.4650   39.3190   34.5380 C.3   270  TYR270      0.1639
     65  C         74.0190   39.8690   33.2270 C.2   270  TYR270      0.2290
     66  O         74.9580   39.3260   32.6820 O.2   270  TYR270     -0.2864
     67  CB        72.5670   38.1520   34.1830 C.3   270  TYR270      0.0560
     68  CG        71.9120   37.3270   35.2790 C.ar  270  TYR270     -0.0198
     69  CD1       70.5570   37.0090   35.1810 C.ar  270  TYR270     -0.0009
     70  CD2       72.6560   36.7710   36.3250 C.ar  270  TYR270     -0.0009
     71  CE1       69.9510   36.1830   36.1100 C.ar  270  TYR270      0.0417
     72  CE2       72.0550   35.9520   37.2710 C.ar  270  TYR270      0.0417
     73  CZ        70.7080   35.6740   37.1570 C.ar  270  TYR270      0.1957
     74  OH        70.0990   34.8280   38.0410 O.3   270  TYR270     -0.2866
@<TRIPOS>BOND
     1    25    26    2
     2    25    24    1
     3    23    24    1
     4    24    27    1
     5    18    17    2
     6    17    16    1
     7    27    28    1
     8    15    16    1
     9    16    19    1
    10    28    29    1
    11    19    20    1
    12    30    29   ar
    13    45    43   ar
    14    45    44   ar
    15    43    41   ar
    16    29    31   ar
    17    44    42   ar
    18    41    42   ar
    19    41    40    1
    20    20    21    2
    21    20    22   am
    22    40    37    1
    23    66    65    2
    24    37    36    1
    25    37    38    1
    26    55    54    1
    27    54    51    1
    28    65    64    1
    29    13    12    2
    30    38    46   am
    31    38    39    2
    32    49    48    2
    33    46    47    1
    34    48    47    1
    35    48    50   am
    36    14    12   am
    37    12    11    1
    38    67    64    1
    39    67    68    1
    40    51    50    1
    41    51    52    1
    42    64    63    1
    43    69    68   ar
    44    69    71   ar
    45    63    58   am
    46    68    70   ar
    47    11     8    1
    48    53    52    2
    49    52    56   am
    50    34    35    2
    51    34    33    1
    52    32    33    1
    53    71    73   ar
    54    58    59    2
    55    58    57    1
    56    56    57    1
    57     8     7    1
    58     8     9    1
    59    70    72   ar
    60    10     9    2
    61     7     3   am
    62    57    60    1
    63     4     3    2
    64    73    72   ar
    65    73    74    1
    66     3     2    1
    67     2     1    1
    68     2     5    1
    69    60    62    1
    70    60    61    1
    71     5     6    1
