@<TRIPOS>MOLECULE
tmp/4jezA00.pdb
 125 118 0 0 0
SMALL
GASTEIGER

@<TRIPOS>ATOM
      1  N         76.2920   41.1350   43.1570 N.3    28  ILE28      -0.1245
      2  CA        75.0100   41.6410   43.6780 C.3    28  ILE28       0.1561
      3  C         74.0890   40.4460   44.0190 C.2    28  ILE28       0.2260
      4  O         72.9920   40.2790   43.4640 O.2    28  ILE28      -0.2867
      5  CB        74.3330   42.7260   42.7870 C.3    28  ILE28       0.0252
      6  CG1       75.3620   43.7660   42.2850 C.3    28  ILE28       0.0019
      7  CG2       73.2170   43.4100   43.5770 C.3    28  ILE28       0.0019
      8  CD1       74.8010   44.8310   41.3560 C.3    28  ILE28       0.0001
      9  N         65.7710   36.2370   33.5020 N.3    84  SER84      -0.1202
     10  CA        66.1890   37.2260   34.4720 C.3    84  SER84       0.2020
     11  C         65.1020   37.5510   35.4830 C.2    84  SER84       0.2619
     12  O         63.9350   37.2570   35.2640 O.2    84  SER84      -0.2717
     13  CB        66.5910   38.5260   33.7720 C.3    84  SER84       0.2103
     14  OG        65.4490   39.1360   33.1740 O.3    84  SER84      -0.2182
     15  N         65.5070   38.2060   36.5650 N.am   85  GLY85      -0.1942
     16  CA        64.5780   38.6720   37.5900 C.3    85  GLY85       0.2014
     17  C         63.5760   39.6330   36.9880 C.2    85  GLY85       0.2639
     18  O         62.3820   39.5950   37.3070 O.2    85  GLY85      -0.2714
     19  N         64.0550   40.4940   36.0990 N.am   86  THR86      -0.1950
     20  CA        63.1810   41.4630   35.4340 C.3    86  THR86       0.1897
     21  C         62.0800   40.7340   34.6650 C.2    86  THR86       0.2313
     22  O         60.8890   41.1040   34.7490 O.2    86  THR86      -0.2863
     23  CB        63.9760   42.3740   34.4920 C.3    86  THR86       0.1794
     24  OG1       64.8390   43.2050   35.2760 O.3    86  THR86      -0.2208
     25  CG2       63.0480   43.2630   33.6720 C.3    86  THR86       0.0378
     26  N         59.5580   39.0700   37.0640 N.3    89  ASN89      -0.1240
     27  CA        58.6560   40.1070   37.5770 C.3    89  ASN89       0.1653
     28  C         57.6660   40.5940   36.5410 C.2    89  ASN89       0.2266
     29  O         56.4880   40.7400   36.8490 O.2    89  ASN89      -0.2867
     30  CB        59.4440   41.2760   38.1840 C.3    89  ASN89       0.1155
     31  CG        59.9850   40.9500   39.5570 C.2    89  ASN89       0.2627
     32  OD1       59.4950   40.0410   40.2380 O.2    89  ASN89      -0.2716
     33  ND2       61.0020   41.6930   39.9790 N.am   89  ASN89      -0.0877
     34  N         62.8630   47.9310   44.2750 N.3   118  PHE118     -0.1227
     35  CA        63.5220   47.6590   43.0190 C.3   118  PHE118      0.1736
     36  C         62.9970   46.3390   42.4720 C.2   118  PHE118      0.2595
     37  O         63.0630   45.3180   43.1560 O.2   118  PHE118     -0.2718
     38  CB        65.0600   47.6490   43.1280 C.3   118  PHE118      0.0547
     39  CG        65.7250   47.3640   41.8120 C.ar  118  PHE118     -0.0202
     40  CD1       65.8080   48.3630   40.8470 C.ar  118  PHE118     -0.0042
     41  CD2       66.1720   46.0930   41.5020 C.ar  118  PHE118     -0.0042
     42  CE1       66.3690   48.1020   39.5980 C.ar  118  PHE118     -0.0003
     43  CE2       66.7290   45.8230   40.2480 C.ar  118  PHE118     -0.0003
     44  CZ        66.8270   46.8320   39.3080 C.ar  118  PHE118     -0.0000
     45  N         62.4630   46.3720   41.2440 N.am  119  HIS119     -0.1961
     46  CA        61.8760   45.1900   40.6210 C.3   119  HIS119      0.1787
     47  C         62.4220   44.9030   39.2470 C.2   119  HIS119      0.2621
     48  O         61.9720   43.9820   38.5850 O.2   119  HIS119     -0.2715
     49  CB        60.3530   45.3020   40.5730 C.3   119  HIS119      0.0785
     50  CG        59.7230   45.4500   41.9250 C.ar  119  HIS119      0.0821
     51  ND1       59.8130   44.4920   42.8730 N.ar  119  HIS119     -0.2267
     52  CD2       58.9670   46.4780   42.4690 C.ar  119  HIS119      0.1154
     53  CE1       59.1470   44.8990   43.9800 C.ar  119  HIS119      0.1986
     54  NE2       58.6450   46.1140   43.7400 N.ar  119  HIS119     -0.2212
     55  N         63.4060   45.6820   38.8210 N.am  120  GLY120     -0.1940
     56  CA        63.9860   45.5060   37.4720 C.3   120  GLY120      0.2014
     57  C         63.9910   46.7940   36.6610 C.2   120  GLY120      0.2638
     58  O         63.5510   47.8430   37.1200 O.2   120  GLY120     -0.2714
     59  N         64.4990   46.7110   35.4380 N.am  121  ARG121     -0.1977
     60  CA        64.6950   47.9330   34.6550 C.3   121  ARG121      0.1597
     61  C         63.9190   47.9490   33.3490 C.2   121  ARG121      0.2287
     62  O         64.1270   48.8310   32.5120 O.2   121  ARG121     -0.2864
     63  CB        66.1870   48.2340   34.4230 C.3   121  ARG121      0.0334
     64  CG        66.9370   48.6740   35.6670 C.3   121  ARG121      0.0492
     65  CD        66.6730   50.1590   35.9790 C.3   121  ARG121      0.2205
     66  NE        67.4620   50.9560   35.0260 N.pl3 121  ARG121     -0.0865
     67  CZ        67.0810   51.9680   34.2660 C.cat 121  ARG121      0.5346
     68  NH1       65.8420   52.4630   34.2410 N.pl3 121  ARG121      0.1354
     69  NH2       67.9610   52.5570   33.4570 N.pl3 121  ARG121      0.1354
     70  N         58.9960   43.4610   48.0770 N.3   170  GLU170     -0.1245
     71  CA        60.1990   42.6740   48.4260 C.3   170  GLU170      0.1567
     72  C         60.1620   42.4230   49.9320 C.2   170  GLU170      0.2260
     73  O         60.1390   43.3810   50.7070 O.2   170  GLU170     -0.2867
     74  CB        61.4620   43.4720   48.1400 C.3   170  GLU170      0.0388
     75  CG        61.6510   43.8490   46.6810 C.3   170  GLU170      0.1160
     76  CD        62.5950   45.0260   46.5280 C.2   170  GLU170      0.3649
     77  OE1       63.8180   44.8300   46.5370 O.co2 170  GLU170     -0.2457
     78  OE2       62.0900   46.1540   46.4300 O.co2 170  GLU170     -0.2457
     79  N         68.1170   46.7220   47.4650 N.3   175  GLU175     -0.1245
     80  CA        68.6520   47.9720   46.9150 C.3   175  GLU175      0.1567
     81  C         68.2560   49.1510   47.8030 C.2   175  GLU175      0.2260
     82  O         69.0520   50.0650   48.0230 O.2   175  GLU175     -0.2867
     83  CB        68.1770   48.1980   45.4660 C.3   175  GLU175      0.0388
     84  CG        68.5520   47.1030   44.4640 C.3   175  GLU175      0.1160
     85  CD        70.0540   46.8840   44.2790 C.2   175  GLU175      0.3649
     86  OE1       70.8000   47.8800   44.2240 O.co2 175  GLU175     -0.2457
     87  OE2       70.4810   45.7070   44.1590 O.co2 175  GLU175     -0.2457
     88  N         58.5000   39.6590   45.5470 N.3   203  ASP203     -0.1239
     89  CA        59.6850   39.6900   44.7060 C.3   203  ASP203      0.1674
     90  C         60.8280   39.1770   45.5670 C.2   203  ASP203      0.2266
     91  O         61.3170   39.8970   46.4440 O.2   203  ASP203     -0.2867
     92  CB        59.9360   41.1170   44.2110 C.3   203  ASP203      0.1410
     93  CG        61.2220   41.2460   43.4110 C.2   203  ASP203      0.3668
     94  OD1       62.0290   40.2760   43.4300 O.co2 203  ASP203     -0.2456
     95  OD2       61.4510   42.3200   42.8030 O.co2 203  ASP203     -0.2456
     96  N         63.6490   37.9340   44.2120 N.3   205  VAL205     -0.1231
     97  CA        64.8090   37.8660   43.3360 C.3   205  VAL205      0.1692
     98  C         66.1080   37.9940   44.1260 C.2   205  VAL205      0.2591
     99  O         67.0700   37.2600   43.8610 O.2   205  VAL205     -0.2718
    100  CB        64.7080   38.9100   42.2080 C.3   205  VAL205      0.0266
    101  CG1       66.0490   39.0740   41.4830 C.3   205  VAL205      0.0020
    102  CG2       63.6210   38.4890   41.2380 C.3   205  VAL205      0.0020
    103  N         66.1380   38.9120   45.0870 N.am  206  GLN206     -0.1979
    104  CA        67.3420   39.0970   45.8740 C.3   206  GLN206      0.1601
    105  C         67.3170   38.3510   47.1900 C.2   206  GLN206      0.2287
    106  O         68.3560   37.8390   47.6220 O.2   206  GLN206     -0.2864
    107  CB        67.6130   40.5720   46.1320 C.3   206  GLN206      0.0394
    108  CG        68.9680   40.8150   46.7860 C.3   206  GLN206      0.0908
    109  CD        69.3940   42.2690   46.7850 C.2   206  GLN206      0.2608
    110  OE1       70.1190   42.7100   47.6800 O.2   206  GLN206     -0.2717
    111  NE2       68.9690   43.0220   45.7630 N.am  206  GLN206     -0.0878
    112  N         65.3130   34.6360   41.1790 N.3   231  ALA231     -0.1231
    113  CA        66.3630   34.6920   40.1390 C.3   231  ALA231      0.1694
    114  C         67.6850   34.7890   40.8900 C.2   231  ALA231      0.2591
    115  O         67.7660   34.3070   42.0130 O.2   231  ALA231     -0.2718
    116  CB        66.1640   35.8910   39.2150 C.3   231  ALA231      0.0304
    117  N         68.6980   35.4090   40.2820 N.am  232  LYS232     -0.1980
    118  CA        70.0080   35.6220   40.9370 C.3   232  LYS232      0.1596
    119  C         70.5620   34.3090   41.5000 C.2   232  LYS232      0.2287
    120  O         71.0890   33.4840   40.7440 O.2   232  LYS232     -0.2864
    121  CB        69.9360   36.7260   42.0120 C.3   232  LYS232      0.0298
    122  CG        69.7210   38.1440   41.4800 C.3   232  LYS232      0.0038
    123  CD        69.8310   39.1540   42.6160 C.3   232  LYS232      0.0206
    124  CE        69.7370   40.6030   42.1370 C.3   232  LYS232      0.1093
    125  NZ        71.0040   41.0850   41.5260 N.3   232  LYS232     -0.1314
@<TRIPOS>BOND
     1    62    61    2
     2    14    13    1
     3    61    60    1
     4    69    67    1
     5     9    10    1
     6    25    23    1
     7    13    10    1
     8    68    67    1
     9    67    66    2
    10    63    60    1
    11    63    64    1
    12    10    11    1
    13    23    24    1
    14    23    20    1
    15    60    59    1
    16    21    22    2
    17    21    20    1
    18    66    65    1
    19    12    11    2
    20    20    19    1
    21    59    57   am
    22    11    15   am
    23    64    65    1
    24    19    17   am
    25    28    29    2
    26    28    27    1
    27    15    16    1
    28    57    58    2
    29    57    56    1
    30    17    18    2
    31    17    16    1
    32    26    27    1
    33    56    55    1
    34    27    30    1
    35    30    31    1
    36    48    47    2
    37    55    47   am
    38   116   113    1
    39    47    46    1
    40    44    42   ar
    41    44    43   ar
    42    31    33   am
    43    31    32    2
    44    42    40   ar
    45   113   114    1
    46   113   112    1
    47    43    41   ar
    48   117   114   am
    49   117   118    1
    50    49    46    1
    51    49    50    1
    52    46    45    1
    53   120   119    2
    54    40    39   ar
    55   114   115    2
    56   118   119    1
    57   118   121    1
    58   102   100    1
    59    45    36   am
    60     8     6    1
    61   122   121    1
    62   122   123    1
    63   101   100    1
    64    41    39   ar
    65   125   124    1
    66    39    38    1
    67    50    52   ar
    68    50    51   ar
    69   124   123    1
    70   100    97    1
    71     6     5    1
    72    52    54   ar
    73    36    35    1
    74    36    37    2
    75     5     7    1
    76     5     2    1
    77    95    93   ar
    78    51    53   ar
    79    35    38    1
    80    35    34    1
    81     1     2    1
    82    97    98    1
    83    97    96    1
    84    93    94   ar
    85    93    92    1
    86     4     3    2
    87     2     3    1
    88    54    53   ar
    89    99    98    2
    90    98   103   am
    91    87    85   ar
    92    92    89    1
    93    86    85   ar
    94    85    84    1
    95    84    83    1
    96    89    88    1
    97    89    90    1
    98   103   104    1
    99    83    80    1
   100    90    91    2
   101   111   109   am
   102   104   107    1
   103   104   105    1
   104   107   108    1
   105    78    76   ar
   106    76    77   ar
   107    76    75    1
   108    75    74    1
   109   109   108    1
   110   109   110    2
   111    80    79    1
   112    80    81    1
   113   105   106    2
   114    81    82    2
   115    70    71    1
   116    74    71    1
   117    71    72    1
   118    72    73    2
