@<TRIPOS>MOLECULE
tmp/4jf4B00.pdb
 155 153 0 0 0
SMALL
GASTEIGER

@<TRIPOS>ATOM
      1  N         18.5310   17.4760   49.1800 N.3    46  ALA46      -0.1231
      2  CA        19.8410   17.5610   49.8210 C.3    46  ALA46       0.1694
      3  C         20.7970   16.4940   49.2800 C.2    46  ALA46       0.2592
      4  O         20.9520   16.3570   48.0630 O.2    46  ALA46      -0.2718
      5  CB        19.7120   17.4760   51.3490 C.3    46  ALA46       0.0304
      6  N         21.4040   15.7260   50.1810 N.am   47  SER47      -0.1952
      7  CA        22.4760   14.7990   49.8190 C.3    47  SER47       0.1924
      8  C         22.0190   13.6250   48.9460 C.2    47  SER47       0.2314
      9  O         22.8380   13.0200   48.2490 O.2    47  SER47      -0.2863
     10  CB        23.2200   14.2960   51.0640 C.3    47  SER47       0.2116
     11  OG        24.0120   15.3330   51.6360 O.3    47  SER47      -0.2180
     12  N         33.2000   19.1550   57.3490 N.3    78  PHE78      -0.1241
     13  CA        33.4800   17.9590   58.1390 C.3    78  PHE78       0.1605
     14  C         34.9150   17.5200   57.9310 C.2    78  PHE78       0.2264
     15  O         35.4320   17.5740   56.8170 O.2    78  PHE78      -0.2867
     16  CB        32.5230   16.8230   57.7780 C.3    78  PHE78       0.0534
     17  CG        31.0920   17.1190   58.1100 C.ar   78  PHE78      -0.0203
     18  CD1       30.5560   16.7350   59.3280 C.ar   78  PHE78      -0.0042
     19  CD2       30.2870   17.7960   57.2140 C.ar   78  PHE78      -0.0042
     20  CE1       29.2400   17.0230   59.6400 C.ar   78  PHE78      -0.0003
     21  CE2       28.9700   18.0830   57.5220 C.ar   78  PHE78      -0.0003
     22  CZ        28.4460   17.6940   58.7280 C.ar   78  PHE78      -0.0000
     23  N         36.0400   14.6550   58.0150 N.3    80  ALA80      -0.1231
     24  CA        36.0470   13.4120   57.2480 C.3    80  ALA80       0.1694
     25  C         36.1440   13.6770   55.7480 C.2    80  ALA80       0.2592
     26  O         36.5880   12.8190   54.9890 O.2    80  ALA80      -0.2718
     27  CB        34.8130   12.5910   57.5650 C.3    80  ALA80       0.0304
     28  N         35.7200   14.8680   55.3270 N.am   81  TRP81      -0.1976
     29  CA        35.7860   15.2630   53.9210 C.3    81  TRP81       0.1640
     30  C         37.1920   15.7010   53.5520 C.2    81  TRP81       0.2290
     31  O         37.5240   15.8260   52.3750 O.2    81  TRP81      -0.2864
     32  CB        34.8310   16.4250   53.6360 C.3    81  TRP81       0.0576
     33  CG        33.3910   16.0990   53.8120 C.ar   81  TRP81       0.0006
     34  CD1       32.8590   14.8830   54.0980 C.ar   81  TRP81       0.0946
     35  CD2       32.2900   17.0080   53.7100 C.ar   81  TRP81       0.0152
     36  NE1       31.4890   14.9750   54.1870 N.ar   81  TRP81      -0.2442
     37  CE2       31.1160   16.2710   53.9540 C.ar   81  TRP81       0.0810
     38  CE3       32.1840   18.3780   53.4480 C.ar   81  TRP81       0.0012
     39  CZ2       29.8530   16.8470   53.9310 C.ar   81  TRP81       0.0191
     40  CZ3       30.9220   18.9530   53.4270 C.ar   81  TRP81       0.0001
     41  CH2       29.7740   18.1850   53.6620 C.ar   81  TRP81       0.0015
     42  N         29.7140    8.0190   49.7870 N.3    92  LYS92      -0.1231
     43  CA        29.5050    7.4460   51.1090 C.3    92  LYS92       0.1693
     44  C         29.6670    8.4970   52.2140 C.2    92  LYS92       0.2592
     45  O         28.8820    8.5350   53.1540 O.2    92  LYS92      -0.2718
     46  CB        30.4410    6.2560   51.3350 C.3    92  LYS92       0.0285
     47  CG        30.1540    5.4820   52.6140 C.3    92  LYS92       0.0035
     48  CD        31.2560    5.6540   53.6490 C.3    92  LYS92       0.0206
     49  CE        32.4290    4.7050   53.4060 C.3    92  LYS92       0.1093
     50  NZ        33.2070    5.0130   52.1680 N.3    92  LYS92      -0.1314
     51  N         30.6620    9.3700   52.0800 N.am   93  LEU93      -0.1966
     52  CA        30.9250   10.3870   53.0980 C.3    93  LEU93       0.1728
     53  C         30.0910   11.6440   52.8840 C.2    93  LEU93       0.2616
     54  O         30.3150   12.6510   53.5540 O.2    93  LEU93      -0.2715
     55  CB        32.4100   10.7690   53.1040 C.3    93  LEU93       0.0311
     56  CG        33.4160    9.6440   53.3410 C.3    93  LEU93       0.0022
     57  CD1       34.8320   10.1570   53.2270 C.3    93  LEU93       0.0001
     58  CD2       33.1930    9.0230   54.7030 C.3    93  LEU93       0.0001
     59  N         29.1300   11.5720   51.9600 N.am   94  SER94      -0.1950
     60  CA        28.3770   12.7470   51.4810 C.3    94  SER94       0.1924
     61  C         29.2360   13.9850   51.2460 C.2    94  SER94       0.2314
     62  O         28.8090   15.0900   51.5370 O.2    94  SER94      -0.2863
     63  CB        27.2120   13.1080   52.4070 C.3    94  SER94       0.2116
     64  OG        26.1810   12.1360   52.3570 O.3    94  SER94      -0.2180
     65  N         30.2440   16.9550   49.9710 N.3    96  VAL96      -0.1245
     66  CA        29.7090   18.0450   49.1440 C.3    96  VAL96       0.1561
     67  C         30.6910   18.7450   48.1830 C.2    96  VAL96       0.2260
     68  O         30.3430   18.9850   47.0270 O.2    96  VAL96      -0.2867
     69  CB        28.9640   19.1010   50.0170 C.3    96  VAL96       0.0252
     70  CG1       28.6840   20.3780   49.2260 C.3    96  VAL96       0.0019
     71  CG2       27.6760   18.5090   50.5620 C.3    96  VAL96       0.0019
     72  N         20.0410   22.0400   44.9050 N.3   133  TRP133     -0.1227
     73  CA        19.4990   20.8420   45.5280 C.3   133  TRP133      0.1737
     74  C         19.5220   20.9130   47.0570 C.2   133  TRP133      0.2595
     75  O         19.0850   19.9780   47.7280 O.2   133  TRP133     -0.2718
     76  CB        20.2900   19.6280   45.0690 C.3   133  TRP133      0.0564
     77  CG        21.6790   19.5920   45.6250 C.ar  133  TRP133      0.0003
     78  CD1       22.0660   19.0800   46.8300 C.ar  133  TRP133      0.0946
     79  CD2       22.8690   20.0840   45.0000 C.ar  133  TRP133      0.0152
     80  NE1       23.4230   19.2220   46.9920 N.ar  133  TRP133     -0.2442
     81  CE2       23.9380   19.8400   45.8830 C.ar  133  TRP133      0.0810
     82  CE3       23.1330   20.7160   43.7840 C.ar  133  TRP133      0.0012
     83  CZ2       25.2520   20.1950   45.5840 C.ar  133  TRP133      0.0191
     84  CZ3       24.4450   21.0700   43.4860 C.ar  133  TRP133      0.0001
     85  CH2       25.4840   20.8060   44.3810 C.ar  133  TRP133      0.0015
     86  N         20.0450   22.0140   47.5930 N.am  134  LEU134     -0.1980
     87  CA        20.2280   22.1880   49.0330 C.3   134  LEU134      0.1596
     88  C         19.2040   23.1530   49.6160 C.2   134  LEU134      0.2287
     89  O         18.5600   22.8620   50.6260 O.2   134  LEU134     -0.2864
     90  CB        21.6200   22.7600   49.3150 C.3   134  LEU134      0.0297
     91  CG        22.8630   22.0020   48.8420 C.3   134  LEU134      0.0022
     92  CD1       24.0980   22.8960   48.9400 C.3   134  LEU134      0.0001
     93  CD2       23.0600   20.7360   49.6680 C.3   134  LEU134      0.0001
     94  N         21.8010    8.6190   52.5380 N.3   185  THR185     -0.1203
     95  CA        21.2000    9.4800   53.5500 C.3   185  THR185      0.1994
     96  C         21.1890   10.9430   53.1130 C.2   185  THR185      0.2618
     97  O         21.8440   11.3410   52.1470 O.2   185  THR185     -0.2717
     98  CB        21.9540    9.4070   54.8750 C.3   185  THR185      0.1784
     99  OG1       23.2830    9.9040   54.6870 O.3   185  THR185     -0.2211
    100  CG2       22.0270    7.9770   55.3570 C.3   185  THR185      0.0376
    101  N         20.4350   11.7400   53.8490 N.am  186  GLY186     -0.1942
    102  CA        20.4150   13.1640   53.6320 C.3   186  GLY186      0.2014
    103  C         19.9320   13.8560   54.8860 C.2   186  GLY186      0.2639
    104  O         18.9860   13.3940   55.5340 O.2   186  GLY186     -0.2714
    105  N         20.5920   14.9600   55.2240 N.am  187  TRP187     -0.1959
    106  CA        20.1520   15.8220   56.3030 C.3   187  TRP187      0.1771
    107  C         20.3050   17.2700   55.8400 C.2   187  TRP187      0.2620
    108  O         21.4230   17.7540   55.6590 O.2   187  TRP187     -0.2715
    109  CB        20.9990   15.5830   57.5550 C.3   187  TRP187      0.0590
    110  CG        20.4390   16.2280   58.8020 C.ar  187  TRP187      0.0006
    111  CD1       19.6150   17.3210   58.8680 C.ar  187  TRP187      0.0946
    112  CD2       20.6440   15.8020   60.1570 C.ar  187  TRP187      0.0152
    113  NE1       19.3040   17.6000   60.1740 N.ar  187  TRP187     -0.2442
    114  CE2       19.9230   16.6840   60.9870 C.ar  187  TRP187      0.0810
    115  CE3       21.3630   14.7560   60.7490 C.ar  187  TRP187      0.0012
    116  CZ2       19.9070   16.5590   62.3760 C.ar  187  TRP187      0.0191
    117  CZ3       21.3510   14.6380   62.1190 C.ar  187  TRP187      0.0001
    118  CH2       20.6270   15.5330   62.9210 C.ar  187  TRP187      0.0015
    119  N         19.1870   17.9570   55.6360 N.am  188  ALA188     -0.1963
    120  CA        19.2460   19.3710   55.2800 C.3   188  ALA188      0.1728
    121  C         19.1240   20.1980   56.5510 C.2   188  ALA188      0.2616
    122  O         18.0340   20.3710   57.0870 O.2   188  ALA188     -0.2715
    123  CB        18.1660   19.7270   54.2950 C.3   188  ALA188      0.0334
    124  N         20.2590   20.6990   57.0260 N.am  189  MET189     -0.1977
    125  CA        20.3650   21.2310   58.3870 C.3   189  MET189      0.1605
    126  C         19.9940   22.7020   58.5400 C.2   189  MET189      0.2287
    127  O         19.6190   23.1470   59.6240 O.2   189  MET189     -0.2864
    128  CB        21.7890   21.0500   58.8970 C.3   189  MET189      0.0413
    129  CG        22.1690   19.6340   59.2150 C.3   189  MET189      0.0598
    130  SD        23.9420   19.5440   59.4610 S.3   189  MET189     -0.1393
    131  CE        24.1190   17.8290   59.9880 C.3   189  MET189      0.0692
    132  N         22.3930   11.2460   63.9620 N.3   224  ALA224     -0.1245
    133  CA        22.0910   10.9670   62.5570 C.3   224  ALA224      0.1562
    134  C         21.6430    9.5170   62.3810 C.2   224  ALA224      0.2260
    135  O         20.9580    9.1690   61.4160 O.2   224  ALA224     -0.2867
    136  CB        23.2990   11.2620   61.6910 C.3   224  ALA224      0.0290
    137  N         17.7470    7.8350   61.6920 N.3   227  ARG227     -0.1231
    138  CA        17.2020    7.4770   60.3940 C.3   227  ARG227      0.1694
    139  C         17.4030    5.9840   60.1200 C.2   227  ARG227      0.2592
    140  O         16.4450    5.2490   59.9100 O.2   227  ARG227     -0.2718
    141  CB        17.8690    8.3250   59.3070 C.3   227  ARG227      0.0321
    142  CG        17.5860    9.8300   59.4300 C.3   227  ARG227      0.0489
    143  CD        18.4960   10.6830   58.5410 C.3   227  ARG227      0.2205
    144  NE        19.9180   10.4270   58.7640 N.pl3 227  ARG227     -0.0865
    145  CZ        20.9020   11.0320   58.1030 C.cat 227  ARG227      0.5346
    146  NH1       22.1640   10.7240   58.3690 N.pl3 227  ARG227      0.1354
    147  NH2       20.6270   11.9500   57.1750 N.pl3 227  ARG227      0.1354
    148  N         18.6570    5.5460   60.1390 N.am  228  ASN228     -0.1974
    149  CA        18.9740    4.1420   59.9640 C.3   228  ASN228      0.1688
    150  C         18.2070    3.2840   60.9630 C.2   228  ASN228      0.2292
    151  O         17.6800    2.2260   60.6050 O.2   228  ASN228     -0.2864
    152  CB        20.4790    3.9150   60.1090 C.3   228  ASN228      0.1181
    153  CG        21.2940    5.0250   59.4850 C.2   228  ASN228      0.2629
    154  OD1       21.0250    6.2050   59.7110 O.2   228  ASN228     -0.2716
    155  ND2       22.2870    4.6590   58.6870 N.am  228  ASN228     -0.0877
@<TRIPOS>BOND
     1    84    82   ar
     2    84    85   ar
     3    82    79   ar
     4    85    83   ar
     5    72    73    1
     6    79    77   ar
     7    79    81   ar
     8    76    73    1
     9    76    77    1
    10    73    74    1
    11    83    81   ar
    12    77    78   ar
    13    81    80   ar
    14    78    80   ar
    15    68    67    2
    16    74    86   am
    17    74    75    2
    18    86    87    1
    19     4     3    2
    20    67    66    1
    21     9     8    2
    22    91    92    1
    23    91    90    1
    24    91    93    1
    25     8     7    1
    26    87    90    1
    27    87    88    1
    28    66    65    1
    29    66    69    1
    30     1     2    1
    31    70    69    1
    32     3     2    1
    33     3     6   am
    34    88    89    2
    35    42    43    1
    36     7     6    1
    37     7    10    1
    38     2     5    1
    39    69    71    1
    40    10    11    1
    41    43    46    1
    42    43    44    1
    43    61    60    1
    44    61    62    2
    45    46    47    1
    46    60    59    1
    47    60    63    1
    48    59    53   am
    49    51    44   am
    50    51    52    1
    51    97    96    2
    52    50    49    1
    53    44    45    2
    54    64    63    1
    55    31    30    2
    56    94    95    1
    57    47    48    1
    58    53    52    1
    59    53    54    2
    60    52    55    1
    61    55    56    1
    62    96    95    1
    63    96   101   am
    64    57    56    1
    65    56    58    1
    66    49    48    1
    67    40    38   ar
    68    40    41   ar
    69    38    35   ar
    70    95    98    1
    71    30    29    1
    72   102   101    1
    73   102   103    1
    74    32    33    1
    75    32    29    1
    76    41    39   ar
    77    35    33   ar
    78    35    37   ar
    79    33    34   ar
    80    29    28    1
    81    39    37   ar
    82    37    36   ar
    83    34    36   ar
    84   123   120    1
    85    99    98    1
    86    98   100    1
    87   103   105   am
    88   103   104    2
    89    26    25    2
    90   105   106    1
    91   120   119    1
    92   120   121    1
    93    28    25   am
    94   119   107   am
    95   108   107    2
    96    25    24    1
    97   107   106    1
    98   106   109    1
    99   121   124   am
   100   121   122    2
   101    15    14    2
   102   124   125    1
   103   147   145    1
   104    19    21   ar
   105    19    17   ar
   106    24    27    1
   107    24    23    1
   108    12    13    1
   109    21    22   ar
   110   109   110    1
   111    16    17    1
   112    16    13    1
   113    14    13    1
   114   145   146    1
   115   145   144    2
   116    17    18   ar
   117   125   126    1
   118   125   128    1
   119   126   127    2
   120   143   144    1
   121   143   142    1
   122   155   153   am
   123    22    20   ar
   124   110   111   ar
   125   110   112   ar
   126   111   113   ar
   127   128   129    1
   128   129   130    1
   129   141   142    1
   130   141   138    1
   131    18    20   ar
   132   130   131    1
   133   153   154    2
   134   153   152    1
   135   140   139    2
   136   149   152    1
   137   149   148    1
   138   149   150    1
   139   139   148   am
   140   139   138    1
   141   112   115   ar
   142   112   114   ar
   143   113   114   ar
   144   138   137    1
   145   151   150    2
   146   115   117   ar
   147   114   116   ar
   148   135   134    2
   149   136   133    1
   150   117   118   ar
   151   116   118   ar
   152   134   133    1
   153   133   132    1
