@<TRIPOS>MOLECULE
tmp/4jf6A00.pdb
 109 104 0 0 0
SMALL
GASTEIGER

@<TRIPOS>ATOM
      1  N         20.4620   40.8300    9.5330 N.3    45  SER45      -0.1217
      2  CA        19.6640   39.6470    9.8470 C.3    45  SER45       0.1889
      3  C         18.1530   39.8620    9.8700 C.2    45  SER45       0.2288
      4  O         17.3910   38.8970   10.0220 O.2    45  SER45      -0.2866
      5  CB        20.1350   39.0130   11.1550 C.3    45  SER45       0.2089
      6  OG        21.3500   38.3140   10.9380 O.3    45  SER45      -0.2183
      7  N         29.5260   31.8650   16.6950 N.3    75  PHE75      -0.1241
      8  CA        29.0740   31.6980   18.0680 C.3    75  PHE75       0.1605
      9  C         28.8550   30.2300   18.3850 C.2    75  PHE75       0.2264
     10  O         28.2330   29.5040   17.6080 O.2    75  PHE75      -0.2867
     11  CB        27.7750   32.4740   18.3130 C.3    75  PHE75       0.0534
     12  CG        27.9180   33.9630   18.1690 C.ar   75  PHE75      -0.0203
     13  CD1       27.6800   34.5810   16.9520 C.ar   75  PHE75      -0.0042
     14  CD2       28.2950   34.7450   19.2480 C.ar   75  PHE75      -0.0042
     15  CE1       27.8120   35.9620   16.8150 C.ar   75  PHE75      -0.0003
     16  CE2       28.4280   36.1200   19.1180 C.ar   75  PHE75      -0.0003
     17  CZ        28.1870   36.7300   17.9010 C.ar   75  PHE75      -0.0000
     18  N         25.6300   28.6220   17.9780 N.3    78  TRP78      -0.1241
     19  CA        25.1950   28.2450   16.6230 C.3    78  TRP78       0.1605
     20  C         25.6180   26.8340   16.2270 C.2    78  TRP78       0.2264
     21  O         25.1610   26.3170   15.2100 O.2    78  TRP78      -0.2867
     22  CB        25.7200   29.2160   15.5410 C.3    78  TRP78       0.0550
     23  CG        25.2090   30.6040   15.6470 C.ar   78  TRP78       0.0003
     24  CD1       24.3030   31.0750   16.5480 C.ar   78  TRP78       0.0946
     25  CD2       25.5890   31.7240   14.8330 C.ar   78  TRP78       0.0152
     26  NE1       24.1040   32.4180   16.3560 N.ar   78  TRP78      -0.2442
     27  CE2       24.8740   32.8410   15.3050 C.ar   78  TRP78       0.0810
     28  CE3       26.4590   31.8870   13.7510 C.ar   78  TRP78       0.0012
     29  CZ2       25.0070   34.1050   14.7420 C.ar   78  TRP78       0.0191
     30  CZ3       26.5920   33.1480   13.1860 C.ar   78  TRP78       0.0001
     31  CH2       25.8680   34.2400   13.6820 C.ar   78  TRP78       0.0015
     32  N         18.2660   32.8250   17.2830 N.3    90  LEU90      -0.1231
     33  CA        19.7070   33.0210   17.4990 C.3    90  LEU90       0.1693
     34  C         20.3980   33.8010   16.3900 C.2    90  LEU90       0.2592
     35  O         21.5900   34.0640   16.5010 O.2    90  LEU90      -0.2718
     36  CB        20.4430   31.6800   17.6450 C.3    90  LEU90       0.0284
     37  CG        19.9740   30.6600   18.6770 C.3    90  LEU90       0.0019
     38  CD1       20.5940   29.3060   18.3870 C.3    90  LEU90       0.0001
     39  CD2       20.3070   31.1030   20.0790 C.3    90  LEU90       0.0001
     40  N         19.6630   34.1670   15.3380 N.am   91  SER91      -0.1952
     41  CA        20.2420   34.8170   14.1570 C.3    91  SER91       0.1924
     42  C         21.3530   33.9540   13.5750 C.2    91  SER91       0.2314
     43  O         22.4010   34.4490   13.1600 O.2    91  SER91      -0.2863
     44  CB        20.7680   36.2220   14.4730 C.3    91  SER91       0.2116
     45  OG        19.8510   36.9610   15.2620 O.3    91  SER91      -0.2180
     46  N         23.0190   32.7840   11.0810 N.3    93  VAL93      -0.1245
     47  CA        23.3250   32.9780    9.6590 C.3    93  VAL93       0.1561
     48  C         23.5530   31.7110    8.8050 C.2    93  VAL93       0.2260
     49  O         23.0160   31.6260    7.7010 O.2    93  VAL93      -0.2867
     50  CB        24.5250   33.9520    9.4690 C.3    93  VAL93       0.0252
     51  CG1       24.7150   34.2850    8.0020 C.3    93  VAL93       0.0019
     52  CG2       24.3180   35.2100   10.2760 C.3    93  VAL93       0.0019
     53  N         24.0340   40.8280    3.9890 N.3   131  LEU131     -0.1245
     54  CA        25.0090   41.1190    5.0320 C.3   131  LEU131      0.1561
     55  C         25.9890   42.1970    4.5920 C.2   131  LEU131      0.2260
     56  O         26.3800   43.0430    5.3930 O.2   131  LEU131     -0.2867
     57  CB        25.7420   39.8460    5.4550 C.3   131  LEU131      0.0270
     58  CG        24.8810   38.9770    6.3690 C.3   131  LEU131      0.0019
     59  CD1       25.3960   37.5550    6.4310 C.3   131  LEU131      0.0001
     60  CD2       24.7900   39.6100    7.7630 C.3   131  LEU131      0.0001
     61  N         16.3110   41.2080   15.4250 N.3   182  THR182     -0.1203
     62  CA        17.4990   42.0540   15.4770 C.3   182  THR182      0.1994
     63  C         18.3330   41.8550   14.2270 C.2   182  THR182      0.2618
     64  O         18.2860   40.8060   13.5970 O.2   182  THR182     -0.2717
     65  CB        18.3940   41.7190   16.6740 C.3   182  THR182      0.1784
     66  OG1       18.8220   40.3590   16.5670 O.3   182  THR182     -0.2211
     67  CG2       17.6540   41.9040   17.9810 C.3   182  THR182      0.0376
     68  N         19.0930   42.8800   13.8780 N.am  183  GLY183     -0.1942
     69  CA        20.1360   42.7720   12.8770 C.3   183  GLY183      0.2014
     70  C         21.3850   43.5060   13.3500 C.2   183  GLY183      0.2638
     71  O         21.3000   44.4100   14.1730 O.2   183  GLY183     -0.2714
     72  N         22.5460   43.0930   12.8560 N.am  184  TRP184     -0.1973
     73  CA        23.8110   43.7720   13.1540 C.3   184  TRP184      0.1640
     74  C         24.8110   43.4340   12.0730 C.2   184  TRP184      0.2290
     75  O         25.3820   42.3520   12.0800 O.2   184  TRP184     -0.2864
     76  CB        24.3760   43.3700   14.5230 C.3   184  TRP184      0.0576
     77  CG        25.6070   44.1680   14.9500 C.ar  184  TRP184      0.0006
     78  CD1       26.4230   44.9300   14.1480 C.ar  184  TRP184      0.0946
     79  CD2       26.1430   44.2800   16.2770 C.ar  184  TRP184      0.0152
     80  NE1       27.4250   45.4880   14.8920 N.ar  184  TRP184     -0.2442
     81  CE2       27.2790   45.1080   16.2000 C.ar  184  TRP184      0.0810
     82  CE3       25.7770   43.7510   17.5190 C.ar  184  TRP184      0.0012
     83  CZ2       28.0480   45.4270   17.3190 C.ar  184  TRP184      0.0191
     84  CZ3       26.5450   44.0670   18.6290 C.ar  184  TRP184      0.0001
     85  CH2       27.6620   44.9010   18.5210 C.ar  184  TRP184      0.0015
     86  N         28.2000   43.6700   10.9340 N.3   186  MET186     -0.1245
     87  CA        29.5060   43.9480   11.5300 C.3   186  MET186      0.1570
     88  C         30.6330   44.1410   10.5050 C.2   186  MET186      0.2261
     89  O         31.6350   44.7780   10.8040 O.2   186  MET186     -0.2867
     90  CB        29.8770   42.8330   12.5120 C.3   186  MET186      0.0387
     91  CG        28.9510   42.7220   13.7160 C.3   186  MET186      0.0595
     92  SD        29.1670   41.1760   14.6210 S.3   186  MET186     -0.1393
     93  CE        28.5140   41.5830   16.2390 C.3   186  MET186      0.0692
     94  N         25.2260   43.7590   22.4450 N.3   221  ALA221     -0.1245
     95  CA        24.1430   43.6440   21.4700 C.3   221  ALA221      0.1562
     96  C         22.8250   44.1600   22.0430 C.2   221  ALA221      0.2260
     97  O         22.0580   44.8160   21.3450 O.2   221  ALA221     -0.2867
     98  CB        23.9980   42.2060   20.9710 C.3   221  ALA221      0.0290
     99  N         20.4800   47.6100   21.5570 N.3   224  ARG224     -0.1245
    100  CA        19.3420   47.7560   20.6660 C.3   224  ARG224      0.1563
    101  C         18.0620   47.5620   21.4640 C.2   224  ARG224      0.2260
    102  O         17.1390   48.3560   21.3600 O.2   224  ARG224     -0.2867
    103  CB        19.4340   46.7480   19.5170 C.3   224  ARG224      0.0307
    104  CG        20.5930   47.0240   18.5700 C.3   224  ARG224      0.0489
    105  CD        20.9030   45.8230   17.6920 C.3   224  ARG224      0.2205
    106  NE        20.9350   44.5830   18.4650 N.pl3 224  ARG224     -0.0865
    107  CZ        21.3370   43.4080   17.9860 C.cat 224  ARG224      0.5346
    108  NH1       21.3220   42.3400   18.7650 N.pl3 224  ARG224      0.1354
    109  NH2       21.7510   43.3030   16.7310 N.pl3 224  ARG224      0.1354
@<TRIPOS>BOND
     1    53    54    1
     2    55    54    1
     3    55    56    2
     4    54    57    1
     5    57    58    1
     6    58    59    1
     7    58    60    1
     8    49    48    2
     9    51    50    1
    10    48    47    1
    11    50    47    1
    12    50    52    1
    13     1     2    1
    14    47    46    1
    15     2     3    1
    16     2     5    1
    17     3     4    2
    18    88    89    2
    19    88    87    1
    20    86    87    1
    21     6     5    1
    22    87    90    1
    23    74    75    2
    24    74    73    1
    25    90    91    1
    26    72    73    1
    27    72    70   am
    28    69    70    1
    29    69    68    1
    30    73    76    1
    31    43    42    2
    32    30    31   ar
    33    30    28   ar
    34    70    71    2
    35    42    41    1
    36    64    63    2
    37    31    29   ar
    38    91    92    1
    39    28    25   ar
    40    68    63   am
    41    78    80   ar
    42    78    77   ar
    43    41    44    1
    44    41    40    1
    45    63    62    1
    46    44    45    1
    47    76    77    1
    48    92    93    1
    49    29    27   ar
    50    25    27   ar
    51    25    23   ar
    52    80    81   ar
    53    77    79   ar
    54    21    20    2
    55    27    26   ar
    56    40    34   am
    57    61    62    1
    58    62    65    1
    59    22    23    1
    60    22    19    1
    61    23    24   ar
    62    81    79   ar
    63    81    83   ar
    64    20    19    1
    65    79    82   ar
    66    26    24   ar
    67    34    35    2
    68    34    33    1
    69    66    65    1
    70    19    18    1
    71    65    67    1
    72     7     8    1
    73   109   107    1
    74    15    13   ar
    75    15    17   ar
    76    13    12   ar
    77    32    33    1
    78    83    85   ar
    79    33    36    1
    80    82    84   ar
    81    10     9    2
    82    36    37    1
    83   105   106    1
    84   105   104    1
    85    17    16   ar
    86   107   106    2
    87   107   108    1
    88     8    11    1
    89     8     9    1
    90    12    11    1
    91    12    14   ar
    92    38    37    1
    93    85    84   ar
    94   104   103    1
    95    37    39    1
    96    16    14   ar
    97   103   100    1
    98   100   101    1
    99   100    99    1
   100    98    95    1
   101    97    96    2
   102   102   101    2
   103    95    96    1
   104    95    94    1
