@<TRIPOS>MOLECULE
tmp/4jfaA00.pdb
 144 138 0 0 0
SMALL
GASTEIGER

@<TRIPOS>ATOM
      1  N          6.2540   13.7300   14.5680 N.3    62  TYR62      -0.1227
      2  CA         7.1550   13.4610   15.6820 C.3    62  TYR62       0.1736
      3  C          8.0620   14.6510   15.9210 C.2    62  TYR62       0.2596
      4  O          8.7600   15.1060   15.0120 O.2    62  TYR62      -0.2718
      5  CB         7.9830   12.1920   15.4400 C.3    62  TYR62       0.0548
      6  CG         9.2600   12.0910   16.2570 C.ar   62  TYR62      -0.0200
      7  CD1        9.2460   12.2350   17.6390 C.ar   62  TYR62      -0.0009
      8  CD2       10.4750   11.8200   15.6450 C.ar   62  TYR62      -0.0009
      9  CE1       10.4090   12.1370   18.3820 C.ar   62  TYR62       0.0417
     10  CE2       11.6430   11.7160   16.3830 C.ar   62  TYR62       0.0417
     11  CZ        11.6020   11.8750   17.7500 C.ar   62  TYR62       0.1957
     12  OH        12.7580   11.7730   18.4910 O.3    62  TYR62      -0.2866
     13  N          8.0410   15.1580   17.1490 N.am   63  THR63      -0.1939
     14  CA         9.0060   16.1720   17.5430 C.3    63  THR63       0.2028
     15  C          9.4100   15.9370   18.9880 C.2    63  THR63       0.2643
     16  O          8.8370   15.0810   19.6690 O.2    63  THR63      -0.2714
     17  CB         8.4660   17.6040   17.3480 C.3    63  THR63       0.1808
     18  OG1        9.5570   18.5340   17.3480 O.3    63  THR63      -0.2208
     19  CG2        7.4840   17.9680   18.4530 C.3    63  THR63       0.0379
     20  N         10.4040   16.6830   19.4530 N.am   64  GLY64      -0.1939
     21  CA        10.9180   16.4600   20.7860 C.3    64  GLY64       0.2014
     22  C         11.3850   17.7090   21.5020 C.2    64  GLY64       0.2639
     23  O         11.5270   18.7800   20.8990 O.2    64  GLY64      -0.2714
     24  N         11.6260   17.5600   22.7990 N.am   65  ARG65      -0.1963
     25  CA        12.0670   18.6560   23.6450 C.3    65  ARG65       0.1729
     26  C         13.1090   18.1390   24.6250 C.2    65  ARG65       0.2616
     27  O         12.9080   17.0990   25.2620 O.2    65  ARG65      -0.2715
     28  CB        10.8750   19.2460   24.4030 C.3    65  ARG65       0.0348
     29  CG        11.2360   19.9790   25.6910 C.3    65  ARG65       0.0492
     30  CD        11.9690   21.2840   25.4340 C.3    65  ARG65       0.2205
     31  NE        12.4090   21.9070   26.6800 N.pl3  65  ARG65      -0.0865
     32  CZ        13.2370   22.9450   26.7480 C.cat  65  ARG65       0.5346
     33  NH1       13.7240   23.4820   25.6390 N.pl3  65  ARG65       0.1354
     34  NH2       13.5830   23.4430   27.9260 N.pl3  65  ARG65       0.1354
     35  N         14.2270   18.8500   24.7300 N.am   66  GLY66      -0.1955
     36  CA        15.2460   18.5100   25.7030 C.3    66  GLY66       0.1869
     37  C         15.1050   19.3760   26.9400 C.2    66  GLY66       0.2309
     38  O         15.4130   20.5660   26.9000 O.2    66  GLY66      -0.2863
     39  N          8.6910   13.3850   22.0390 N.3    97  GLN97      -0.1245
     40  CA         9.7140   12.7910   22.8910 C.3    97  GLN97       0.1566
     41  C         10.2780   13.8160   23.8590 C.2    97  GLN97       0.2260
     42  O         10.6670   14.9130   23.4570 O.2    97  GLN97      -0.2867
     43  CB        10.8580   12.2210   22.0480 C.3    97  GLN97       0.0367
     44  CG        12.0730   11.7770   22.8650 C.3    97  GLN97       0.0905
     45  CD        13.1590   11.1610   22.0070 C.2    97  GLN97       0.2608
     46  OE1       13.9340   11.8670   21.3600 O.2    97  GLN97      -0.2717
     47  NE2       13.2220    9.8340   21.9970 N.am   97  GLN97      -0.0878
     48  N         13.4870   14.0850   25.9360 N.3    99  SER99      -0.1217
     49  CA        14.7890   13.4530   26.0800 C.3    99  SER99       0.1889
     50  C         15.4500   13.8220   27.4010 C.2    99  SER99       0.2288
     51  O         16.4560   14.5410   27.4280 O.2    99  SER99      -0.2866
     52  CB        15.6910   13.8390   24.9090 C.3    99  SER99       0.2089
     53  OG        15.6860   15.2400   24.6950 O.3    99  SER99      -0.2183
     54  N         18.9600   12.3520   27.5190 N.3   102  GLU102     -0.1231
     55  CA        19.9430   13.2060   26.8600 C.3   102  GLU102      0.1699
     56  C         20.4640   14.2640   27.8210 C.2   102  GLU102      0.2592
     57  O         21.6660   14.3490   28.0710 O.2   102  GLU102     -0.2718
     58  CB        19.3330   13.8840   25.6290 C.3   102  GLU102      0.0402
     59  CG        20.2930   14.8200   24.8970 C.3   102  GLU102      0.1161
     60  CD        19.5920   15.7170   23.8900 C.2   102  GLU102      0.3649
     61  OE1       18.3410   15.7740   23.8990 O.co2 102  GLU102     -0.2457
     62  OE2       20.2960   16.3680   23.0900 O.co2 102  GLU102     -0.2457
     63  N         19.5520   15.0630   28.3650 N.am  103  LYS103     -0.1980
     64  CA        19.9360   16.1470   29.2630 C.3   103  LYS103      0.1596
     65  C         20.6150   15.6570   30.5410 C.2   103  LYS103      0.2287
     66  O         21.4430   16.3650   31.1130 O.2   103  LYS103     -0.2864
     67  CB        18.7340   17.0380   29.5840 C.3   103  LYS103      0.0298
     68  CG        18.1570   17.7400   28.3590 C.3   103  LYS103      0.0038
     69  CD        19.2750   18.3030   27.4890 C.3   103  LYS103      0.0206
     70  CE        18.7370   18.8690   26.1840 C.3   103  LYS103      0.1093
     71  NZ        19.8380   19.2480   25.2530 N.3   103  LYS103     -0.1314
     72  N         22.9780    8.0450   22.8340 N.3   181  TYR181     -0.1241
     73  CA        21.7130    8.7860   22.7310 C.3   181  TYR181      0.1605
     74  C         21.0660    8.9830   21.3460 C.2   181  TYR181      0.2264
     75  O         19.8630    8.7550   21.2110 O.2   181  TYR181     -0.2867
     76  CB        21.7750   10.1380   23.4580 C.3   181  TYR181      0.0534
     77  CG        20.5620   10.9810   23.1470 C.ar  181  TYR181     -0.0201
     78  CD1       20.6470   12.0730   22.2960 C.ar  181  TYR181     -0.0009
     79  CD2       19.3180   10.6510   23.6650 C.ar  181  TYR181     -0.0009
     80  CE1       19.5310   12.8280   21.9920 C.ar  181  TYR181      0.0417
     81  CE2       18.1980   11.3980   23.3650 C.ar  181  TYR181      0.0417
     82  CZ        18.3110   12.4850   22.5300 C.ar  181  TYR181      0.1957
     83  OH        17.1970   13.2320   22.2280 O.3   181  TYR181     -0.2866
     84  N         16.7940    9.3270   19.7750 N.3   185  GLN185     -0.1245
     85  CA        16.0750   10.4340   19.1510 C.3   185  GLN185      0.1566
     86  C         15.6290   10.0410   17.7430 C.2   185  GLN185      0.2260
     87  O         14.6170   10.5280   17.2330 O.2   185  GLN185     -0.2867
     88  CB        16.9490   11.6920   19.1100 C.3   185  GLN185      0.0367
     89  CG        16.2890   12.8840   18.4280 C.3   185  GLN185      0.0905
     90  CD        16.9640   14.1980   18.7580 C.2   185  GLN185      0.2608
     91  OE1       17.4780   14.3860   19.8610 O.2   185  GLN185     -0.2717
     92  NE2       16.9590   15.1210   17.8040 N.am  185  GLN185     -0.0878
     93  N          8.7090   15.0610   10.7680 N.3   206  VAL206     -0.1245
     94  CA         9.5230   15.5920   11.8500 C.3   206  VAL206      0.1561
     95  C          9.8190   17.0770   11.6290 C.2   206  VAL206      0.2260
     96  O         10.7330   17.4360   10.8740 O.2   206  VAL206     -0.2867
     97  CB        10.8410   14.8070   11.9960 C.3   206  VAL206      0.0252
     98  CG1       11.5530   15.1930   13.2840 C.3   206  VAL206      0.0019
     99  CG2       10.5680   13.3100   11.9760 C.3   206  VAL206      0.0019
    100  N         11.3440   20.4650   13.0350 N.3   208  GLN208     -0.1231
    101  CA        12.4910   20.6330   13.9160 C.3   208  GLN208      0.1698
    102  C         13.2330   21.9430   13.6820 C.2   208  GLN208      0.2592
    103  O         13.1030   22.5710   12.6260 O.2   208  GLN208     -0.2718
    104  CB        13.4610   19.4670   13.7110 C.3   208  GLN208      0.0381
    105  CG        14.1370   19.4740   12.3430 C.3   208  GLN208      0.0905
    106  CD        14.6310   18.1050   11.9240 C.2   208  GLN208      0.2608
    107  OE1       13.8600   17.1450   11.8700 O.2   208  GLN208     -0.2717
    108  NE2       15.9200   18.0080   11.6150 N.am  208  GLN208     -0.0878
    109  N         14.0110   22.3500   14.6790 N.am  209  GLY209     -0.1957
    110  CA        14.9670   23.4220   14.4940 C.3   209  GLY209      0.1869
    111  C         16.0440   22.9190   13.5520 C.2   209  GLY209      0.2309
    112  O         16.2780   21.7110   13.4600 O.2   209  GLY209     -0.2863
    113  N         18.8910   20.3020   14.5200 N.3   212  GLN212     -0.1245
    114  CA        18.5970   18.9120   14.8450 C.3   212  GLN212      0.1566
    115  C         18.8410   18.0150   13.6380 C.2   212  GLN212      0.2260
    116  O         18.7610   16.7910   13.7410 O.2   212  GLN212     -0.2867
    117  CB        17.1450   18.7690   15.3170 C.3   212  GLN212      0.0367
    118  CG        16.8330   19.4930   16.6220 C.3   212  GLN212      0.0905
    119  CD        17.6450   18.9640   17.7870 C.2   212  GLN212      0.2608
    120  OE1       17.7010   17.7560   18.0220 O.2   212  GLN212     -0.2717
    121  NE2       18.2820   19.8680   18.5240 N.am  212  GLN212     -0.0878
    122  N         20.8070   14.5000   13.3660 N.3   215  TYR215     -0.1227
    123  CA        20.0840   13.3360   13.8680 C.3   215  TYR215      0.1736
    124  C         19.2910   12.6680   12.7550 C.2   215  TYR215      0.2595
    125  O         19.2860   11.4420   12.6190 O.2   215  TYR215     -0.2718
    126  CB        19.1050   13.7500   14.9690 C.3   215  TYR215      0.0548
    127  CG        19.7400   14.1370   16.2840 C.ar  215  TYR215     -0.0200
    128  CD1       19.9070   15.4710   16.6340 C.ar  215  TYR215     -0.0009
    129  CD2       20.1560   13.1690   17.1860 C.ar  215  TYR215     -0.0009
    130  CE1       20.4800   15.8270   17.8410 C.ar  215  TYR215      0.0417
    131  CE2       20.7310   13.5170   18.3940 C.ar  215  TYR215      0.0417
    132  CZ        20.8900   14.8460   18.7150 C.ar  215  TYR215      0.1957
    133  OH        21.4610   15.1940   19.9160 O.3   215  TYR215     -0.2866
    134  N         18.6190   13.4920   11.9580 N.am  216  PHE216     -0.1976
    135  CA        17.6380   13.0010   11.0030 C.3   216  PHE216      0.1639
    136  C         18.1910   12.8820    9.5870 C.2   216  PHE216      0.2290
    137  O         17.5740   12.2630    8.7180 O.2   216  PHE216     -0.2864
    138  CB        16.3830   13.8700   11.0690 C.3   216  PHE216      0.0560
    139  CG        15.7890   13.9380   12.4480 C.ar  216  PHE216     -0.0200
    140  CD1       15.1770   12.8220   13.0010 C.ar  216  PHE216     -0.0042
    141  CD2       15.8630   15.1000   13.2020 C.ar  216  PHE216     -0.0042
    142  CE1       14.6380   12.8660   14.2750 C.ar  216  PHE216     -0.0003
    143  CE2       15.3220   15.1510   14.4790 C.ar  216  PHE216     -0.0003
    144  CZ        14.7100   14.0310   15.0130 C.ar  216  PHE216     -0.0000
@<TRIPOS>BOND
     1   137   136    2
     2   136   135    1
     3    93    94    1
     4    96    95    2
     5   135   138    1
     6   135   134    1
     7   138   139    1
     8   108   106   am
     9    95    94    1
    10    94    97    1
    11   107   106    2
    12   106   105    1
    13   134   124   am
    14    99    97    1
    15    97    98    1
    16   105   104    1
    17   139   140   ar
    18   139   141   ar
    19   125   124    2
    20   103   102    2
    21   124   123    1
    22   140   142   ar
    23   100   101    1
    24   141   143   ar
    25   122   123    1
    26   112   111    2
    27   111   110    1
    28   115   116    2
    29   115   114    1
    30   102   101    1
    31   102   109   am
    32   104   101    1
    33   123   126    1
    34   142   144   ar
    35   143   144   ar
    36   110   109    1
    37   113   114    1
    38     1     2    1
    39   114   117    1
    40   126   127    1
    41     4     3    2
    42   117   118    1
    43     5     2    1
    44     5     6    1
    45     8     6   ar
    46     8    10   ar
    47     2     3    1
    48     3    13   am
    49     6     7   ar
    50   127   128   ar
    51   127   129   ar
    52    10    11   ar
    53   118   119    1
    54   128   130   ar
    55    13    14    1
    56   129   131   ar
    57    87    86    2
    58    18    17    1
    59    17    14    1
    60    17    19    1
    61    14    15    1
    62     7     9   ar
    63    86    85    1
    64    11     9   ar
    65    11    12    1
    66   119   120    2
    67   119   121   am
    68    92    90   am
    69   130   132   ar
    70   131   132   ar
    71    89    90    1
    72    89    88    1
    73   132   133    1
    74    90    91    2
    75    15    20   am
    76    15    16    2
    77    88    85    1
    78    85    84    1
    79    20    21    1
    80    21    22    1
    81    23    22    2
    82    75    74    2
    83    74    73    1
    84    46    45    2
    85    22    24   am
    86    80    78   ar
    87    80    82   ar
    88    47    45   am
    89    45    44    1
    90    39    40    1
    91    43    44    1
    92    43    40    1
    93    83    82    1
    94    78    77   ar
    95    82    81   ar
    96    73    72    1
    97    73    76    1
    98    24    25    1
    99    40    41    1
   100    62    60   ar
   101    77    76    1
   102    77    79   ar
   103    81    79   ar
   104    42    41    2
   105    25    28    1
   106    25    26    1
   107    60    61   ar
   108    60    59    1
   109    28    29    1
   110    26    35   am
   111    26    27    2
   112    53    52    1
   113    35    36    1
   114    59    58    1
   115    52    49    1
   116    71    70    1
   117    30    29    1
   118    30    31    1
   119    58    55    1
   120    33    32    1
   121    36    37    1
   122    48    49    1
   123    49    50    1
   124    70    69    1
   125    31    32    2
   126    32    34    1
   127    55    54    1
   128    55    56    1
   129    38    37    2
   130    50    51    2
   131    69    68    1
   132    56    57    2
   133    56    63   am
   134    68    67    1
   135    63    64    1
   136    64    67    1
   137    64    65    1
   138    65    66    2
