@<TRIPOS>MOLECULE
tmp/4jfgC00.pdb
 126 116 0 0 0
SMALL
GASTEIGER

@<TRIPOS>ATOM
      1  N        -24.7460  -44.0290  -38.6140 N.3    58  VAL58      -0.1231
      2  CA       -24.6820  -44.8220  -37.3860 C.3    58  VAL58       0.1692
      3  C        -23.2670  -45.3290  -37.0880 C.2    58  VAL58       0.2592
      4  O        -22.8220  -45.3010  -35.9420 O.2    58  VAL58      -0.2718
      5  CB       -25.6790  -45.9980  -37.4080 C.3    58  VAL58       0.0266
      6  CG1      -25.5560  -46.8260  -36.1410 C.3    58  VAL58       0.0020
      7  CG2      -27.0980  -45.4800  -37.5570 C.3    58  VAL58       0.0020
      8  N        -22.5530  -45.7740  -38.1180 N.am   59  THR59      -0.1953
      9  CA       -21.1850  -46.2640  -37.9290 C.3    59  THR59       0.1897
     10  C        -20.2120  -45.1280  -37.6360 C.2    59  THR59       0.2313
     11  O        -19.2410  -45.3010  -36.9000 O.2    59  THR59      -0.2863
     12  CB       -20.6780  -47.0730  -39.1470 C.3    59  THR59       0.1794
     13  OG1      -20.6660  -46.2370  -40.3130 O.3    59  THR59      -0.2208
     14  CG2      -21.5680  -48.2870  -39.3890 C.3    59  THR59       0.0378
     15  N        -16.3060  -47.6460  -29.9770 N.3    63  GLN63      -0.1245
     16  CA       -16.2140  -49.0300  -29.5200 C.3    63  GLN63       0.1566
     17  C        -15.5710  -49.1460  -28.1390 C.2    63  GLN63       0.2260
     18  O        -15.2930  -50.2480  -27.6680 O.2    63  GLN63      -0.2867
     19  CB       -15.4470  -49.8950  -30.5270 C.3    63  GLN63       0.0367
     20  CG       -16.1560  -50.1080  -31.8570 C.3    63  GLN63       0.0905
     21  CD       -15.5790  -49.2580  -32.9740 C.2    63  GLN63       0.2608
     22  OE1      -15.0380  -49.7810  -33.9490 O.2    63  GLN63      -0.2717
     23  NE2      -15.6980  -47.9420  -32.8420 N.am   63  GLN63      -0.0878
     24  N        -11.7580  -43.5700  -41.5050 N.3    90  ARG90      -0.1245
     25  CA       -12.6070  -44.5080  -42.2270 C.3    90  ARG90       0.1563
     26  C        -12.8850  -44.1040  -43.6620 C.2    90  ARG90       0.2260
     27  O        -13.2290  -42.9610  -43.9380 O.2    90  ARG90      -0.2867
     28  CB       -13.9430  -44.6870  -41.5010 C.3    90  ARG90       0.0307
     29  CG       -13.9520  -45.8010  -40.4810 C.3    90  ARG90       0.0489
     30  CD       -15.2970  -45.8990  -39.7980 C.3    90  ARG90       0.2205
     31  NE       -15.4110  -47.1020  -38.9790 N.pl3  90  ARG90      -0.0865
     32  CZ       -16.4050  -47.3250  -38.1260 C.cat  90  ARG90       0.5346
     33  NH1      -17.3630  -46.4190  -37.9770 N.pl3  90  ARG90       0.1354
     34  NH2      -16.4340  -48.4460  -37.4170 N.pl3  90  ARG90       0.1354
     35  N        -31.2780  -50.3770  -38.4290 N.3   139  PHE139     -0.1227
     36  CA       -29.8890  -50.7540  -38.6270 C.3   139  PHE139      0.1736
     37  C        -29.7120  -52.2400  -38.3370 C.2   139  PHE139      0.2595
     38  O        -30.2860  -52.7680  -37.3810 O.2   139  PHE139     -0.2718
     39  CB       -28.9700  -49.9190  -37.7350 C.3   139  PHE139      0.0547
     40  CG       -27.5930  -49.7230  -38.3020 C.ar  139  PHE139     -0.0202
     41  CD1      -27.3560  -48.7370  -39.2440 C.ar  139  PHE139     -0.0042
     42  CD2      -26.5390  -50.5270  -37.8990 C.ar  139  PHE139     -0.0042
     43  CE1      -26.0880  -48.5540  -39.7770 C.ar  139  PHE139     -0.0003
     44  CE2      -25.2710  -50.3450  -38.4250 C.ar  139  PHE139     -0.0003
     45  CZ       -25.0450  -49.3560  -39.3630 C.ar  139  PHE139     -0.0000
     46  N        -28.9190  -52.9070  -39.1680 N.am  140  ASN140     -0.1974
     47  CA       -28.7730  -54.3530  -39.0900 C.3   140  ASN140      0.1688
     48  C        -27.6190  -54.8120  -38.2080 C.2   140  ASN140      0.2292
     49  O        -26.6290  -54.1040  -38.0370 O.2   140  ASN140     -0.2864
     50  CB       -28.6460  -54.9480  -40.4920 C.3   140  ASN140      0.1181
     51  CG       -29.8720  -54.6880  -41.3440 C.2   140  ASN140      0.2629
     52  OD1      -30.9760  -54.4950  -40.8220 O.2   140  ASN140     -0.2716
     53  ND2      -29.6900  -54.6850  -42.6590 N.am  140  ASN140     -0.0877
     54  N        -24.3650  -56.7500  -37.1900 N.3   142  HIS142     -0.1241
     55  CA       -23.1640  -57.1070  -37.9340 C.3   142  HIS142      0.1621
     56  C        -22.0830  -57.6830  -37.0310 C.2   142  HIS142      0.2264
     57  O        -22.1200  -57.5090  -35.8130 O.2   142  HIS142     -0.2867
     58  CB       -22.6210  -55.8760  -38.6680 C.3   142  HIS142      0.0745
     59  CG       -23.5950  -55.2630  -39.6150 C.ar  142  HIS142      0.0817
     60  ND1      -23.8940  -53.9160  -39.6140 N.ar  142  HIS142     -0.2268
     61  CD2      -24.3510  -55.8090  -40.6050 C.ar  142  HIS142      0.1154
     62  CE1      -24.7790  -53.6610  -40.5550 C.ar  142  HIS142      0.1986
     63  NE2      -25.0740  -54.7890  -41.1720 N.ar  142  HIS142     -0.2212
     64  N        -18.0940  -57.3960  -36.6170 N.3   144  VAL144     -0.1245
     65  CA       -16.9000  -56.6520  -36.9970 C.3   144  VAL144      0.1561
     66  C        -15.6500  -57.4300  -36.6230 C.2   144  VAL144      0.2260
     67  O        -15.5650  -57.9820  -35.5370 O.2   144  VAL144     -0.2867
     68  CB       -16.8380  -55.3070  -36.2650 C.3   144  VAL144      0.0252
     69  CG1      -16.2340  -54.2460  -37.1600 C.3   144  VAL144      0.0019
     70  CG2      -18.2240  -54.8980  -35.7890 C.3   144  VAL144      0.0019
     71  N        -15.1680  -54.1050  -42.9880 N.3   159  PHE159     -0.1241
     72  CA       -16.4570  -54.7870  -42.8700 C.3   159  PHE159      0.1605
     73  C        -17.5320  -54.3400  -43.8590 C.2   159  PHE159      0.2264
     74  O        -17.3260  -53.4200  -44.6450 O.2   159  PHE159     -0.2867
     75  CB       -16.9780  -54.7260  -41.4240 C.3   159  PHE159      0.0534
     76  CG       -17.0800  -53.3320  -40.8600 C.ar  159  PHE159     -0.0203
     77  CD1      -15.9920  -52.7360  -40.2380 C.ar  159  PHE159     -0.0042
     78  CD2      -18.2710  -52.6250  -40.9360 C.ar  159  PHE159     -0.0042
     79  CE1      -16.0890  -51.4580  -39.7120 C.ar  159  PHE159     -0.0003
     80  CE2      -18.3720  -51.3490  -40.4140 C.ar  159  PHE159     -0.0003
     81  CZ       -17.2790  -50.7660  -39.7980 C.ar  159  PHE159     -0.0000
     82  N        -21.5350  -53.1630  -44.1250 N.3   161  ILE161     -0.1245
     83  CA       -22.7790  -52.7350  -43.5070 C.3   161  ILE161      0.1561
     84  C        -23.9050  -52.9360  -44.5070 C.2   161  ILE161      0.2260
     85  O        -23.7410  -52.6690  -45.6980 O.2   161  ILE161     -0.2867
     86  CB       -22.7170  -51.2560  -43.0760 C.3   161  ILE161      0.0252
     87  CG1      -21.6150  -51.0550  -42.0340 C.3   161  ILE161      0.0019
     88  CG2      -24.0580  -50.7860  -42.5310 C.3   161  ILE161      0.0019
     89  CD1      -21.9010  -51.7090  -40.7070 C.3   161  ILE161      0.0001
     90  N        -16.2180  -58.1000  -32.7230 N.3   195  LEU195     -0.1245
     91  CA       -17.3250  -57.4740  -32.0150 C.3   195  LEU195      0.1561
     92  C        -18.6360  -57.8720  -32.6820 C.2   195  LEU195      0.2260
     93  O        -18.6730  -58.1740  -33.8750 O.2   195  LEU195     -0.2867
     94  CB       -17.1880  -55.9500  -32.0400 C.3   195  LEU195      0.0270
     95  CG       -15.8960  -55.3280  -31.5110 C.3   195  LEU195      0.0019
     96  CD1      -15.8680  -53.8370  -31.8070 C.3   195  LEU195      0.0001
     97  CD2      -15.7460  -55.5780  -30.0210 C.3   195  LEU195      0.0001
     98  N        -22.6970  -56.4120  -32.9680 N.3   197  THR197     -0.1218
     99  CA       -23.4900  -55.2100  -32.7480 C.3   197  THR197      0.1862
    100  C        -24.9740  -55.4550  -32.9830 C.2   197  THR197      0.2287
    101  O        -25.3540  -56.2280  -33.8600 O.2   197  THR197     -0.2866
    102  CB       -23.0540  -54.0850  -33.6970 C.3   197  THR197      0.1770
    103  OG1      -23.5250  -54.3710  -35.0210 O.3   197  THR197     -0.2211
    104  CG2      -21.5360  -53.9600  -33.7140 C.3   197  THR197      0.0375
    105  N        -28.1640  -52.6720  -33.1470 N.3   199  SER199     -0.1217
    106  CA       -28.6080  -51.2920  -32.9970 C.3   199  SER199      0.1889
    107  C        -30.1190  -51.1270  -33.1800 C.2   199  SER199      0.2288
    108  O        -30.7260  -51.7540  -34.0460 O.2   199  SER199     -0.2866
    109  CB       -27.8560  -50.3770  -33.9690 C.3   199  SER199      0.2089
    110  OG       -26.4680  -50.3680  -33.6890 O.3   199  SER199     -0.2183
    111  N        -27.6270  -48.9170  -28.6320 N.3   216  GLU216     -0.1245
    112  CA       -26.6720  -49.8390  -29.2550 C.3   216  GLU216      0.1567
    113  C        -26.0670  -50.8720  -28.2970 C.2   216  GLU216      0.2260
    114  O        -25.4360  -50.5190  -27.3050 O.2   216  GLU216     -0.2867
    115  CB       -25.5630  -49.0370  -29.9470 C.3   216  GLU216      0.0388
    116  CG       -24.5050  -49.8720  -30.6440 C.3   216  GLU216      0.1160
    117  CD       -23.4970  -49.0180  -31.3930 C.2   216  GLU216      0.3649
    118  OE1      -23.9250  -48.1510  -32.1860 O.co2 216  GLU216     -0.2457
    119  OE2      -22.2760  -49.2030  -31.1830 O.co2 216  GLU216     -0.2457
    120  N        -23.2860  -53.7000  -28.0060 N.3   218  VAL218     -0.1245
    121  CA       -22.1050  -54.2980  -28.6280 C.3   218  VAL218      0.1561
    122  C        -21.3040  -55.1700  -27.6640 C.2   218  VAL218      0.2260
    123  O        -20.8850  -54.7110  -26.6010 O.2   218  VAL218     -0.2867
    124  CB       -21.1690  -53.2320  -29.2330 C.3   218  VAL218      0.0252
    125  CG1      -19.9730  -53.9030  -29.8950 C.3   218  VAL218      0.0019
    126  CG2      -21.9150  -52.3730  -30.2370 C.3   218  VAL218      0.0019
@<TRIPOS>BOND
     1    85    84    2
     2    74    73    2
     3    84    83    1
     4    82    83    1
     5    27    26    2
     6    73    72    1
     7    26    25    1
     8    83    86    1
     9    86    88    1
    10    86    87    1
    11    71    72    1
    12    72    75    1
    13    53    51   am
    14    25    24    1
    15    25    28    1
    16    87    89    1
    17    28    29    1
    18    75    76    1
    19    51    52    2
    20    51    50    1
    21    63    61   ar
    22    63    62   ar
    23    78    76   ar
    24    78    80   ar
    25    76    77   ar
    26    61    59   ar
    27    62    60   ar
    28    50    47    1
    29    29    30    1
    30    80    81   ar
    31    13    12    1
    32    77    79   ar
    33    81    79   ar
    34    30    31    1
    35    43    45   ar
    36    43    41   ar
    37    59    60   ar
    38    59    58    1
    39    14    12    1
    40    45    44   ar
    41    41    40   ar
    42    46    47    1
    43    46    37   am
    44    12     9    1
    45    47    48    1
    46    31    32    2
    47    58    55    1
    48    36    35    1
    49    36    37    1
    50    36    39    1
    51     1     2    1
    52    44    42   ar
    53    37    38    2
    54    40    42   ar
    55    40    39    1
    56    48    49    2
    57    32    33    1
    58    32    34    1
    59     8     9    1
    60     8     3   am
    61    55    54    1
    62    55    56    1
    63     9    10    1
    64    10    11    2
    65     7     5    1
    66     5     2    1
    67     5     6    1
    68     2     3    1
    69    69    68    1
    70     3     4    2
    71    56    57    2
    72    65    66    1
    73    65    64    1
    74    65    68    1
    75    66    67    2
    76    68    70    1
    77   103   102    1
    78   108   107    2
    79   109   110    1
    80   109   106    1
    81    22    21    2
    82    93    92    2
    83   101   100    2
    84   104   102    1
    85   102    99    1
    86   107   106    1
    87   105   106    1
    88   100    99    1
    89    21    23   am
    90    21    20    1
    91    98    99    1
    92    90    91    1
    93    92    91    1
    94   118   117   ar
    95    94    91    1
    96    94    95    1
    97    20    19    1
    98    96    95    1
    99    95    97    1
   100   117   119   ar
   101   117   116    1
   102   116   115    1
   103    19    16    1
   104   126   124    1
   105    15    16    1
   106   115   112    1
   107   125   124    1
   108    16    17    1
   109   112   111    1
   110   112   113    1
   111   124   121    1
   112   121   120    1
   113   121   122    1
   114   113   114    2
   115    17    18    2
   116   122   123    2
