@<TRIPOS>MOLECULE
tmp/4jfiA00.pdb
 152 151 0 0 0
SMALL
GASTEIGER

@<TRIPOS>ATOM
      1  N         23.4670    9.3630  -10.9900 N.3    45  TYR45      -0.1241
      2  CA        23.5590   10.8160  -11.0930 C.3    45  TYR45       0.1605
      3  C         22.5240   11.3710  -11.9950 C.2    45  TYR45       0.2264
      4  O         21.9900   10.7100  -12.9030 O.2    45  TYR45      -0.2867
      5  CB        24.9370   11.2280  -11.5420 C.3    45  TYR45       0.0534
      6  CG        25.2220   10.9460  -12.9870 C.ar   45  TYR45      -0.0201
      7  CD1       25.0400   11.9410  -13.9700 C.ar   45  TYR45      -0.0009
      8  CD2       25.6830    9.7490  -13.4020 C.ar   45  TYR45      -0.0009
      9  CE1       25.2660   11.6640  -15.3280 C.ar   45  TYR45       0.0417
     10  CE2       25.9510    9.4850  -14.7630 C.ar   45  TYR45       0.0417
     11  CZ        25.7140   10.4620  -15.6640 C.ar   45  TYR45       0.1957
     12  OH        26.0180   10.1240  -16.9920 O.3    45  TYR45      -0.2866
     13  N         20.8340   17.2970  -19.0130 N.3    55  PHE55      -0.1227
     14  CA        21.5690   16.7140  -20.0850 C.3    55  PHE55       0.1736
     15  C         21.8150   15.2340  -19.9020 C.2    55  PHE55       0.2595
     16  O         22.1020   14.5600  -20.8950 O.2    55  PHE55      -0.2718
     17  CB        22.8260   17.4910  -20.4000 C.3    55  PHE55       0.0547
     18  CG        23.8930   17.4300  -19.3470 C.ar   55  PHE55      -0.0202
     19  CD1       24.8030   16.4120  -19.2700 C.ar   55  PHE55      -0.0042
     20  CD2       23.9800   18.4430  -18.3970 C.ar   55  PHE55      -0.0042
     21  CE1       25.8010   16.4330  -18.2460 C.ar   55  PHE55      -0.0003
     22  CE2       24.9230   18.4200  -17.4240 C.ar   55  PHE55      -0.0003
     23  CZ        25.8570   17.4230  -17.3740 C.ar   55  PHE55      -0.0000
     24  N         21.7140   14.6920  -18.6800 N.am   56  ASP56      -0.1974
     25  CA        21.7940   13.2890  -18.5330 C.3    56  ASP56       0.1709
     26  C         21.3120   12.8260  -17.2130 C.2    56  ASP56       0.2293
     27  O         21.2720   13.5600  -16.2700 O.2    56  ASP56      -0.2864
     28  CB        23.2070   12.8170  -18.7120 C.3    56  ASP56       0.1436
     29  CG        23.2300   11.3650  -19.1170 C.2    56  ASP56       0.3671
     30  OD1       22.2570   10.8410  -19.7180 O.co2  56  ASP56      -0.2456
     31  OD2       24.2190   10.7530  -18.8650 O.co2  56  ASP56      -0.2456
     32  N         18.5760    5.4180  -17.4560 N.3    61  ARG61      -0.1245
     33  CA        19.1730    4.2670  -18.1490 C.3    61  ARG61       0.1563
     34  C         19.0180    2.9630  -17.4130 C.2    61  ARG61       0.2260
     35  O         19.3740    1.9200  -17.9210 O.2    61  ARG61      -0.2867
     36  CB        20.7170    4.4960  -18.3390 C.3    61  ARG61       0.0307
     37  CG        21.0510    5.4130  -19.4710 C.3    61  ARG61       0.0489
     38  CD        22.5170    5.3900  -19.7020 C.3    61  ARG61       0.2205
     39  NE        23.3530    5.9610  -18.6570 N.pl3  61  ARG61      -0.0865
     40  CZ        23.7340    7.2460  -18.5790 C.cat  61  ARG61       0.5346
     41  NH1       23.3610    8.0730  -19.5020 N.pl3  61  ARG61       0.1354
     42  NH2       24.4460    7.6560  -17.5760 N.pl3  61  ARG61       0.1354
     43  N         26.4450    4.4010  -13.3110 N.3    65  PHE65      -0.1241
     44  CA        27.6710    4.7770  -14.0080 C.3    65  PHE65       0.1605
     45  C         28.8430    4.3120  -13.2070 C.2    65  PHE65       0.2264
     46  O         28.8870    4.5080  -11.9830 O.2    65  PHE65      -0.2867
     47  CB        27.6820    6.2740  -14.2060 C.3    65  PHE65       0.0534
     48  CG        28.8580    6.7740  -14.9920 C.ar   65  PHE65      -0.0203
     49  CD1       28.8800    6.7070  -16.3340 C.ar   65  PHE65      -0.0042
     50  CD2       29.9350    7.2770  -14.3520 C.ar   65  PHE65      -0.0042
     51  CE1       29.9610    7.0500  -17.0160 C.ar   65  PHE65      -0.0003
     52  CE2       31.0510    7.6530  -15.0020 C.ar   65  PHE65      -0.0003
     53  CZ        31.1190    7.5500  -16.3790 C.ar   65  PHE65      -0.0000
     54  N         39.1150    9.4800  -15.8640 N.3    73  GLN73      -0.1231
     55  CA        38.0780    8.8870  -16.6810 C.3    73  GLN73       0.1698
     56  C         36.8360    9.6990  -16.7220 C.2    73  GLN73       0.2592
     57  O         35.9310    9.4320  -17.5070 O.2    73  GLN73      -0.2718
     58  CB        37.7490    7.4950  -16.2020 C.3    73  GLN73       0.0381
     59  CG        38.9210    6.5200  -16.3560 C.3    73  GLN73       0.0905
     60  CD        38.6070    5.1130  -15.8660 C.2    73  GLN73       0.2608
     61  OE1       37.5410    4.8190  -15.3720 O.2    73  GLN73      -0.2717
     62  NE2       39.6240    4.2190  -15.9930 N.am   73  GLN73      -0.0878
     63  N         36.7620   10.6940  -15.8630 N.am   74  VAL74      -0.1966
     64  CA        35.6310   11.6040  -15.6930 C.3    74  VAL74       0.1727
     65  C         36.2100   13.0030  -15.5200 C.2    74  VAL74       0.2616
     66  O         37.4280   13.1610  -15.3500 O.2    74  VAL74      -0.2715
     67  CB        34.7680   11.2630  -14.4640 C.3    74  VAL74       0.0290
     68  CG1       34.0610    9.9020  -14.6750 C.3    74  VAL74       0.0023
     69  CG2       35.6430   11.2380  -13.2050 C.3    74  VAL74       0.0023
     70  N         35.3820   14.0200  -15.6160 N.am   75  ILE75      -0.1977
     71  CA        35.7950   15.3770  -15.4010 C.3    75  ILE75       0.1596
     72  C         36.4420   15.5230  -14.0260 C.2    75  ILE75       0.2287
     73  O         36.1090   14.8080  -13.0590 O.2    75  ILE75      -0.2864
     74  CB        34.6320   16.3810  -15.6250 C.3    75  ILE75       0.0276
     75  CG1       33.4670   16.1050  -14.7410 C.3    75  ILE75       0.0022
     76  CG2       34.2740   16.4470  -17.1270 C.3    75  ILE75       0.0022
     77  CD1       32.4340   17.2540  -14.7420 C.3    75  ILE75       0.0001
     78  N         34.3580   15.5400  -10.8250 N.3    78  TRP78      -0.1241
     79  CA        33.9070   14.2430  -10.3830 C.3    78  TRP78       0.1605
     80  C         35.0040   13.4960   -9.6310 C.2    78  TRP78       0.2264
     81  O         34.7270   12.8520   -8.5950 O.2    78  TRP78      -0.2867
     82  CB        33.3560   13.4070  -11.5040 C.3    78  TRP78       0.0550
     83  CG        31.9250   13.5940  -11.7890 C.ar   78  TRP78       0.0003
     84  CD1       31.1930   14.7520  -11.9720 C.ar   78  TRP78       0.0946
     85  CD2       30.9820   12.5630  -11.8370 C.ar   78  TRP78       0.0152
     86  NE1       29.8940   14.4620  -12.1820 N.ar   78  TRP78      -0.2442
     87  CE2       29.7350   13.1000  -12.0790 C.ar   78  TRP78       0.0810
     88  CE3       31.0990   11.1980  -11.6180 C.ar   78  TRP78       0.0012
     89  CZ2       28.5750   12.3030  -12.1160 C.ar   78  TRP78       0.0191
     90  CZ3       29.9760   10.4010  -11.6630 C.ar   78  TRP78       0.0001
     91  CH2       28.7220   10.9580  -11.9190 C.ar   78  TRP78       0.0015
     92  N         34.3200   20.7170  -18.7320 N.3   101  TYR101     -0.1241
     93  CA        34.6690   20.6410  -20.1500 C.3   101  TYR101      0.1605
     94  C         35.2540   21.9200  -20.7050 C.2   101  TYR101      0.2264
     95  O         35.5480   21.9860  -21.9280 O.2   101  TYR101     -0.2867
     96  CB        33.4690   20.1720  -20.9880 C.3   101  TYR101      0.0534
     97  CG        32.9610   18.8280  -20.5570 C.ar  101  TYR101     -0.0201
     98  CD1       33.4980   17.6230  -21.0300 C.ar  101  TYR101     -0.0009
     99  CD2       31.9110   18.7360  -19.6520 C.ar  101  TYR101     -0.0009
    100  CE1       33.0240   16.3910  -20.6380 C.ar  101  TYR101      0.0417
    101  CE2       31.4220   17.5060  -19.2410 C.ar  101  TYR101      0.0417
    102  CZ        31.9870   16.3400  -19.7250 C.ar  101  TYR101      0.1957
    103  OH        31.4950   15.1120  -19.3420 O.3   101  TYR101     -0.2866
    104  N         31.5430   19.9710  -25.0790 N.3   106  SER106     -0.1202
    105  CA        31.5010   18.6250  -25.5970 C.3   106  SER106      0.2020
    106  C         30.1910   18.4680  -26.3380 C.2   106  SER106      0.2619
    107  O         29.1130   18.3610  -25.7070 O.2   106  SER106     -0.2717
    108  CB        31.5780   17.6110  -24.5020 C.3   106  SER106      0.2103
    109  OG        31.5600   16.3260  -25.0280 O.3   106  SER106     -0.2182
    110  N         30.2850   18.4250  -27.6690 N.am  107  LEU107     -0.1966
    111  CA        29.1310   18.2380  -28.4510 C.3   107  LEU107      0.1713
    112  C         28.6360   16.8120  -28.3310 C.2   107  LEU107      0.2458
    113  O         29.4270   15.8970  -28.2380 O.2   107  LEU107     -0.2730
    114  CB        29.4000   18.5700  -29.9110 C.3   107  LEU107      0.0310
    115  CG        29.3740   20.0880  -30.1280 C.3   107  LEU107      0.0022
    116  CD1       30.0810   20.3030  -31.5140 C.3   107  LEU107      0.0001
    117  CD2       27.9350   20.7010  -30.1280 C.3   107  LEU107      0.0001
    118  N         27.3060   16.6190  -28.3440 N.am  108  PRO108     -0.2716
    119  CA        26.2600   17.6390  -28.6400 C.3   108  PRO108      0.1536
    120  C         25.7400   18.3540  -27.4270 C.2   108  PRO108      0.2598
    121  O         25.0570   19.3340  -27.5840 O.2   108  PRO108     -0.2715
    122  CB        25.1300   16.7980  -29.2640 C.3   108  PRO108      0.0310
    123  CG        25.2580   15.5120  -28.5820 C.3   108  PRO108      0.0237
    124  CD        26.7500   15.2540  -28.4080 C.3   108  PRO108      0.0939
    125  N         26.0070   17.8370  -26.2310 N.am  109  LYS109     -0.1964
    126  CA        25.2740   18.2850  -25.0600 C.3   109  LYS109      0.1728
    127  C         25.8120   19.4880  -24.3070 C.2   109  LYS109      0.2616
    128  O         25.0370   20.2440  -23.6850 O.2   109  LYS109     -0.2715
    129  CB        25.1710   17.1130  -24.0530 C.3   109  LYS109      0.0311
    130  CG        24.6820   15.8270  -24.6380 C.3   109  LYS109      0.0038
    131  CD        23.7730   15.0880  -23.7140 C.3   109  LYS109      0.0206
    132  CE        22.7380   14.2520  -24.4360 C.3   109  LYS109      0.1093
    133  NZ        21.3940   14.5300  -23.8090 N.3   109  LYS109     -0.1314
    134  N         27.1200   19.6560  -24.2890 N.am  110  ILE110     -0.1977
    135  CA        27.7290   20.5940  -23.3520 C.3   110  ILE110      0.1596
    136  C         28.3000   21.8150  -24.0840 C.2   110  ILE110      0.2287
    137  O         29.2210   21.6630  -24.8610 O.2   110  ILE110     -0.2864
    138  CB        28.8490   19.9370  -22.5010 C.3   110  ILE110      0.0276
    139  CG1       28.5260   18.5510  -21.9370 C.3   110  ILE110      0.0022
    140  CG2       29.3370   20.9130  -21.4450 C.3   110  ILE110      0.0022
    141  CD1       27.5610   18.5740  -20.9200 C.3   110  ILE110      0.0001
    142  N         25.4530   18.6310  -10.7440 N.3   118  PHE118     -0.1241
    143  CA        25.1460   17.2530  -10.6170 C.3   118  PHE118      0.1605
    144  C         24.5750   16.9210   -9.2410 C.2   118  PHE118      0.2264
    145  O         25.0220   17.4400   -8.2450 O.2   118  PHE118     -0.2867
    146  CB        26.4000   16.3520  -10.7830 C.3   118  PHE118      0.0534
    147  CG        27.0060   16.3770  -12.1650 C.ar  118  PHE118     -0.0203
    148  CD1       26.5940   15.4760  -13.1390 C.ar  118  PHE118     -0.0042
    149  CD2       27.9720   17.3040  -12.4790 C.ar  118  PHE118     -0.0042
    150  CE1       27.1770   15.4420  -14.3930 C.ar  118  PHE118     -0.0003
    151  CE2       28.5590   17.2610  -13.7740 C.ar  118  PHE118     -0.0003
    152  CZ        28.1630   16.3330  -14.7160 C.ar  118  PHE118     -0.0000
@<TRIPOS>BOND
     1   116   115    1
     2   117   115    1
     3   115   114    1
     4   114   111    1
     5   122   119    1
     6   122   123    1
     7   119   118    1
     8   119   120    1
     9   123   124    1
    10   111   112    1
    11   111   110    1
    12   124   118    1
    13   118   112   am
    14   112   113    2
    15   110   106   am
    16   121   120    2
    17   120   125   am
    18   106   107    2
    19   106   105    1
    20   125   126    1
    21   105   104    1
    22   105   108    1
    23   126   127    1
    24   126   129    1
    25   109   108    1
    26   137   136    2
    27   130   129    1
    28   130   131    1
    29   132   133    1
    30   132   131    1
    31   127   134   am
    32   127   128    2
    33   134   135    1
    34   136   135    1
    35   135   138    1
    36   138   139    1
    37   138   140    1
    38   139   141    1
    39    95    94    2
    40    98   100   ar
    41    98    97   ar
    42    96    97    1
    43    96    93    1
    44    16    15    2
    45    94    93    1
    46   100   102   ar
    47    97    99   ar
    48    17    14    1
    49    17    18    1
    50    93    92    1
    51    14    15    1
    52    14    13    1
    53    15    24   am
    54   102   103    1
    55   102   101   ar
    56    30    29   ar
    57    38    37    1
    58    38    39    1
    59    99   101   ar
    60    41    40    1
    61    37    36    1
    62    18    19   ar
    63    18    20   ar
    64    19    21   ar
    65    29    31   ar
    66    29    28    1
    67    28    25    1
    68    24    25    1
    69    39    40    2
    70    40    42    1
    71    25    26    1
    72    20    22   ar
    73    36    33    1
    74    21    23   ar
    75    33    32    1
    76    33    34    1
    77    35    34    2
    78    57    56    2
    79    22    23   ar
    80    26    27    2
    81    76    74    1
    82    51    53   ar
    83    51    49   ar
    84    12    11    1
    85    56    55    1
    86    56    63   am
    87    55    58    1
    88    55    54    1
    89    53    52   ar
    90    59    58    1
    91    59    60    1
    92    49    48   ar
    93    62    60   am
    94    60    61    2
    95    63    64    1
    96    64    65    1
    97    64    67    1
    98    11     9   ar
    99    11    10   ar
   100    74    71    1
   101    74    75    1
   102    70    65   am
   103    70    71    1
   104    65    66    2
   105    71    72    1
   106     9     7   ar
   107    52    50   ar
   108    48    50   ar
   109    48    47    1
   110    10     8   ar
   111    77    75    1
   112   152   150   ar
   113   152   151   ar
   114    68    67    1
   115    67    69    1
   116   150   148   ar
   117    47    44    1
   118    72    73    2
   119    44    43    1
   120    44    45    1
   121     7     6   ar
   122   151   149   ar
   123     8     6   ar
   124    45    46    2
   125   148   147   ar
   126     6     5    1
   127     4     3    2
   128   149   147   ar
   129    86    87   ar
   130    86    84   ar
   131   147   146    1
   132    89    87   ar
   133    89    91   ar
   134    87    85   ar
   135     3     2    1
   136    84    83   ar
   137    91    90   ar
   138    85    83   ar
   139    85    88   ar
   140    83    82    1
   141    90    88   ar
   142     5     2    1
   143    82    79    1
   144     2     1    1
   145    78    79    1
   146   146   143    1
   147   142   143    1
   148   143   144    1
   149    79    80    1
   150    80    81    2
   151   144   145    2
