@<TRIPOS>MOLECULE
tmp/4jfkA00.pdb
 159 159 0 0 0
SMALL
GASTEIGER

@<TRIPOS>ATOM
      1  N          2.6390  -17.6650  -11.3680 N.3    45  TYR45      -0.1241
      2  CA         2.7420  -16.2240  -11.4530 C.3    45  TYR45       0.1605
      3  C          1.7340  -15.6440  -12.4060 C.2    45  TYR45       0.2264
      4  O          1.1940  -16.3080  -13.3000 O.2    45  TYR45      -0.2867
      5  CB         4.1380  -15.7920  -11.9180 C.3    45  TYR45       0.0534
      6  CG         4.4250  -16.0790  -13.3770 C.ar   45  TYR45      -0.0201
      7  CD1        4.3090  -15.1080  -14.3580 C.ar   45  TYR45      -0.0009
      8  CD2        4.8080  -17.3520  -13.7810 C.ar   45  TYR45      -0.0009
      9  CE1        4.5650  -15.4000  -15.6960 C.ar   45  TYR45       0.0417
     10  CE2        5.0730  -17.6410  -15.1130 C.ar   45  TYR45       0.0417
     11  CZ         4.9500  -16.6780  -16.0650 C.ar   45  TYR45       0.1957
     12  OH         5.2430  -17.0170  -17.3700 O.3    45  TYR45      -0.2866
     13  N         -0.0480   -9.6420  -19.1700 N.3    55  PHE55      -0.1227
     14  CA         0.7340  -10.1560  -20.2810 C.3    55  PHE55       0.1736
     15  C          1.0980  -11.6260  -20.1610 C.2    55  PHE55       0.2595
     16  O          1.5320  -12.2120  -21.1550 O.2    55  PHE55      -0.2718
     17  CB         1.9790   -9.3000  -20.5470 C.3    55  PHE55       0.0547
     18  CG         2.9780   -9.3070  -19.4480 C.ar   55  PHE55      -0.0202
     19  CD1        3.9360  -10.2970  -19.3440 C.ar   55  PHE55      -0.0042
     20  CD2        2.9700   -8.3080  -18.4980 C.ar   55  PHE55      -0.0042
     21  CE1        4.8400  -10.2870  -18.2890 C.ar   55  PHE55      -0.0003
     22  CE2        3.8880   -8.2880  -17.4660 C.ar   55  PHE55      -0.0003
     23  CZ         4.8250   -9.2790  -17.3700 C.ar   55  PHE55      -0.0000
     24  N          0.9190  -12.2400  -18.9920 N.am   56  ASP56      -0.1974
     25  CA         1.2510  -13.6520  -18.8560 C.3    56  ASP56       0.1709
     26  C          0.6680  -14.1880  -17.5640 C.2    56  ASP56       0.2293
     27  O          0.4410  -13.4460  -16.6080 O.2    56  ASP56      -0.2864
     28  CB         2.7840  -13.8220  -18.8560 C.3    56  ASP56       0.1436
     29  CG         3.2410  -15.2130  -19.1930 C.2    56  ASP56       0.3671
     30  OD1        2.4280  -16.0740  -19.5210 O.co2  56  ASP56      -0.2456
     31  OD2        4.4570  -15.4290  -19.1480 O.co2  56  ASP56      -0.2456
     32  N          5.7090  -22.6190  -13.7220 N.3    65  PHE65      -0.1241
     33  CA         6.9050  -22.2250  -14.4070 C.3    65  PHE65       0.1605
     34  C          8.0940  -22.6980  -13.5690 C.2    65  PHE65       0.2264
     35  O          8.1390  -22.4980  -12.3520 O.2    65  PHE65      -0.2867
     36  CB         6.9090  -20.7190  -14.6100 C.3    65  PHE65       0.0534
     37  CG         8.1070  -20.2330  -15.3430 C.ar   65  PHE65      -0.0203
     38  CD1        8.1920  -20.3490  -16.7060 C.ar   65  PHE65      -0.0042
     39  CD2        9.1750  -19.6920  -14.6620 C.ar   65  PHE65      -0.0042
     40  CE1        9.3270  -19.9160  -17.3700 C.ar   65  PHE65      -0.0003
     41  CE2       10.3060  -19.2530  -15.3160 C.ar   65  PHE65      -0.0003
     42  CZ        10.3820  -19.3640  -16.6610 C.ar   65  PHE65      -0.0000
     43  N         20.3840  -16.5520  -14.3140 N.3    72  GLY72      -0.1210
     44  CA        20.0130  -15.6860  -15.4280 C.3    72  GLY72       0.1956
     45  C         19.1180  -16.3630  -16.4400 C.2    72  GLY72       0.2612
     46  O         19.1350  -16.0220  -17.6180 O.2    72  GLY72      -0.2717
     47  N         18.3210  -17.3290  -15.9960 N.am   73  GLN73      -0.1965
     48  CA        17.3230  -17.9610  -16.8560 C.3    73  GLN73       0.1733
     49  C         16.0460  -17.1550  -16.9070 C.2    73  GLN73       0.2616
     50  O         15.1550  -17.4520  -17.6860 O.2    73  GLN73      -0.2715
     51  CB        17.0120  -19.3680  -16.3620 C.3    73  GLN73       0.0408
     52  CG        18.1910  -20.2820  -16.4880 C.3    73  GLN73       0.0908
     53  CD        17.9100  -21.7100  -16.0840 C.2    73  GLN73       0.2608
     54  OE1       16.8090  -22.0590  -15.6410 O.2    73  GLN73      -0.2717
     55  NE2       18.9240  -22.5540  -16.2160 N.am   73  GLN73      -0.0878
     56  N         15.9680  -16.1440  -16.0530 N.am   74  VAL74      -0.1963
     57  CA        14.8320  -15.2700  -15.9210 C.3    74  VAL74       0.1727
     58  C         15.3630  -13.8460  -15.7520 C.2    74  VAL74       0.2616
     59  O         16.5530  -13.6540  -15.5190 O.2    74  VAL74      -0.2715
     60  CB        13.9590  -15.6470  -14.7010 C.3    74  VAL74       0.0290
     61  CG1       13.2380  -16.9790  -14.9180 C.3    74  VAL74       0.0023
     62  CG2       14.7750  -15.6710  -13.4300 C.3    74  VAL74       0.0023
     63  N         14.4810  -12.8560  -15.8330 N.am   75  ILE75      -0.1963
     64  CA        14.8710  -11.4830  -15.5850 C.3    75  ILE75       0.1727
     65  C         15.4890  -11.3350  -14.1910 C.2    75  ILE75       0.2616
     66  O         15.1990  -12.0880  -13.2500 O.2    75  ILE75      -0.2715
     67  CB        13.7040  -10.4920  -15.7920 C.3    75  ILE75       0.0290
     68  CG1       12.5030  -10.8150  -14.8950 C.3    75  ILE75       0.0022
     69  CG2       13.3230  -10.4300  -17.2650 C.3    75  ILE75       0.0023
     70  CD1       11.4350   -9.7420  -14.9110 C.3    75  ILE75       0.0001
     71  N         16.3370  -10.3280  -14.0670 N.am   76  LYS76      -0.1977
     72  CA        17.0600  -10.1090  -12.8390 C.3    76  LYS76       0.1596
     73  C         16.1340   -9.9800  -11.6390 C.2    76  LYS76       0.2287
     74  O         16.4280  -10.5230  -10.5630 O.2    76  LYS76      -0.2864
     75  CB        17.9340   -8.8670  -12.9490 C.3    76  LYS76       0.0298
     76  CG        19.1340   -9.0000  -13.8530 C.3    76  LYS76       0.0038
     77  CD        19.8560   -7.6780  -14.0450 C.3    76  LYS76       0.0206
     78  CE        21.0360   -7.8150  -15.0100 C.3    76  LYS76       0.1093
     79  NZ        21.5270   -6.5150  -15.5480 N.3    76  LYS76      -0.1314
     80  N         13.4140  -11.4230  -10.9930 N.3    78  TRP78      -0.1241
     81  CA        12.9620  -12.7360  -10.5430 C.3    78  TRP78       0.1605
     82  C         14.0630  -13.4950   -9.8210 C.2    78  TRP78       0.2264
     83  O         13.8070  -14.1330   -8.7980 O.2    78  TRP78      -0.2867
     84  CB        12.4510  -13.5500  -11.7170 C.3    78  TRP78       0.0550
     85  CG        11.0210  -13.3530  -12.0380 C.ar   78  TRP78       0.0003
     86  CD1       10.3230  -12.1950  -12.1900 C.ar   78  TRP78       0.0946
     87  CD2       10.1160  -14.3990  -12.2320 C.ar   78  TRP78       0.0152
     88  NE1        9.0100  -12.4720  -12.4880 N.ar   78  TRP78      -0.2442
     89  CE2        8.8600  -13.8310  -12.5130 C.ar   78  TRP78       0.0810
     90  CE3       10.2450  -15.7850  -12.1780 C.ar   78  TRP78       0.0012
     91  CZ2        7.7310  -14.6090  -12.7360 C.ar   78  TRP78       0.0191
     92  CZ3        9.1390  -16.5640  -12.4020 C.ar   78  TRP78       0.0001
     93  CH2        7.8910  -15.9770  -12.6770 C.ar   78  TRP78       0.0015
     94  N         14.4170   -5.9590  -15.6110 N.3   100  ALA100     -0.1231
     95  CA        13.4630   -6.6890  -16.4300 C.3   100  ALA100      0.1694
     96  C         13.9820   -6.6960  -17.8820 C.2   100  ALA100      0.2592
     97  O         15.0750   -7.2180  -18.1230 O.2   100  ALA100     -0.2718
     98  CB        12.0310   -6.1310  -16.2520 C.3   100  ALA100      0.0304
     99  N         13.2440   -6.1260  -18.8260 N.am  101  TYR101     -0.1976
    100  CA        13.5870   -6.2170  -20.2420 C.3   101  TYR101      0.1639
    101  C         14.2010   -4.9410  -20.7940 C.2   101  TYR101      0.2290
    102  O         14.4780   -4.8550  -22.0050 O.2   101  TYR101     -0.2864
    103  CB        12.3810   -6.6670  -21.0760 C.3   101  TYR101      0.0560
    104  CG        11.9670   -8.0570  -20.7400 C.ar  101  TYR101     -0.0198
    105  CD1       12.5870   -9.1420  -21.3380 C.ar  101  TYR101     -0.0009
    106  CD2       10.9920   -8.2990  -19.7930 C.ar  101  TYR101     -0.0009
    107  CE1       12.2190  -10.4360  -21.0230 C.ar  101  TYR101      0.0417
    108  CE2       10.6220   -9.5990  -19.4730 C.ar  101  TYR101      0.0417
    109  CZ        11.2590  -10.6540  -20.0870 C.ar  101  TYR101      0.1957
    110  OH        10.9390  -11.9500  -19.7880 O.3   101  TYR101     -0.2866
    111  N         10.2900   -7.0170  -24.9300 N.3   106  SER106     -0.1202
    112  CA        10.1940   -8.4140  -25.3250 C.3   106  SER106      0.2020
    113  C          8.9170   -8.5800  -26.1300 C.2   106  SER106      0.2619
    114  O          7.8180   -8.5570  -25.5800 O.2   106  SER106     -0.2717
    115  CB        10.1890   -9.3050  -24.0880 C.3   106  SER106      0.2103
    116  OG        10.2210  -10.6800  -24.4390 O.3   106  SER106     -0.2182
    117  N          9.0830   -8.7340  -27.4440 N.am  107  LEU107     -0.1966
    118  CA         7.9460   -8.8710  -28.3560 C.3   107  LEU107      0.1713
    119  C          7.2810  -10.2190  -28.2060 C.2   107  LEU107      0.2458
    120  O          7.9730  -11.2200  -28.0370 O.2   107  LEU107     -0.2730
    121  CB         8.3740   -8.6960  -29.8190 C.3   107  LEU107      0.0310
    122  CG         8.2400   -7.2700  -30.3350 C.3   107  LEU107      0.0022
    123  CD1        9.1950   -6.3870  -29.6010 C.3   107  LEU107      0.0001
    124  CD2        8.5340   -7.2170  -31.8200 C.3   107  LEU107      0.0001
    125  N          5.9400  -10.2650  -28.3260 N.am  108  PRO108     -0.2716
    126  CA         5.0610   -9.1580  -28.7120 C.3   108  PRO108      0.1536
    127  C          4.4490   -8.2940  -27.6050 C.2   108  PRO108      0.2598
    128  O          3.8370   -7.2860  -27.9090 O.2   108  PRO108     -0.2715
    129  CB         3.9230   -9.8810  -29.4380 C.3   108  PRO108      0.0310
    130  CG         3.8330  -11.1650  -28.7470 C.3   108  PRO108      0.0237
    131  CD         5.2500  -11.5610  -28.4740 C.3   108  PRO108      0.0939
    132  N          4.6340   -8.6630  -26.3450 N.am  109  LYS109     -0.1964
    133  CA         3.8230   -8.1100  -25.2660 C.3   109  LYS109      0.1728
    134  C          4.4430   -6.9790  -24.4320 C.2   109  LYS109      0.2616
    135  O          3.7100   -6.1590  -23.8850 O.2   109  LYS109     -0.2715
    136  CB         3.4110   -9.2510  -24.3340 C.3   109  LYS109      0.0311
    137  CG         2.7740  -10.4270  -25.0710 C.3   109  LYS109      0.0038
    138  CD         2.2900  -11.5100  -24.1280 C.3   109  LYS109      0.0206
    139  CE         1.5180  -12.5780  -24.8880 C.3   109  LYS109      0.1093
    140  NZ         1.2640  -13.7820  -24.0600 N.3   109  LYS109     -0.1314
    141  N          5.7670   -6.9410  -24.3110 N.am  110  ILE110     -0.1977
    142  CA         6.4030   -6.0310  -23.3490 C.3   110  ILE110      0.1596
    143  C          7.1140   -4.9120  -24.0910 C.2   110  ILE110      0.2287
    144  O          8.0530   -5.1630  -24.8520 O.2   110  ILE110     -0.2864
    145  CB         7.3610   -6.8080  -22.4330 C.3   110  ILE110      0.0276
    146  CG1        6.5620   -7.8660  -21.6420 C.3   110  ILE110      0.0022
    147  CG2        8.0720   -5.8660  -21.4570 C.3   110  ILE110      0.0022
    148  CD1        7.4050   -8.7580  -20.7710 C.3   110  ILE110      0.0001
    149  N          4.4160   -8.2870  -10.8880 N.3   118  PHE118     -0.1241
    150  CA         4.1490   -9.7080  -10.7960 C.3   118  PHE118      0.1605
    151  C          3.5470  -10.0760   -9.4580 C.2   118  PHE118      0.2264
    152  O          3.9430   -9.5330   -8.4150 O.2   118  PHE118     -0.2867
    153  CB         5.4280  -10.5420  -10.9350 C.3   118  PHE118      0.0534
    154  CG         6.0650  -10.4760  -12.2840 C.ar  118  PHE118     -0.0203
    155  CD1        5.7010  -11.3600  -13.2970 C.ar  118  PHE118     -0.0042
    156  CD2        7.0720   -9.5570  -12.5390 C.ar  118  PHE118     -0.0042
    157  CE1        6.3210  -11.3070  -14.5480 C.ar  118  PHE118     -0.0003
    158  CE2        7.6900   -9.5140  -13.7910 C.ar  118  PHE118     -0.0003
    159  CZ         7.3030  -10.3970  -14.7800 C.ar  118  PHE118     -0.0000
@<TRIPOS>BOND
     1   124   122    1
     2   122   121    1
     3   122   123    1
     4   121   118    1
     5   129   130    1
     6   129   126    1
     7   130   131    1
     8   126   125    1
     9   126   127    1
    10   131   125    1
    11   118   119    1
    12   118   117    1
    13   125   119   am
    14   119   120    2
    15   128   127    2
    16   127   132   am
    17   117   113   am
    18   132   133    1
    19   113   114    2
    20   113   112    1
    21   112   111    1
    22   112   115    1
    23   133   134    1
    24   133   136    1
    25   137   136    1
    26   137   138    1
    27   139   138    1
    28   139   140    1
    29   144   143    2
    30   116   115    1
    31   134   141   am
    32   134   135    2
    33   141   142    1
    34   143   142    1
    35   142   145    1
    36   145   146    1
    37   145   147    1
    38   102   101    2
    39   146   148    1
    40   105   107   ar
    41   105   104   ar
    42    16    15    2
    43   103   104    1
    44   103   100    1
    45   107   109   ar
    46   101   100    1
    47   104   106   ar
    48    17    14    1
    49    17    18    1
    50    14    15    1
    51    14    13    1
    52   100    99    1
    53    15    24   am
    54   109   110    1
    55   109   108   ar
    56   106   108   ar
    57    30    29   ar
    58    18    19   ar
    59    18    20   ar
    60    19    21   ar
    61    29    31   ar
    62    29    28    1
    63    24    25    1
    64    28    25    1
    65    25    26    1
    66    99    96   am
    67    20    22   ar
    68    21    23   ar
    69    97    96    2
    70    96    95    1
    71    50    49    2
    72    46    45    2
    73    26    27    2
    74    22    23   ar
    75    40    38   ar
    76    40    42   ar
    77    12    11    1
    78    69    67    1
    79    49    48    1
    80    49    56   am
    81    48    51    1
    82    48    47    1
    83    38    37   ar
    84    42    41   ar
    85    52    51    1
    86    52    53    1
    87    45    47   am
    88    45    44    1
    89    95    98    1
    90    95    94    1
    91    55    53   am
    92    53    54    2
    93    11     9   ar
    94    11    10   ar
    95    56    57    1
    96    57    58    1
    97    57    60    1
    98    63    58   am
    99    63    64    1
   100    67    64    1
   101    67    68    1
   102    58    59    2
   103     9     7   ar
   104    64    65    1
   105    79    78    1
   106    44    43    1
   107    37    39   ar
   108    37    36    1
   109    41    39   ar
   110    10     8   ar
   111    78    77    1
   112    61    60    1
   113    70    68    1
   114   159   157   ar
   115   159   158   ar
   116    60    62    1
   117    36    33    1
   118   157   155   ar
   119    33    32    1
   120    33    34    1
   121     7     6   ar
   122    65    71   am
   123    65    66    2
   124    71    72    1
   125    77    76    1
   126    76    75    1
   127   158   156   ar
   128     8     6   ar
   129    34    35    2
   130     6     5    1
   131     4     3    2
   132   155   154   ar
   133    75    72    1
   134    72    73    1
   135    91    93   ar
   136    91    89   ar
   137    93    92   ar
   138   156   154   ar
   139    89    88   ar
   140    89    87   ar
   141    88    86   ar
   142     3     2    1
   143    92    90   ar
   144   154   153    1
   145    87    90   ar
   146    87    85   ar
   147    86    85   ar
   148    85    84    1
   149     5     2    1
   150    84    81    1
   151    73    74    2
   152     2     1    1
   153    80    81    1
   154   153   150    1
   155   149   150    1
   156   150   151    1
   157    81    82    1
   158    82    83    2
   159   151   152    2
