@<TRIPOS>MOLECULE
tmp/4jfmA00.pdb
 152 149 0 0 0
SMALL
GASTEIGER

@<TRIPOS>ATOM
      1  N          2.6390   17.8330   11.2770 N.3    45  TYR45      -0.1241
      2  CA         2.7100   16.3700   11.3460 C.3    45  TYR45       0.1605
      3  C          1.6760   15.8100   12.3100 C.2    45  TYR45       0.2264
      4  O          1.1670   16.5000   13.2000 O.2    45  TYR45      -0.2867
      5  CB         4.1080   15.9000   11.8430 C.3    45  TYR45       0.0534
      6  CG         4.3710   16.1920   13.2710 C.ar   45  TYR45      -0.0201
      7  CD1        4.1560   15.2650   14.2540 C.ar   45  TYR45      -0.0009
      8  CD2        4.8630   17.4190   13.6890 C.ar   45  TYR45      -0.0009
      9  CE1        4.3600   15.5570   15.6040 C.ar   45  TYR45       0.0417
     10  CE2        5.0900   17.7060   15.0170 C.ar   45  TYR45       0.0417
     11  CZ         4.8410   16.7770   15.9750 C.ar   45  TYR45       0.1957
     12  OH         5.0900   17.1470   17.2830 O.3    45  TYR45      -0.2866
     13  N         -0.2190    9.9120   19.0750 N.3    55  PHE55      -0.1227
     14  CA         0.4720   10.3650   20.2290 C.3    55  PHE55       0.1736
     15  C          0.8530   11.8180   20.1740 C.2    55  PHE55       0.2595
     16  O          1.0620   12.4360   21.2220 O.2    55  PHE55      -0.2718
     17  CB         1.6890    9.5110   20.5320 C.3    55  PHE55       0.0547
     18  CG         2.7920    9.6080   19.5540 C.ar   55  PHE55      -0.0202
     19  CD1        3.6970   10.6060   19.7240 C.ar   55  PHE55      -0.0042
     20  CD2        2.8940    8.7290   18.4700 C.ar   55  PHE55      -0.0042
     21  CE1        4.6900   10.7490   18.8350 C.ar   55  PHE55      -0.0003
     22  CE2        3.9220    8.8800   17.5600 C.ar   55  PHE55      -0.0003
     23  CZ         4.8240    9.9620   17.7400 C.ar   55  PHE55      -0.0000
     24  N          0.8840   12.4420   18.9970 N.am   56  ASP56      -0.1974
     25  CA         1.1390   13.8600   18.9060 C.3    56  ASP56       0.1709
     26  C          0.6990   14.3880   17.5630 C.2    56  ASP56       0.2293
     27  O          0.6400   13.6300   16.6150 O.2    56  ASP56      -0.2864
     28  CB         2.5800   14.1820   19.2060 C.3    56  ASP56       0.1436
     29  CG         2.7610   15.6350   19.6850 C.2    56  ASP56       0.3671
     30  OD1        1.9830   16.0580   20.5820 O.co2  56  ASP56      -0.2456
     31  OD2        3.7340   16.2780   19.2640 O.co2  56  ASP56      -0.2456
     32  N         -2.2300   21.8330   17.7280 N.3    61  ARG61      -0.1245
     33  CA        -1.6480   22.9740   18.4400 C.3    61  ARG61       0.1563
     34  C         -1.8140   24.2680   17.6810 C.2    61  ARG61       0.2260
     35  O         -1.4480   25.3130   18.1980 O.2    61  ARG61      -0.2867
     36  CB        -0.1510   22.7440   18.6720 C.3    61  ARG61       0.0307
     37  CG         0.1570   21.6720   19.6990 C.3    61  ARG61       0.0489
     38  CD         1.6090   21.6720   20.0700 C.3    61  ARG61       0.2205
     39  NE         2.5000   21.1960   19.0130 N.pl3  61  ARG61      -0.0865
     40  CZ         2.9390   19.9840   18.8430 C.cat  61  ARG61       0.5346
     41  NH1        2.5070   19.0480   19.6270 N.pl3  61  ARG61       0.1354
     42  NH2        3.8180   19.6830   17.8550 N.pl3  61  ARG61       0.1354
     43  N          5.6280   22.7930   13.5730 N.3    65  PHE65      -0.1241
     44  CA         6.8530   22.3430   14.2570 C.3    65  PHE65       0.1605
     45  C          8.0230   22.8380   13.4200 C.2    65  PHE65       0.2264
     46  O          8.0640   22.6570   12.1970 O.2    65  PHE65      -0.2867
     47  CB         6.8210   20.8380   14.3730 C.3    65  PHE65       0.0534
     48  CG         8.0130   20.2860   15.0700 C.ar   65  PHE65      -0.0203
     49  CD1        8.0470   20.1810   16.4410 C.ar   65  PHE65      -0.0042
     50  CD2        9.0830   19.7850   14.3700 C.ar   65  PHE65      -0.0042
     51  CE1        9.1750   19.6560   17.0270 C.ar   65  PHE65      -0.0003
     52  CE2       10.1860   19.2450   14.9580 C.ar   65  PHE65      -0.0003
     53  CZ        10.2650   19.2060   16.2810 C.ar   65  PHE65      -0.0000
     54  N         18.2830   17.5150   15.9630 N.3    73  GLN73      -0.1231
     55  CA        17.2550   18.1370   16.7900 C.3    73  GLN73       0.1698
     56  C         15.9730   17.3080   16.8370 C.2    73  GLN73       0.2592
     57  O         15.0840   17.5510   17.6500 O.2    73  GLN73      -0.2718
     58  CB        16.9410   19.5350   16.3110 C.3    73  GLN73       0.0381
     59  CG        18.1160   20.4780   16.4270 C.3    73  GLN73       0.0905
     60  CD        17.8480   21.8830   16.0070 C.2    73  GLN73       0.2608
     61  OE1       16.7500   22.2380   15.5310 O.2    73  GLN73      -0.2717
     62  NE2       18.8710   22.7220   16.1300 N.am   73  GLN73      -0.0878
     63  N         15.9020   16.3470   15.9380 N.am   74  VAL74      -0.1966
     64  CA        14.7850   15.4350   15.7970 C.3    74  VAL74       0.1727
     65  C         15.3390   14.0330   15.6600 C.2    74  VAL74       0.2616
     66  O         16.5490   13.8660   15.4700 O.2    74  VAL74      -0.2715
     67  CB        13.9180   15.8020   14.5660 C.3    74  VAL74       0.0290
     68  CG1       13.2300   17.1490   14.7580 C.3    74  VAL74       0.0023
     69  CG2       14.7390   15.7660   13.3060 C.3    74  VAL74       0.0023
     70  N         14.4700   13.0350   15.7220 N.am   75  ILE75      -0.1977
     71  CA        14.8950   11.6630   15.5060 C.3    75  ILE75       0.1596
     72  C         15.5030   11.4960   14.1090 C.2    75  ILE75       0.2287
     73  O         15.2210   12.2350   13.1580 O.2    75  ILE75      -0.2864
     74  CB        13.7150   10.6700   15.7210 C.3    75  ILE75       0.0276
     75  CG1       12.5430   10.9570   14.7800 C.3    75  ILE75       0.0022
     76  CG2       13.3220   10.6080   17.1800 C.3    75  ILE75       0.0022
     77  CD1       11.4930    9.8510   14.8150 C.3    75  ILE75       0.0001
     78  N         13.4820   11.5070   10.8980 N.3    78  TRP78      -0.1241
     79  CA        13.0150   12.8250   10.4190 C.3    78  TRP78       0.1605
     80  C         14.1150   13.5800    9.7360 C.2    78  TRP78       0.2264
     81  O         13.8790   14.2330    8.6950 O.2    78  TRP78      -0.2867
     82  CB        12.4680   13.6370   11.5640 C.3    78  TRP78       0.0550
     83  CG        11.0260   13.4600   11.8250 C.ar   78  TRP78       0.0003
     84  CD1       10.3050   12.3210   12.0240 C.ar   78  TRP78       0.0946
     85  CD2       10.1050   14.5360   11.8280 C.ar   78  TRP78       0.0152
     86  NE1        8.9990   12.6200   12.2200 N.ar   78  TRP78      -0.2442
     87  CE2        8.8330   13.9940   12.0850 C.ar   78  TRP78       0.0810
     88  CE3       10.2330   15.9170   11.6130 C.ar   78  TRP78       0.0012
     89  CZ2        7.6940   14.8020   12.1330 C.ar   78  TRP78       0.0191
     90  CZ3        9.1360   16.6920   11.6860 C.ar   78  TRP78       0.0001
     91  CH2        7.8600   16.1490   11.9510 C.ar   78  TRP78       0.0015
     92  N         13.3340    6.2940   18.8180 N.3   101  TYR101     -0.1241
     93  CA        13.7020    6.3950   20.2110 C.3   101  TYR101      0.1605
     94  C         14.2450    5.0870   20.7560 C.2   101  TYR101      0.2264
     95  O         14.5090    4.9830   21.9880 O.2   101  TYR101     -0.2867
     96  CB        12.5520    6.9290   21.0460 C.3   101  TYR101      0.0534
     97  CG        12.3000    8.3850   20.7790 C.ar  101  TYR101     -0.0201
     98  CD1       13.2060    9.3590   21.3290 C.ar  101  TYR101     -0.0009
     99  CD2       11.2950    8.8390   20.0160 C.ar  101  TYR101     -0.0009
    100  CE1       13.0730   10.7510   21.0930 C.ar  101  TYR101      0.0417
    101  CE2       11.0910   10.2550   19.7720 C.ar  101  TYR101      0.0417
    102  CZ        11.9770   11.1600   20.3480 C.ar  101  TYR101      0.1957
    103  OH        11.8030   12.5120   20.0410 O.3   101  TYR101     -0.2866
    104  N         10.4000    7.3330   24.8160 N.3   106  SER106     -0.1217
    105  CA        10.3220    8.7350   25.2010 C.3   106  SER106      0.1889
    106  C          9.0560    8.9120   25.9990 C.2   106  SER106      0.2288
    107  O          7.9780    9.0310   25.4750 O.2   106  SER106     -0.2866
    108  CB        10.3180    9.6870   23.9710 C.3   106  SER106      0.2089
    109  OG        10.4420   11.0660   24.2970 O.3   106  SER106     -0.2183
    110  N          6.2160   10.3000   28.4410 N.3   108  PRO108     -0.2102
    111  CA         5.3310    9.1990   28.7310 C.3   108  PRO108      0.1504
    112  C          4.6670    8.5200   27.5490 C.2   108  PRO108      0.2576
    113  O          4.0090    7.5520   27.7390 O.2   108  PRO108     -0.2718
    114  CB         4.2530    9.8590   29.5890 C.3   108  PRO108      0.0282
    115  CG         4.1610   11.1790   28.9870 C.3   108  PRO108      0.0208
    116  CD         5.5490   11.5920   28.7010 C.3   108  PRO108      0.0893
    117  N          4.7340    9.0740   26.3640 N.am  109  LYS109     -0.1966
    118  CA         3.9500    8.5550   25.2530 C.3   109  LYS109      0.1728
    119  C          4.5350    7.3730   24.4840 C.2   109  LYS109      0.2616
    120  O          3.7800    6.4570   24.0000 O.2   109  LYS109     -0.2715
    121  CB         3.6020    9.6260   24.2410 C.3   109  LYS109      0.0311
    122  CG         4.5220   10.7670   24.1680 C.3   109  LYS109      0.0038
    123  CD         3.9480   11.8850   24.8950 C.3   109  LYS109      0.0206
    124  CE         3.1140   12.7030   23.9490 C.3   109  LYS109      0.1093
    125  NZ         1.9130   13.3090   24.6580 N.3   109  LYS109     -0.1314
    126  N          5.8610    7.3750   24.2950 N.am  110  ILE110     -0.1977
    127  CA         6.4760    6.4260   23.3820 C.3   110  ILE110      0.1596
    128  C          7.1240    5.2980   24.1540 C.2   110  ILE110      0.2287
    129  O          8.0950    5.5660   24.9100 O.2   110  ILE110     -0.2864
    130  CB         7.4680    7.1830   22.4230 C.3   110  ILE110      0.0276
    131  CG1        6.6740    8.3140   21.6460 C.3   110  ILE110      0.0022
    132  CG2        8.1450    6.1810   21.4620 C.3   110  ILE110      0.0022
    133  CD1        7.5680    9.1470   20.7420 C.3   110  ILE110      0.0001
    134  N          7.2910    3.9470   14.7170 N.3   116  LEU116     -0.1245
    135  CA         6.4620    5.1510   14.6490 C.3   116  LEU116      0.1561
    136  C          5.9870    5.3830   13.2220 C.2   116  LEU116      0.2260
    137  O          6.7310    5.1940   12.2780 O.2   116  LEU116     -0.2867
    138  CB         7.2270    6.4000   15.1250 C.3   116  LEU116      0.0270
    139  CG         7.8900    6.2980   16.5010 C.3   116  LEU116      0.0019
    140  CD1        8.5980    7.6040   16.8360 C.3   116  LEU116      0.0001
    141  CD2        6.8860    5.9550   17.5790 C.3   116  LEU116      0.0001
    142  N          4.3720    8.5150   10.8540 N.3   118  PHE118     -0.1241
    143  CA         4.0690    9.9250   10.7340 C.3   118  PHE118      0.1605
    144  C          3.4900   10.2480    9.3870 C.2   118  PHE118      0.2264
    145  O          3.8860    9.7170    8.3550 O.2   118  PHE118     -0.2867
    146  CB         5.3370   10.7890   10.8560 C.3   118  PHE118      0.0534
    147  CG         5.9820   10.7480   12.1980 C.ar  118  PHE118     -0.0203
    148  CD1        5.6230   11.6520   13.2060 C.ar  118  PHE118     -0.0042
    149  CD2        6.9700    9.8250   12.4790 C.ar  118  PHE118     -0.0042
    150  CE1        6.2120   11.6420   14.4750 C.ar  118  PHE118     -0.0003
    151  CE2        7.6050    9.8150   13.7250 C.ar  118  PHE118     -0.0003
    152  CZ         7.2380   10.7060   14.6930 C.ar  118  PHE118     -0.0000
@<TRIPOS>BOND
     1   145   144    2
     2    81    80    2
     3   144   143    1
     4    80    79    1
     5    79    78    1
     6    79    82    1
     7   143   142    1
     8   143   146    1
     9   146   147    1
    10     1     2    1
    11     2     5    1
    12     2     3    1
    13    82    83    1
    14    88    90   ar
    15    88    85   ar
    16    90    91   ar
    17    83    85   ar
    18    83    84   ar
    19    85    87   ar
    20     5     6    1
    21    91    89   ar
    22    84    86   ar
    23    87    89   ar
    24    87    86   ar
    25    46    45    2
    26   147   149   ar
    27   147   148   ar
    28   137   136    2
    29     3     4    2
    30   149   151   ar
    31    73    72    2
    32   148   150   ar
    33   136   135    1
    34     6     8   ar
    35     6     7   ar
    36    69    67    1
    37    45    44    1
    38    43    44    1
    39     8    10   ar
    40   151   152   ar
    41    72    71    1
    42     7     9   ar
    43    44    47    1
    44    50    52   ar
    45    50    48   ar
    46    47    48    1
    47   150   152   ar
    48    67    68    1
    49    67    64    1
    50   135   134    1
    51   135   138    1
    52    75    77    1
    53    75    74    1
    54    52    53   ar
    55    10    11   ar
    56    48    49   ar
    57   138   139    1
    58    66    65    2
    59    71    74    1
    60    71    70    1
    61    61    60    2
    62     9    11   ar
    63    65    70   am
    64    65    64    1
    65    74    76    1
    66    64    63    1
    67    63    56   am
    68    54    55    1
    69    11    12    1
    70    60    62   am
    71    60    59    1
    72    53    51   ar
    73    58    59    1
    74    58    55    1
    75    49    51   ar
    76   139   140    1
    77   139   141    1
    78    27    26    2
    79    55    56    1
    80    56    57    2
    81    22    23   ar
    82    22    20   ar
    83    26    25    1
    84    34    35    2
    85    34    33    1
    86    32    33    1
    87    23    21   ar
    88    42    40    1
    89    33    36    1
    90    20    18   ar
    91    36    37    1
    92    92    93    1
    93    21    19   ar
    94    40    39    2
    95    40    41    1
    96    25    24    1
    97    25    28    1
    98    24    15   am
    99    39    38    1
   100    13    14    1
   101    28    29    1
   102    31    29   ar
   103    18    19   ar
   104    18    17    1
   105    29    30   ar
   106    37    38    1
   107   101    99   ar
   108   101   102   ar
   109    99    97   ar
   110   103   102    1
   111    15    14    1
   112    15    16    2
   113    93    94    1
   114    93    96    1
   115    14    17    1
   116   102   100   ar
   117   133   131    1
   118    94    95    2
   119    97    96    1
   120    97    98   ar
   121   100    98   ar
   122   132   130    1
   123   131   130    1
   124   130   127    1
   125   127   128    1
   126   127   126    1
   127   124   125    1
   128   124   123    1
   129   108   109    1
   130   108   105    1
   131   120   119    2
   132   128   129    2
   133   122   121    1
   134   122   123    1
   135   121   118    1
   136   126   119   am
   137   119   118    1
   138   104   105    1
   139   105   106    1
   140   118   117    1
   141   107   106    2
   142   117   112   am
   143   112   113    2
   144   112   111    1
   145   110   116    1
   146   110   111    1
   147   116   115    1
   148   111   114    1
   149   115   114    1
