@<TRIPOS>MOLECULE
tmp/4jfrB00.pdb
 114 108 0 0 0
SMALL
GASTEIGER

@<TRIPOS>ATOM
      1  N        -14.6320   -6.8470  -24.3590 N.3    62  ALA62      -0.1231
      2  CA       -13.5230   -7.6130  -24.9010 C.3    62  ALA62       0.1694
      3  C        -13.3170   -7.6220  -26.4120 C.2    62  ALA62       0.2593
      4  O        -14.2830   -7.5780  -27.1710 O.2    62  ALA62      -0.2718
      5  CB       -13.6400   -9.0570  -24.4160 C.3    62  ALA62       0.0304
      6  N        -12.0480   -7.7410  -26.8320 N.am   63  SER63      -0.1938
      7  CA       -11.6420   -7.8820  -28.2390 C.3    63  SER63       0.2055
      8  C        -10.2460   -8.4790  -28.5350 C.2    63  SER63       0.2644
      9  O         -9.2960   -8.3210  -27.8230 O.2    63  SER63      -0.2714
     10  CB       -11.6610   -6.5230  -28.8920 C.3    63  SER63       0.2130
     11  OG       -11.1700   -6.6230  -30.2180 O.3    63  SER63      -0.2179
     12  N        -10.1490   -9.2890  -29.5710 N.am   64  THR64      -0.1936
     13  CA        -8.8680   -9.7630  -29.9740 C.3    64  THR64       0.2028
     14  C         -8.6840   -9.0560  -31.2920 C.2    64  THR64       0.2642
     15  O         -7.8760   -8.1590  -31.3660 O.2    64  THR64      -0.2714
     16  CB        -8.7620  -11.3270  -30.1370 C.3    64  THR64       0.1808
     17  OG1       -8.8180  -11.9860  -28.8630 O.3    64  THR64      -0.2208
     18  CG2       -7.4120  -11.7560  -30.8380 C.3    64  THR64       0.0379
     19  N         -9.4510   -9.4810  -32.3010 N.am   65  ARG65      -0.1963
     20  CA        -9.3100   -9.0330  -33.6340 C.3    65  ARG65       0.1729
     21  C         -9.4120   -7.5170  -33.6670 C.2    65  ARG65       0.2616
     22  O         -8.6180   -6.8740  -34.3260 O.2    65  ARG65      -0.2715
     23  CB       -10.4330   -9.6540  -34.5420 C.3    65  ARG65       0.0348
     24  CG       -10.0960  -10.9390  -35.3770 C.3    65  ARG65       0.0492
     25  CD       -11.2800  -11.9550  -35.3630 C.3    65  ARG65       0.2205
     26  NE       -11.6700  -12.2910  -33.9770 N.pl3  65  ARG65      -0.0865
     27  CZ       -11.1670  -13.2790  -33.2400 C.cat  65  ARG65       0.5346
     28  NH1      -11.5490  -13.4090  -31.9680 N.pl3  65  ARG65       0.1354
     29  NH2      -10.3110  -14.1520  -33.7540 N.pl3  65  ARG65       0.1354
     30  N        -10.4520   -6.9440  -33.0640 N.am   66  THR66      -0.1951
     31  CA       -10.7910   -5.5620  -33.4250 C.3    66  THR66       0.1897
     32  C         -9.7040   -4.6690  -32.8060 C.2    66  THR66       0.2313
     33  O         -9.1750   -3.7620  -33.4510 O.2    66  THR66      -0.2863
     34  CB       -12.1990   -5.1490  -32.9820 C.3    66  THR66       0.1794
     35  OG1      -13.1640   -5.9620  -33.6760 O.3    66  THR66      -0.2208
     36  CG2      -12.4350   -3.7160  -33.3150 C.3    66  THR66       0.0378
     37  N        -15.8060    0.6180  -28.8700 N.3   114  ARG114     -0.1245
     38  CA       -16.5560   -0.6280  -28.8830 C.3   114  ARG114      0.1563
     39  C        -17.2850   -0.7030  -27.5850 C.2   114  ARG114      0.2260
     40  O        -16.6740   -0.5850  -26.5180 O.2   114  ARG114     -0.2867
     41  CB       -15.6780   -1.8730  -28.9880 C.3   114  ARG114      0.0307
     42  CG       -16.4110   -3.1670  -28.5750 C.3   114  ARG114      0.0489
     43  CD       -15.5780   -4.4280  -28.8310 C.3   114  ARG114      0.2205
     44  NE       -15.5590   -4.7450  -30.2640 N.pl3 114  ARG114     -0.0865
     45  CZ       -15.3270   -5.9490  -30.7890 C.cat 114  ARG114      0.5346
     46  NH1      -14.9990   -7.0090  -30.0140 N.pl3 114  ARG114      0.1354
     47  NH2      -15.4240   -6.0870  -32.0980 N.pl3 114  ARG114      0.1354
     48  N        -17.7510   -1.9210  -32.7150 N.3   136  LEU136     -0.1245
     49  CA       -18.8530   -2.8570  -32.4670 C.3   136  LEU136      0.1561
     50  C        -19.7650   -2.2320  -31.4210 C.2   136  LEU136      0.2260
     51  O        -19.2980   -1.7550  -30.3790 O.2   136  LEU136     -0.2867
     52  CB       -18.4040   -4.2400  -32.0050 C.3   136  LEU136      0.0270
     53  CG       -19.5490   -5.2010  -31.6450 C.3   136  LEU136      0.0019
     54  CD1      -19.1760   -6.6650  -31.8740 C.3   136  LEU136      0.0001
     55  CD2      -19.9460   -5.0110  -30.1820 C.3   136  LEU136      0.0001
     56  N        -21.8570   -3.6040  -36.5550 N.3   141  HIS141     -0.1241
     57  CA       -20.4490   -3.9440  -36.5680 C.3   141  HIS141      0.1621
     58  C        -19.9060   -3.6630  -37.9550 C.2   141  HIS141      0.2264
     59  O        -19.5590   -4.5740  -38.7110 O.2   141  HIS141     -0.2867
     60  CB       -20.2930   -5.4610  -36.2150 C.3   141  HIS141      0.0745
     61  CG       -18.9060   -5.8850  -35.8470 C.ar  141  HIS141      0.0817
     62  ND1      -17.8590   -4.9930  -35.7470 N.ar  141  HIS141     -0.2268
     63  CD2      -18.4220   -7.0900  -35.4270 C.ar  141  HIS141      0.1154
     64  CE1      -16.7670   -5.6480  -35.3900 C.ar  141  HIS141      0.1986
     65  NE2      -17.0850   -6.9260  -35.2060 N.ar  141  HIS141     -0.2212
     66  N        -16.3200   -5.0270  -39.3860 N.3   144  GLN144     -0.1245
     67  CA       -16.3630   -6.4400  -39.7520 C.3   144  GLN144      0.1566
     68  C        -16.8680   -6.6740  -41.2040 C.2   144  GLN144      0.2260
     69  O        -16.3200   -7.4620  -41.9820 O.2   144  GLN144     -0.2867
     70  CB       -17.2460   -7.2200  -38.7860 C.3   144  GLN144      0.0367
     71  CG       -17.3110   -8.7280  -39.0570 C.3   144  GLN144      0.0905
     72  CD       -15.9920   -9.4450  -38.7710 C.2   144  GLN144      0.2608
     73  OE1      -15.3860   -9.2730  -37.7020 O.2   144  GLN144     -0.2717
     74  NE2      -15.5250  -10.2080  -39.7250 N.am  144  GLN144     -0.0878
     75  N        -21.7540  -11.1960  -26.9420 N.3   244  MET244     -0.1196
     76  CA       -20.9750  -10.6370  -25.7880 C.3   244  MET244      0.1786
     77  C        -21.8430   -9.8530  -24.7700 C.2   244  MET244      0.2306
     78  O        -22.6330   -8.9940  -25.1520 O.2   244  MET244     -0.2863
     79  CB       -19.8190   -9.7190  -26.2630 C.2   244  MET244      0.0070
     80  CG       -18.4960  -10.4380  -26.5660 C.2   244  MET244      0.0282
     81  SD       -17.1100   -9.3690  -27.1030 S.3   244  MET244     -0.1125
     82  CE       -17.8630   -8.6860  -28.5830 C.3   244  MET244      0.0742
     83  N        -17.1970  -14.6080  -38.4740 N.3   281  CYS281     -0.1221
     84  CA       -16.5070  -13.3920  -37.9800 C.3   281  CYS281      0.1808
     85  C        -15.4800  -13.6730  -36.8700 C.2   281  CYS281      0.2601
     86  O        -14.5230  -12.9160  -36.7210 O.2   281  CYS281     -0.2717
     87  CB       -17.4860  -12.3220  -37.4980 C.3   281  CYS281      0.0970
     88  SG       -18.6700  -12.9340  -36.3010 S.3   281  CYS281     -0.0800
     89  N        -15.6760  -14.7790  -36.1630 N.am  282  LEU282     -0.1966
     90  CA       -14.8390  -15.3030  -35.1150 C.3   282  LEU282      0.1713
     91  C        -15.0800  -14.4640  -33.8300 C.2   282  LEU282      0.2458
     92  O        -15.5120  -13.3440  -33.9310 O.2   282  LEU282     -0.2730
     93  CB       -13.3660  -15.2950  -35.5020 C.3   282  LEU282      0.0310
     94  CG       -12.9410  -16.1480  -36.7040 C.3   282  LEU282      0.0022
     95  CD1      -11.4390  -16.1070  -36.7780 C.3   282  LEU282      0.0001
     96  CD2      -13.3900  -17.5990  -36.6450 C.3   282  LEU282      0.0001
     97  N        -14.8190  -15.0310  -32.6470 N.am  283  PRO283     -0.2727
     98  CA       -14.4110  -16.4310  -32.4460 C.3   283  PRO283      0.1402
     99  C        -15.5260  -17.4270  -32.6940 C.2   283  PRO283      0.2269
    100  O        -16.6720  -17.0630  -32.6640 O.2   283  PRO283     -0.2865
    101  CB       -13.9810  -16.4590  -30.9910 C.3   283  PRO283      0.0296
    102  CG       -14.8810  -15.4480  -30.3430 C.3   283  PRO283      0.0237
    103  CD       -14.9850  -14.3280  -31.3540 C.3   283  PRO283      0.0939
    104  N         -9.6650   -7.7180  -41.4690 N.3   326  ARG326     -0.1245
    105  CA       -10.0490   -6.7250  -40.4700 C.3   326  ARG326      0.1563
    106  C         -9.0500   -5.5710  -40.3640 C.2   326  ARG326      0.2260
    107  O         -9.4330   -4.4310  -40.1470 O.2   326  ARG326     -0.2867
    108  CB       -10.1590   -7.3560  -39.0730 C.3   326  ARG326      0.0307
    109  CG       -11.2410   -8.4280  -38.9210 C.3   326  ARG326      0.0489
    110  CD       -12.6710   -7.9220  -39.1400 C.3   326  ARG326      0.2205
    111  NE       -12.9540   -6.7020  -38.4250 N.pl3 326  ARG326     -0.0865
    112  CZ       -13.1390   -6.6380  -37.1110 C.cat 326  ARG326      0.5346
    113  NH1      -13.1250   -7.7340  -36.3680 N.pl3 326  ARG326      0.1354
    114  NH2      -13.3970   -5.4480  -36.5290 N.pl3 326  ARG326      0.1354
@<TRIPOS>BOND
     1    69    68    2
     2   104   105    1
     3    68    67    1
     4   105   106    1
     5   105   108    1
     6   106   107    2
     7    67    66    1
     8    67    70    1
     9    74    72   am
    10   110   109    1
    11   110   111    1
    12   108   109    1
    13    71    70    1
    14    71    72    1
    15    72    73    2
    16    59    58    2
    17    83    84    1
    18   111   112    2
    19    84    87    1
    20    84    85    1
    21    58    57    1
    22    87    88    1
    23   112   114    1
    24   112   113    1
    25    85    86    2
    26    85    89   am
    27    95    94    1
    28    94    96    1
    29    94    93    1
    30    57    56    1
    31    57    60    1
    32    60    61    1
    33    89    90    1
    34    61    62   ar
    35    61    63   ar
    36    62    64   ar
    37    93    90    1
    38    63    65   ar
    39    64    65   ar
    40    24    25    1
    41    24    23    1
    42    25    26    1
    43    90    91    1
    44    23    20    1
    45    22    21    2
    46    26    27    2
    47    92    91    2
    48    91    97   am
    49    29    27    1
    50    35    34    1
    51    21    20    1
    52    21    30   am
    53    20    19    1
    54    33    32    2
    55    31    30    1
    56    31    34    1
    57    31    32    1
    58    36    34    1
    59    27    28    1
    60    48    49    1
    61    99   100    2
    62    99    98    1
    63    97    98    1
    64    97   103    1
    65    49    52    1
    66    49    50    1
    67    98   101    1
    68    19    14   am
    69    47    45    1
    70    52    53    1
    71    54    53    1
    72    53    55    1
    73    50    51    2
    74    15    14    2
    75   103   102    1
    76    14    13    1
    77   101   102    1
    78    18    16    1
    79    45    44    2
    80    45    46    1
    81    44    43    1
    82    11    10    1
    83    16    13    1
    84    16    17    1
    85    13    12    1
    86    12     8   am
    87    41    38    1
    88    41    42    1
    89    10     7    1
    90    38    37    1
    91    38    39    1
    92    43    42    1
    93    82    81    1
    94     8     7    1
    95     8     9    2
    96     7     6    1
    97    39    40    2
    98     4     3    2
    99    81    80    1
   100    75    76    1
   101     6     3   am
   102    80    79    2
   103     3     2    1
   104    79    76    1
   105    76    77    1
   106    78    77    2
   107     2     5    1
   108     2     1    1
