@<TRIPOS>MOLECULE
tmp/4jfsA00.pdb
 171 171 0 0 0
SMALL
GASTEIGER

@<TRIPOS>ATOM
      1  N        -12.2610   -0.9930   29.3690 N.3    30  PHE30      -0.1241
      2  CA       -12.7000    0.2400   28.7410 C.3    30  PHE30       0.1605
      3  C        -11.5050    0.7540   27.9750 C.2    30  PHE30       0.2264
      4  O        -10.3460    0.6710   28.4870 O.2    30  PHE30      -0.2867
      5  CB       -13.0720    1.2730   29.8030 C.3    30  PHE30       0.0534
      6  CG       -14.3570    2.0240   29.5190 C.ar   30  PHE30      -0.0203
      7  CD1      -14.5150    2.7360   28.3620 C.ar   30  PHE30      -0.0042
      8  CD2      -15.3920    2.0050   30.4140 C.ar   30  PHE30      -0.0042
      9  CE1      -15.7200    3.3830   28.0760 C.ar   30  PHE30      -0.0003
     10  CE2      -16.6040    2.6810   30.1430 C.ar   30  PHE30      -0.0003
     11  CZ       -16.7490    3.3700   28.9570 C.ar   30  PHE30      -0.0000
     12  N        -10.3130    4.3450   26.3590 N.3    32  HIS32      -0.1241
     13  CA       -10.4500    5.8100   26.0850 C.3    32  HIS32       0.1621
     14  C         -9.2900    6.2230   25.2110 C.2    32  HIS32       0.2264
     15  O         -8.1180    6.2480   25.6500 O.2    32  HIS32      -0.2867
     16  CB       -10.3920    6.5950   27.3800 C.3    32  HIS32       0.0745
     17  CG       -11.7250    6.7610   28.0530 C.ar   32  HIS32       0.0817
     18  ND1      -12.3430    5.7470   28.7810 N.ar   32  HIS32      -0.2268
     19  CD2      -12.5720    7.8190   28.0870 C.ar   32  HIS32       0.1154
     20  CE1      -13.5000    6.1880   29.2400 C.ar   32  HIS32       0.1986
     21  NE2      -13.6600    7.4450   28.8360 N.ar   32  HIS32      -0.2212
     22  N         -8.4470   13.5590   29.2380 N.3    53  GLU53      -0.1231
     23  CA        -9.4030   13.6170   28.1590 C.3    53  GLU53       0.1699
     24  C        -10.2280   14.9030   28.1670 C.2    53  GLU53       0.2592
     25  O        -10.8330   15.2670   27.1290 O.2    53  GLU53      -0.2718
     26  CB       -10.2670   12.3420   28.1160 C.3    53  GLU53       0.0402
     27  CG       -11.3090   12.2450   29.2040 C.3    53  GLU53       0.1161
     28  CD       -10.7790   11.8380   30.5520 C.2    53  GLU53       0.3649
     29  OE1       -9.5530   11.4530   30.7070 O.co2  53  GLU53      -0.2457
     30  OE2      -11.6590   11.7590   31.4230 O.co2  53  GLU53      -0.2457
     31  N        -10.1780   15.6230   29.2780 N.am   54  TRP54      -0.1976
     32  CA       -10.7860   16.9450   29.4640 C.3    54  TRP54       0.1640
     33  C         -9.7770   18.1200   29.3030 C.2    54  TRP54       0.2290
     34  O        -10.0990   19.2690   29.5750 O.2    54  TRP54      -0.2864
     35  CB       -11.4070   17.0170   30.8650 C.3    54  TRP54       0.0576
     36  CG       -12.7700   16.4770   30.9700 C.ar   54  TRP54       0.0006
     37  CD1      -13.1410   15.1660   31.0080 C.ar   54  TRP54       0.0946
     38  CD2      -13.9580   17.2310   31.0280 C.ar   54  TRP54       0.0152
     39  NE1      -14.5270   15.0770   31.0740 N.ar   54  TRP54      -0.2442
     40  CE2      -15.0370   16.3300   31.1100 C.ar   54  TRP54       0.0810
     41  CE3      -14.2290   18.5930   31.0330 C.ar   54  TRP54       0.0012
     42  CZ2      -16.3510   16.7410   31.1150 C.ar   54  TRP54       0.0191
     43  CZ3      -15.5400   19.0030   31.0950 C.ar   54  TRP54       0.0001
     44  CH2      -16.5720   18.0920   31.1470 C.ar   54  TRP54       0.0015
     45  N        -15.5160   10.9560   22.0550 N.3   101  HIS101     -0.1226
     46  CA       -15.5660   11.5400   23.3870 C.3   101  HIS101      0.1752
     47  C        -16.0620   13.0180   23.2130 C.2   101  HIS101      0.2596
     48  O        -16.5430   13.3910   22.1340 O.2   101  HIS101     -0.2718
     49  CB       -14.2150   11.4740   24.1190 C.3   101  HIS101      0.0759
     50  CG       -14.3440   11.4870   25.6190 C.ar  101  HIS101      0.0818
     51  ND1      -14.2860   12.6350   26.3730 N.ar  101  HIS101     -0.2268
     52  CD2      -14.5360   10.4750   26.4990 C.ar  101  HIS101      0.1154
     53  CE1      -14.4650   12.3360   27.6430 C.ar  101  HIS101      0.1986
     54  NE2      -14.5830   11.0210   27.7390 N.ar  101  HIS101     -0.2212
     55  N        -16.0300   13.7970   24.2990 N.am  102  HIS102     -0.1975
     56  CA       -16.5900   15.1710   24.2760 C.3   102  HIS102      0.1656
     57  C        -15.9880   16.0110   23.1830 C.2   102  HIS102      0.2291
     58  O        -16.6710   16.8120   22.5870 O.2   102  HIS102     -0.2864
     59  CB       -16.4170   15.8990   25.6330 C.3   102  HIS102      0.0771
     60  CG       -16.8240   15.0970   26.8440 C.ar  102  HIS102      0.0820
     61  ND1      -17.8750   14.2110   26.8480 N.ar  102  HIS102     -0.2267
     62  CD2      -16.3260   15.0790   28.1000 C.ar  102  HIS102      0.1154
     63  CE1      -18.0040   13.6850   28.0470 C.ar  102  HIS102      0.1986
     64  NE2      -17.0680   14.1860   28.8260 N.ar  102  HIS102     -0.2212
     65  N        -19.0630    3.2810   23.7030 N.3   144  TYR144     -0.1241
     66  CA       -19.1910    4.5460   24.4460 C.3   144  TYR144      0.1605
     67  C        -19.4680    5.6520   23.4330 C.2   144  TYR144      0.2264
     68  O        -18.9330    5.6450   22.3530 O.2   144  TYR144     -0.2867
     69  CB       -17.8540    4.8650   25.2220 C.3   144  TYR144      0.0534
     70  CG       -17.7250    6.2950   25.7280 C.ar  144  TYR144     -0.0201
     71  CD1      -17.6490    7.3830   24.8430 C.ar  144  TYR144     -0.0009
     72  CD2      -17.6830    6.5710   27.0790 C.ar  144  TYR144     -0.0009
     73  CE1      -17.5030    8.6760   25.2950 C.ar  144  TYR144      0.0417
     74  CE2      -17.5580    7.8990   27.5610 C.ar  144  TYR144      0.0417
     75  CZ       -17.5020    8.9340   26.6760 C.ar  144  TYR144      0.1957
     76  OH       -17.4550   10.2170   27.1180 O.3   144  TYR144     -0.2866
     77  N        -23.1920    2.8960   25.5190 N.3   193  TRP193     -0.1241
     78  CA       -22.9450    3.4960   26.8040 C.3   193  TRP193      0.1605
     79  C        -22.7880    4.9900   26.5930 C.2   193  TRP193      0.2264
     80  O        -21.7720    5.4620   26.1310 O.2   193  TRP193     -0.2867
     81  CB       -21.6850    2.8610   27.4350 C.3   193  TRP193      0.0550
     82  CG       -21.5290    3.1170   28.9290 C.ar  193  TRP193      0.0003
     83  CD1      -21.9340    2.2880   29.9290 C.ar  193  TRP193      0.0946
     84  CD2      -20.9660    4.2690   29.5730 C.ar  193  TRP193      0.0152
     85  NE1      -21.6730    2.8460   31.1290 N.ar  193  TRP193     -0.2442
     86  CE2      -21.0590    4.0530   30.9630 C.ar  193  TRP193      0.0810
     87  CE3      -20.3910    5.4520   29.1180 C.ar  193  TRP193      0.0012
     88  CZ2      -20.5850    4.9860   31.9280 C.ar  193  TRP193      0.0191
     89  CZ3      -19.8990    6.3780   30.0600 C.ar  193  TRP193      0.0001
     90  CH2      -20.0070    6.1340   31.4540 C.ar  193  TRP193      0.0015
     91  N        -22.5420    9.0620   27.4780 N.3   195  ASP195     -0.1239
     92  CA       -21.9740    9.9920   28.3870 C.3   195  ASP195      0.1674
     93  C        -22.3870   11.3560   27.8720 C.2   195  ASP195      0.2266
     94  O        -22.9220   11.5060   26.7730 O.2   195  ASP195     -0.2867
     95  CB       -20.4330    9.8200   28.3250 C.3   195  ASP195      0.1410
     96  CG       -19.7080   10.4150   29.5120 C.2   195  ASP195      0.3668
     97  OD1      -20.3720   10.9880   30.3990 O.co2 195  ASP195     -0.2456
     98  OD2      -18.4510   10.3070   29.5640 O.co2 195  ASP195     -0.2456
     99  N        -25.7220   15.0780   30.7870 N.3   198  TRP198     -0.1241
    100  CA       -26.1210   15.6990   32.0430 C.3   198  TRP198      0.1605
    101  C        -26.6450   17.1390   31.8300 C.2   198  TRP198      0.2264
    102  O        -27.2340   17.6750   32.7210 O.2   198  TRP198     -0.2867
    103  CB       -24.9560   15.6870   33.0670 C.3   198  TRP198      0.0550
    104  CG       -23.8370   16.4000   32.5950 C.ar  198  TRP198      0.0003
    105  CD1      -23.7190   17.7460   32.5070 C.ar  198  TRP198      0.0946
    106  CD2      -22.6300   15.8530   32.0570 C.ar  198  TRP198      0.0152
    107  NE1      -22.5090   18.0770   31.9890 N.ar  198  TRP198     -0.2442
    108  CE2      -21.8250   16.9330   31.6830 C.ar  198  TRP198      0.0810
    109  CE3      -22.1440   14.5500   31.8850 C.ar  198  TRP198      0.0012
    110  CZ2      -20.5480   16.7710   31.1500 C.ar  198  TRP198      0.0191
    111  CZ3      -20.8830   14.3690   31.3250 C.ar  198  TRP198      0.0001
    112  CH2      -20.0890   15.4900   30.9650 C.ar  198  TRP198      0.0015
    113  N        -27.3930    5.9700   32.0400 N.3   228  ARG228     -0.1245
    114  CA       -26.8770    7.3280   32.0020 C.3   228  ARG228      0.1563
    115  C        -27.4480    8.1600   30.8330 C.2   228  ARG228      0.2260
    116  O        -27.5360    9.3870   30.8980 O.2   228  ARG228     -0.2867
    117  CB       -25.3820    7.2430   31.9140 C.3   228  ARG228      0.0307
    118  CG       -24.6910    8.5130   32.2860 C.3   228  ARG228      0.0489
    119  CD       -23.1810    8.2870   32.3680 C.3   228  ARG228      0.2205
    120  NE       -22.7030    7.3910   33.4520 N.pl3 228  ARG228     -0.0865
    121  CZ       -21.6260    7.6290   34.2460 C.cat 228  ARG228      0.5346
    122  NH1      -20.9430    8.7880   34.1750 N.pl3 228  ARG228      0.1354
    123  NH2      -21.2630    6.7280   35.1710 N.pl3 228  ARG228      0.1354
    124  N        -18.7630    4.8750   39.3680 N.3   254  GLU254     -0.1231
    125  CA       -17.6760    5.2300   38.5570 C.3   254  GLU254      0.1699
    126  C        -16.6360    5.6390   39.5060 C.2   254  GLU254      0.2592
    127  O        -16.8200    6.5740   40.2250 O.2   254  GLU254     -0.2718
    128  CB       -18.1370    6.3660   37.6660 C.3   254  GLU254      0.0402
    129  CG       -17.0720    6.9940   36.8240 C.3   254  GLU254      0.1161
    130  CD       -17.6220    8.2220   36.1750 C.2   254  GLU254      0.3649
    131  OE1      -18.7670    8.1180   35.7460 O.co2 254  GLU254     -0.2457
    132  OE2      -16.9450    9.2600   36.1070 O.co2 254  GLU254     -0.2457
    133  N        -15.5830    4.8780   39.6250 N.am  255  ARG255     -0.1980
    134  CA       -14.6020    5.1800   40.6100 C.3   255  ARG255      0.1597
    135  C        -15.0620    4.9410   42.0940 C.2   255  ARG255      0.2287
    136  O        -14.3130    5.1630   43.0180 O.2   255  ARG255     -0.2864
    137  CB       -13.9900    6.5810   40.2830 C.3   255  ARG255      0.0334
    138  CG       -13.4650    6.6580   38.7970 C.3   255  ARG255      0.0492
    139  CD       -12.5550    7.8330   38.4570 C.3   255  ARG255      0.2205
    140  NE       -13.3130    9.0510   38.7920 N.pl3 255  ARG255     -0.0865
    141  CZ       -13.2280    9.7570   39.9180 C.cat 255  ARG255      0.5346
    142  NH1      -12.3600    9.4410   40.8620 N.pl3 255  ARG255      0.1354
    143  NH2      -14.0160   10.8280   40.0880 N.pl3 255  ARG255      0.1354
    144  N        -17.5660    1.1530   36.3110 N.3   274  CYS274     -0.1235
    145  CA       -16.3310    1.3620   35.5710 C.3   274  CYS274      0.1677
    146  C        -15.3190    1.9990   36.4840 C.2   274  CYS274      0.2270
    147  O        -15.6740    2.6460   37.4740 O.2   274  CYS274     -0.2867
    148  CB       -16.5550    2.2150   34.3500 C.3   274  CYS274      0.0956
    149  SG       -17.2840    3.8280   34.6420 S.3   274  CYS274     -0.0801
    150  N         -8.0990    9.3910   38.7640 N.3   280  ASN280     -0.1240
    151  CA        -9.0290   10.0440   37.8640 C.3   280  ASN280      0.1653
    152  C         -8.3900   10.4580   36.5180 C.2   280  ASN280      0.2266
    153  O         -8.2570   11.6180   36.2430 O.2   280  ASN280     -0.2867
    154  CB        -9.6190   11.2650   38.5660 C.3   280  ASN280      0.1155
    155  CG       -10.8660   11.7730   37.8640 C.2   280  ASN280      0.2627
    156  OD1      -11.3420   11.2170   36.8520 O.2   280  ASN280     -0.2716
    157  ND2      -11.3870   12.8720   38.3790 N.am  280  ASN280     -0.0877
    158  N         -8.7860    8.9100   32.5480 N.3   282  TRP282     -0.1241
    159  CA        -9.3560    7.9560   31.6080 C.3   282  TRP282      0.1605
    160  C         -8.5620    7.9110   30.3180 C.2   282  TRP282      0.2264
    161  O         -8.1210    6.8350   29.8940 O.2   282  TRP282     -0.2867
    162  CB       -10.8240    8.2680   31.3260 C.3   282  TRP282      0.0550
    163  CG       -11.6570    8.2420   32.5330 C.ar  282  TRP282      0.0003
    164  CD1      -11.8450    9.2700   33.4110 C.ar  282  TRP282      0.0946
    165  CD2      -12.5040    7.1720   32.9850 C.ar  282  TRP282      0.0152
    166  NE1      -12.7580    8.9330   34.3550 N.ar  282  TRP282     -0.2442
    167  CE2      -13.1650    7.6410   34.1460 C.ar  282  TRP282      0.0810
    168  CE3      -12.7400    5.8590   32.5550 C.ar  282  TRP282      0.0012
    169  CZ2      -14.0560    6.8450   34.8700 C.ar  282  TRP282      0.0191
    170  CZ3      -13.6310    5.0460   33.2880 C.ar  282  TRP282      0.0001
    171  CH2      -14.2670    5.5370   34.4260 C.ar  282  TRP282      0.0015
@<TRIPOS>BOND
     1    45    46    1
     2    48    47    2
     3    68    67    2
     4    58    57    2
     5    57    56    1
     6    47    46    1
     7    47    55   am
     8    46    49    1
     9    67    66    1
    10    65    66    1
    11    49    50    1
    12    56    55    1
    13    56    59    1
    14    66    69    1
    15    71    73   ar
    16    71    70   ar
    17    14    15    2
    18    14    13    1
    19    69    70    1
    20    73    75   ar
    21    77    78    1
    22    50    51   ar
    23    50    52   ar
    24    59    60    1
    25    70    72   ar
    26    13    12    1
    27    13    16    1
    28    80    79    2
    29    51    53   ar
    30    52    54   ar
    31    79    78    1
    32    75    76    1
    33    75    74   ar
    34    94    93    2
    35    78    81    1
    36    60    61   ar
    37    60    62   ar
    38    61    63   ar
    39    72    74   ar
    40    25    24    2
    41    16    17    1
    42    81    82    1
    43    91    92    1
    44    53    54   ar
    45    93    92    1
    46     3     4    2
    47     3     2    1
    48    63    64   ar
    49    17    19   ar
    50    17    18   ar
    51     9     7   ar
    52     9    11   ar
    53    19    21   ar
    54    62    64   ar
    55    26    23    1
    56    26    27    1
    57    23    24    1
    58    23    22    1
    59    24    31   am
    60    95    92    1
    61    95    96    1
    62     7     6   ar
    63     2     1    1
    64     2     5    1
    65    18    20   ar
    66    21    20   ar
    67    82    84   ar
    68    82    83   ar
    69    11    10   ar
    70    87    84   ar
    71    87    89   ar
    72    27    28    1
    73    31    32    1
    74    33    32    1
    75    33    34    2
    76    32    35    1
    77    96    98   ar
    78    96    97   ar
    79     6     5    1
    80     6     8   ar
    81    84    86   ar
    82   161   160    2
    83    83    85   ar
    84    89    90   ar
    85    10     8   ar
    86   160   159    1
    87    28    29   ar
    88    28    30   ar
    89    99   100    1
    90   115   116    2
    91   115   114    1
    92    35    36    1
    93    86    85   ar
    94    86    88   ar
    95   112   110   ar
    96   112   111   ar
    97    36    37   ar
    98    36    38   ar
    99    37    39   ar
   100    38    41   ar
   101    38    40   ar
   102    41    43   ar
   103    39    40   ar
   104    43    44   ar
   105    40    42   ar
   106    42    44   ar
   107   110   108   ar
   108   111   109   ar
   109   162   159    1
   110   162   163    1
   111    90    88   ar
   112   159   158    1
   113   108   107   ar
   114   108   106   ar
   115   101   100    1
   116   101   102    2
   117   109   106   ar
   118   117   114    1
   119   117   118    1
   120   107   105   ar
   121   114   113    1
   122   100   103    1
   123   106   104   ar
   124   118   119    1
   125   119   120    1
   126   105   104   ar
   127   163   165   ar
   128   163   164   ar
   129   168   165   ar
   130   168   170   ar
   131   104   103    1
   132   165   167   ar
   133   170   171   ar
   134   164   166   ar
   135   120   121    2
   136   167   166   ar
   137   167   169   ar
   138   122   121    1
   139   121   123    1
   140   148   149    1
   141   148   145    1
   142   171   169   ar
   143   145   144    1
   144   145   146    1
   145   131   130   ar
   146   132   130   ar
   147   130   129    1
   148   153   152    2
   149   146   147    2
   150   152   151    1
   151   129   128    1
   152   156   155    2
   153   128   125    1
   154   151   154    1
   155   151   150    1
   156   155   157   am
   157   155   154    1
   158   139   140    1
   159   139   138    1
   160   125   124    1
   161   125   126    1
   162   140   141    2
   163   138   137    1
   164   126   133   am
   165   126   127    2
   166   133   134    1
   167   141   143    1
   168   141   142    1
   169   137   134    1
   170   134   135    1
   171   135   136    2
