@<TRIPOS>MOLECULE
tmp/4jfuA00.pdb
 160 161 0 0 0
SMALL
GASTEIGER

@<TRIPOS>ATOM
      1  N        -12.3280   -1.0250   29.3430 N.3    30  PHE30      -0.1241
      2  CA       -12.7840    0.2050   28.6730 C.3    30  PHE30       0.1605
      3  C        -11.5700    0.7220   27.8910 C.2    30  PHE30       0.2264
      4  O        -10.4080    0.6330   28.3910 O.2    30  PHE30      -0.2867
      5  CB       -13.1340    1.2730   29.7160 C.3    30  PHE30       0.0534
      6  CG       -14.4200    2.0100   29.4340 C.ar   30  PHE30      -0.0203
      7  CD1      -14.5530    2.7650   28.2680 C.ar   30  PHE30      -0.0042
      8  CD2      -15.4820    1.9500   30.3390 C.ar   30  PHE30      -0.0042
      9  CE1      -15.7310    3.4440   27.9930 C.ar   30  PHE30      -0.0003
     10  CE2      -16.6800    2.6450   30.0490 C.ar   30  PHE30      -0.0003
     11  CZ       -16.7920    3.3770   28.8900 C.ar   30  PHE30      -0.0000
     12  N        -10.4000    4.3790   26.3630 N.3    32  HIS32      -0.1241
     13  CA       -10.5920    5.8080   26.0410 C.3    32  HIS32       0.1621
     14  C         -9.4460    6.2150   25.1600 C.2    32  HIS32       0.2264
     15  O         -8.2820    6.2460   25.6060 O.2    32  HIS32      -0.2867
     16  CB       -10.5540    6.6820   27.3150 C.3    32  HIS32       0.0745
     17  CG       -11.8770    6.8090   28.0030 C.ar   32  HIS32       0.0817
     18  ND1      -12.4570    5.7700   28.7060 N.ar   32  HIS32      -0.2268
     19  CD2      -12.7330    7.8620   28.0890 C.ar   32  HIS32       0.1154
     20  CE1      -13.6360    6.1820   29.1760 C.ar   32  HIS32       0.1986
     21  NE2      -13.8270    7.4360   28.7950 N.ar   32  HIS32      -0.2212
     22  N         -8.5690   13.5180   29.1790 N.3    53  GLU53      -0.1231
     23  CA        -9.5430   13.6210   28.0860 C.3    53  GLU53       0.1699
     24  C        -10.3370   14.9140   28.1250 C.2    53  GLU53       0.2592
     25  O        -10.9990   15.2420   27.1530 O.2    53  GLU53      -0.2718
     26  CB       -10.4430   12.3720   27.9990 C.3    53  GLU53       0.0402
     27  CG       -11.4650   12.2400   29.1220 C.3    53  GLU53       0.1161
     28  CD       -10.9420   11.8340   30.4800 C.2    53  GLU53       0.3649
     29  OE1       -9.7240   11.5470   30.6590 O.co2  53  GLU53      -0.2457
     30  OE2      -11.7780   11.8620   31.4080 O.co2  53  GLU53      -0.2457
     31  N        -10.2670   15.6460   29.2360 N.am   54  TRP54      -0.1976
     32  CA       -10.8750   16.9760   29.4010 C.3    54  TRP54       0.1640
     33  C         -9.8680   18.1550   29.2230 C.2    54  TRP54       0.2290
     34  O        -10.2040   19.3030   29.5160 O.2    54  TRP54      -0.2864
     35  CB       -11.5000   17.0660   30.8280 C.3    54  TRP54       0.0576
     36  CG       -12.8770   16.4720   30.9160 C.ar   54  TRP54       0.0006
     37  CD1      -13.2160   15.1500   30.9490 C.ar   54  TRP54       0.0946
     38  CD2      -14.0800   17.2150   31.0040 C.ar   54  TRP54       0.0152
     39  NE1      -14.6290   15.0220   31.0300 N.ar   54  TRP54      -0.2442
     40  CE2      -15.1560   16.2880   31.0390 C.ar   54  TRP54       0.0810
     41  CE3      -14.3610   18.6000   31.0180 C.ar   54  TRP54       0.0012
     42  CZ2      -16.5040   16.6960   31.1150 C.ar   54  TRP54       0.0191
     43  CZ3      -15.7080   19.0050   31.0780 C.ar   54  TRP54       0.0001
     44  CH2      -16.7580   18.0390   31.1320 C.ar   54  TRP54       0.0015
     45  N        -15.6030   10.9020   22.0440 N.3   101  HIS101     -0.1226
     46  CA       -15.6910   11.5230   23.3810 C.3   101  HIS101      0.1752
     47  C        -16.2160   12.9690   23.2880 C.2   101  HIS101      0.2596
     48  O        -16.6780   13.3790   22.2100 O.2   101  HIS101     -0.2718
     49  CB       -14.3370   11.4060   24.1250 C.3   101  HIS101      0.0759
     50  CG       -14.4800   11.4370   25.6230 C.ar  101  HIS101      0.0818
     51  ND1      -14.3990   12.6050   26.3520 N.ar  101  HIS101     -0.2268
     52  CD2      -14.6490   10.4390   26.5240 C.ar  101  HIS101      0.1154
     53  CE1      -14.5760   12.3330   27.6400 C.ar  101  HIS101      0.1986
     54  NE2      -14.7050   11.0180   27.7690 N.ar  101  HIS101     -0.2212
     55  N        -16.1380   13.7560   24.3750 N.am  102  HIS102     -0.1975
     56  CA       -16.7240   15.0960   24.3380 C.3   102  HIS102      0.1656
     57  C        -16.0980   15.9450   23.2250 C.2   102  HIS102      0.2291
     58  O        -16.7670   16.7700   22.6020 O.2   102  HIS102     -0.2864
     59  CB       -16.5800   15.8320   25.6950 C.3   102  HIS102      0.0771
     60  CG       -16.9670   15.0200   26.9070 C.ar  102  HIS102      0.0820
     61  ND1      -18.0060   14.0990   26.9220 N.ar  102  HIS102     -0.2267
     62  CD2      -16.4590   15.0280   28.1690 C.ar  102  HIS102      0.1154
     63  CE1      -18.1120   13.5780   28.1370 C.ar  102  HIS102      0.1986
     64  NE2      -17.1920   14.1310   28.9130 N.ar  102  HIS102     -0.2212
     65  N        -19.0850    3.2580   23.7030 N.3   144  TYR144     -0.1241
     66  CA       -19.2810    4.4770   24.4820 C.3   144  TYR144      0.1605
     67  C        -19.5800    5.5790   23.4530 C.2   144  TYR144      0.2264
     68  O        -18.9600    5.6280   22.3870 O.2   144  TYR144     -0.2867
     69  CB       -17.9300    4.8210   25.1830 C.3   144  TYR144      0.0534
     70  CG       -17.8500    6.2230   25.7740 C.ar  144  TYR144     -0.0201
     71  CD1      -17.7580    7.3640   24.9300 C.ar  144  TYR144     -0.0009
     72  CD2      -17.8610    6.4240   27.1620 C.ar  144  TYR144     -0.0009
     73  CE1      -17.6660    8.6760   25.4630 C.ar  144  TYR144      0.0417
     74  CE2      -17.7380    7.7390   27.6930 C.ar  144  TYR144      0.0417
     75  CZ       -17.6930    8.8300   26.8430 C.ar  144  TYR144      0.1957
     76  OH       -17.6180   10.1350   27.3020 O.3   144  TYR144     -0.2866
     77  N        -23.2260    2.7680   25.5100 N.3   193  TRP193     -0.1241
     78  CA       -23.0450    3.3540   26.8200 C.3   193  TRP193      0.1605
     79  C        -22.9000    4.8750   26.6160 C.2   193  TRP193      0.2264
     80  O        -21.8590    5.4070   26.1610 O.2   193  TRP193     -0.2867
     81  CB       -21.7760    2.7360   27.4520 C.3   193  TRP193      0.0550
     82  CG       -21.6430    2.9850   28.9460 C.ar  193  TRP193      0.0003
     83  CD1      -22.0270    2.1420   29.9340 C.ar  193  TRP193      0.0946
     84  CD2      -21.0500    4.1400   29.6000 C.ar  193  TRP193      0.0152
     85  NE1      -21.7350    2.6910   31.1790 N.ar  193  TRP193     -0.2442
     86  CE2      -21.1340    3.9080   31.0040 C.ar  193  TRP193      0.0810
     87  CE3      -20.4560    5.3340   29.1380 C.ar  193  TRP193      0.0012
     88  CZ2      -20.6100    4.8130   31.9650 C.ar  193  TRP193      0.0191
     89  CZ3      -19.9450    6.2600   30.0950 C.ar  193  TRP193      0.0001
     90  CH2      -20.0800    6.0060   31.4980 C.ar  193  TRP193      0.0015
     91  N        -22.7120    8.8700   27.4420 N.3   195  ASP195     -0.1239
     92  CA       -22.1710    9.8400   28.4060 C.3   195  ASP195      0.1674
     93  C        -22.5180   11.2410   27.9760 C.2   195  ASP195      0.2266
     94  O        -23.0010   11.4360   26.8660 O.2   195  ASP195     -0.2867
     95  CB       -20.6390    9.6590   28.4330 C.3   195  ASP195      0.1410
     96  CG       -19.9860   10.1810   29.7050 C.2   195  ASP195      0.3668
     97  OD1      -20.6790   10.5530   30.6800 O.co2 195  ASP195     -0.2456
     98  OD2      -18.7360   10.1500   29.7410 O.co2 195  ASP195     -0.2456
     99  N        -25.9240   14.9870   30.8400 N.3   198  TRP198     -0.1241
    100  CA       -26.3750   15.6250   32.0930 C.3   198  TRP198      0.1605
    101  C        -26.8530   17.0790   31.8790 C.2   198  TRP198      0.2264
    102  O        -27.3570   17.6840   32.8190 O.2   198  TRP198     -0.2867
    103  CB       -25.2580   15.6290   33.1550 C.3   198  TRP198      0.0550
    104  CG       -24.0450   16.2600   32.6320 C.ar  198  TRP198      0.0003
    105  CD1      -23.8300   17.5910   32.4420 C.ar  198  TRP198      0.0946
    106  CD2      -22.8830   15.5890   32.1300 C.ar  198  TRP198      0.0152
    107  NE1      -22.5980   17.8020   31.8940 N.ar  198  TRP198     -0.2442
    108  CE2      -21.9900   16.5970   31.6830 C.ar  198  TRP198      0.0810
    109  CE3      -22.4960   14.2400   32.0540 C.ar  198  TRP198      0.0012
    110  CZ2      -20.7330   16.3100   31.1370 C.ar  198  TRP198      0.0191
    111  CZ3      -21.2070   13.9530   31.5150 C.ar  198  TRP198      0.0001
    112  CH2      -20.3630   14.9940   31.0690 C.ar  198  TRP198      0.0015
    113  N        -19.1320    4.8260   39.0530 N.3   254  GLU254     -0.1231
    114  CA       -18.0520    5.1980   38.1780 C.3   254  GLU254      0.1699
    115  C        -17.0300    5.6590   39.1730 C.2   254  GLU254      0.2592
    116  O        -17.2060    6.6910   39.8560 O.2   254  GLU254     -0.2718
    117  CB       -18.5200    6.3240   37.2250 C.3   254  GLU254      0.0402
    118  CG       -17.4160    6.9420   36.3730 C.3   254  GLU254      0.1161
    119  CD       -17.9020    7.9960   35.3650 C.2   254  GLU254      0.3649
    120  OE1      -17.2250    9.0300   35.2230 O.co2 254  GLU254     -0.2457
    121  OE2      -18.9430    7.8100   34.6970 O.co2 254  GLU254     -0.2457
    122  N        -16.0060    4.8370   39.3440 N.am  255  ARG255     -0.1980
    123  CA       -14.9220    5.0970   40.2680 C.3   255  ARG255      0.1597
    124  C        -15.4350    5.0100   41.7370 C.2   255  ARG255      0.2287
    125  O        -14.8590    5.5640   42.6660 O.2   255  ARG255     -0.2864
    126  CB       -14.2170    6.4370   39.9510 C.3   255  ARG255      0.0334
    127  CG       -13.5780    6.5170   38.5070 C.3   255  ARG255      0.0492
    128  CD       -12.7100    7.7780   38.3120 C.3   255  ARG255      0.2205
    129  NE       -13.5130    8.9820   38.6760 N.pl3 255  ARG255     -0.0865
    130  CZ       -13.3590    9.7590   39.7610 C.cat 255  ARG255      0.5346
    131  NH1      -12.3730    9.5520   40.6200 N.pl3 255  ARG255      0.1354
    132  NH2      -14.1850   10.8010   39.9750 N.pl3 255  ARG255      0.1354
    133  N        -17.5730    1.1050   36.2750 N.3   274  CYS274     -0.1235
    134  CA       -16.3710    1.2690   35.4550 C.3   274  CYS274      0.1677
    135  C        -15.3740    1.9760   36.3450 C.2   274  CYS274      0.2270
    136  O        -15.7560    2.6700   37.3090 O.2   274  CYS274     -0.2867
    137  CB       -16.6500    2.0930   34.2080 C.3   274  CYS274      0.0956
    138  SG       -17.4550    3.6620   34.5580 S.3   274  CYS274     -0.0801
    139  N         -8.1990    9.4170   38.7050 N.3   280  ASN280     -0.1240
    140  CA        -9.1640   10.0380   37.7950 C.3   280  ASN280      0.1653
    141  C         -8.4880   10.4450   36.4910 C.2   280  ASN280      0.2266
    142  O         -8.3210   11.6310   36.2130 O.2   280  ASN280     -0.2867
    143  CB        -9.7720   11.2760   38.4610 C.3   280  ASN280      0.1155
    144  CG       -11.0030   11.7930   37.7400 C.2   280  ASN280      0.2627
    145  OD1      -11.5110   11.1770   36.8000 O.2   280  ASN280     -0.2716
    146  ND2      -11.4460   12.9780   38.1350 N.am  280  ASN280     -0.0877
    147  N         -8.9090    8.9580   32.4380 N.3   282  TRP282     -0.1241
    148  CA        -9.4790    7.9440   31.5400 C.3   282  TRP282      0.1605
    149  C         -8.6640    7.8970   30.2610 C.2   282  TRP282      0.2264
    150  O         -8.1790    6.8400   29.8630 O.2   282  TRP282     -0.2867
    151  CB       -10.9630    8.2510   31.2390 C.3   282  TRP282      0.0550
    152  CG       -11.8340    8.2450   32.4640 C.ar  282  TRP282      0.0003
    153  CD1      -12.0370    9.2850   33.3380 C.ar  282  TRP282      0.0946
    154  CD2      -12.6420    7.1380   32.9310 C.ar  282  TRP282      0.0152
    155  NE1      -12.9410    8.8860   34.3300 N.ar  282  TRP282     -0.2442
    156  CE2      -13.3190    7.5740   34.0920 C.ar  282  TRP282      0.0810
    157  CE3      -12.8540    5.8180   32.4590 C.ar  282  TRP282      0.0012
    158  CZ2      -14.1910    6.7280   34.8150 C.ar  282  TRP282      0.0191
    159  CZ3      -13.7030    4.9580   33.1800 C.ar  282  TRP282      0.0001
    160  CH2      -14.3690    5.4100   34.3430 C.ar  282  TRP282      0.0015
@<TRIPOS>BOND
     1    45    46    1
     2    48    47    2
     3    68    67    2
     4    58    57    2
     5    57    56    1
     6    47    46    1
     7    47    55   am
     8    46    49    1
     9    67    66    1
    10    65    66    1
    11    49    50    1
    12    56    55    1
    13    56    59    1
    14    66    69    1
    15    71    73   ar
    16    71    70   ar
    17    14    15    2
    18    14    13    1
    19    69    70    1
    20    73    75   ar
    21    77    78    1
    22    50    51   ar
    23    50    52   ar
    24    59    60    1
    25    70    72   ar
    26    13    12    1
    27    13    16    1
    28    80    79    2
    29    51    53   ar
    30    52    54   ar
    31    79    78    1
    32    78    81    1
    33    75    76    1
    34    75    74   ar
    35    94    93    2
    36    60    61   ar
    37    60    62   ar
    38    61    63   ar
    39    25    24    2
    40    72    74   ar
    41    16    17    1
    42    91    92    1
    43    81    82    1
    44    53    54   ar
    45     3     4    2
    46     3     2    1
    47    93    92    1
    48     9     7   ar
    49     9    11   ar
    50    26    23    1
    51    26    27    1
    52    17    19   ar
    53    17    18   ar
    54    23    24    1
    55    23    22    1
    56    19    21   ar
    57    24    31   am
    58    63    64   ar
    59    62    64   ar
    60     7     6   ar
    61    92    95    1
    62    95    96    1
    63     2     1    1
    64     2     5    1
    65    18    20   ar
    66    21    20   ar
    67    11    10   ar
    68    82    84   ar
    69    82    83   ar
    70    27    28    1
    71    87    84   ar
    72    87    89   ar
    73    33    32    1
    74    33    34    2
    75    31    32    1
    76    32    35    1
    77     6     5    1
    78     6     8   ar
    79    84    86   ar
    80    96    98   ar
    81    96    97   ar
    82   150   149    2
    83    83    85   ar
    84    10     8   ar
    85    89    90   ar
    86   149   148    1
    87    28    29   ar
    88    28    30   ar
    89    35    36    1
    90    99   100    1
    91    36    37   ar
    92    36    38   ar
    93    37    39   ar
    94    86    85   ar
    95    86    88   ar
    96    38    41   ar
    97    38    40   ar
    98    41    43   ar
    99    39    40   ar
   100    40    42   ar
   101   112   110   ar
   102   112   111   ar
   103    43    44   ar
   104    42    44   ar
   105   110   108   ar
   106   151   148    1
   107   151   152    1
   108    90    88   ar
   109   111   109   ar
   110   148   147    1
   111   108   107   ar
   112   108   106   ar
   113   101   100    1
   114   101   102    2
   115   107   105   ar
   116   109   106   ar
   117   100   103    1
   118   106   104   ar
   119   105   104   ar
   120   157   154   ar
   121   157   159   ar
   122   152   154   ar
   123   152   153   ar
   124   104   103    1
   125   154   156   ar
   126   159   160   ar
   127   153   155   ar
   128   156   155   ar
   129   156   158   ar
   130   137   138    1
   131   137   134    1
   132   160   158   ar
   133   121   119   ar
   134   120   119   ar
   135   119   118    1
   136   134   133    1
   137   134   135    1
   138   142   141    2
   139   135   136    2
   140   118   117    1
   141   141   140    1
   142   145   144    2
   143   117   114    1
   144   144   146   am
   145   144   143    1
   146   140   143    1
   147   140   139    1
   148   114   113    1
   149   114   115    1
   150   128   127    1
   151   128   129    1
   152   127   126    1
   153   129   130    2
   154   115   122   am
   155   115   116    2
   156   122   123    1
   157   130   132    1
   158   130   131    1
   159   126   123    1
   160   123   124    1
   161   124   125    2
