@<TRIPOS>MOLECULE
tmp/4jfvA00.pdb
 160 160 0 0 0
SMALL
GASTEIGER

@<TRIPOS>ATOM
      1  N         20.6390   -2.1060   52.1990 N.3    30  PHE30      -0.1241
      2  CA        21.6600   -1.1980   51.6910 C.3    30  PHE30       0.1605
      3  C         22.6250   -2.1050   50.9430 C.2    30  PHE30       0.2264
      4  O         22.8980   -3.1900   51.3820 O.2    30  PHE30      -0.2867
      5  CB        22.4310   -0.5200   52.8460 C.3    30  PHE30       0.0534
      6  CG        22.6350    0.9760   52.6730 C.ar   30  PHE30      -0.0203
      7  CD1       23.2890    1.4830   51.5470 C.ar   30  PHE30      -0.0042
      8  CD2       22.2560    1.8650   53.6690 C.ar   30  PHE30      -0.0042
      9  CE1       23.4840    2.8530   51.4080 C.ar   30  PHE30      -0.0003
     10  CE2       22.4370    3.2340   53.5260 C.ar   30  PHE30      -0.0003
     11  CZ        23.0700    3.7300   52.4180 C.ar   30  PHE30      -0.0000
     12  N         26.4840   -1.7700   49.4590 N.3    32  HIS32      -0.1241
     13  CA        27.7400   -1.0640   49.3160 C.3    32  HIS32       0.1621
     14  C         28.5500   -1.9460   48.4090 C.2    32  HIS32       0.2264
     15  O         29.0080   -3.0010   48.7890 O.2    32  HIS32      -0.2867
     16  CB        28.4710   -0.9090   50.6650 C.3    32  HIS32       0.0745
     17  CG        28.0700    0.3050   51.4160 C.ar   32  HIS32       0.0817
     18  ND1       26.8440    0.4220   52.0390 N.ar   32  HIS32      -0.2268
     19  CD2       28.7240    1.4700   51.6460 C.ar   32  HIS32       0.1154
     20  CE1       26.7570    1.6140   52.5950 C.ar   32  HIS32       0.1986
     21  NE2       27.8690    2.2830   52.3340 N.ar   32  HIS32      -0.2212
     22  N         35.4630   -0.4400   53.0060 N.3    53  GLU53      -0.1231
     23  CA        35.2180    0.5710   51.9930 C.3    53  GLU53       0.1699
     24  C         36.1220    1.8020   52.1780 C.2    53  GLU53       0.2592
     25  O         36.2600    2.6220   51.2530 O.2    53  GLU53      -0.2718
     26  CB        33.7350    0.9500   51.8580 C.3    53  GLU53       0.0402
     27  CG        33.0990    1.7860   52.9560 C.3    53  GLU53       0.1161
     28  CD        32.8900    1.0620   54.2770 C.2    53  GLU53       0.3649
     29  OE1       33.0480   -0.1860   54.3800 O.co2  53  GLU53      -0.2457
     30  OE2       32.5960    1.8290   55.2440 O.co2  53  GLU53      -0.2457
     31  N         36.7740    1.8680   53.3420 N.am   54  TRP54      -0.1976
     32  CA        37.7600    2.8960   53.6680 C.3    54  TRP54       0.1640
     33  C         39.2190    2.3630   53.5590 C.2    54  TRP54       0.2290
     34  O         40.1390    3.0430   53.9860 O.2    54  TRP54      -0.2864
     35  CB        37.5240    3.4320   55.1040 C.3    54  TRP54       0.0576
     36  CG        36.4720    4.4680   55.1700 C.ar   54  TRP54       0.0006
     37  CD1       35.1060    4.2850   55.0580 C.ar   54  TRP54       0.0946
     38  CD2       36.6680    5.8680   55.3170 C.ar   54  TRP54       0.0152
     39  NE1       34.4540    5.4750   55.1490 N.ar   54  TRP54      -0.2442
     40  CE2       35.3820    6.4740   55.3170 C.ar   54  TRP54       0.0810
     41  CE3       37.8070    6.6800   55.4910 C.ar   54  TRP54       0.0012
     42  CZ2       35.2050    7.8610   55.4270 C.ar   54  TRP54       0.0191
     43  CZ3       37.6360    8.0470   55.6160 C.ar   54  TRP54       0.0001
     44  CH2       36.3350    8.6300   55.5860 C.ar   54  TRP54       0.0015
     45  N         30.8750    5.7310   45.8740 N.3   101  HIS101     -0.1226
     46  CA        31.3210    5.8890   47.2420 C.3   101  HIS101      0.1752
     47  C         32.4800    6.8900   47.2380 C.2   101  HIS101      0.2596
     48  O         32.7400    7.5300   46.2100 O.2   101  HIS101     -0.2718
     49  CB        31.6530    4.5090   47.8940 C.3   101  HIS101      0.0759
     50  CG        31.5220    4.5090   49.3920 C.ar  101  HIS101      0.0818
     51  ND1       32.5930    4.7670   50.2190 N.ar  101  HIS101     -0.2268
     52  CD2       30.4470    4.3510   50.2060 C.ar  101  HIS101      0.1154
     53  CE1       32.1930    4.7420   51.4790 C.ar  101  HIS101      0.1986
     54  NE2       30.8890    4.5150   51.4960 N.ar  101  HIS101     -0.2212
     55  N         33.1530    7.0680   48.3760 N.am  102  HIS102     -0.1975
     56  CA        34.1990    8.0910   48.4710 C.3   102  HIS102      0.1656
     57  C         35.2800    7.8440   47.4110 C.2   102  HIS102      0.2291
     58  O         35.8750    8.7900   46.9410 O.2   102  HIS102     -0.2864
     59  CB        34.8750    8.1300   49.8630 C.3   102  HIS102      0.0771
     60  CG        33.9060    8.1350   51.0260 C.ar  102  HIS102      0.0820
     61  ND1       32.7000    8.8240   50.9990 N.ar  102  HIS102     -0.2267
     62  CD2       33.9840    7.5540   52.2510 C.ar  102  HIS102      0.1154
     63  CE1       32.0750    8.6540   52.1550 C.ar  102  HIS102      0.1986
     64  NE2       32.8320    7.8870   52.9300 N.ar  102  HIS102     -0.2212
     65  N         22.4040    6.0950   47.0610 N.3   144  TYR144     -0.1241
     66  CA        23.4430    6.6460   47.9060 C.3   144  TYR144      0.1605
     67  C         24.3530    7.4030   46.9770 C.2   144  TYR144      0.2264
     68  O         24.6910    6.9080   45.9130 O.2   144  TYR144     -0.2867
     69  CB        24.2270    5.4970   48.6030 C.3   144  TYR144      0.0534
     70  CG        25.5180    5.8470   49.2390 C.ar  144  TYR144     -0.0201
     71  CD1       26.6400    6.1740   48.4690 C.ar  144  TYR144     -0.0009
     72  CD2       25.6660    5.7980   50.6400 C.ar  144  TYR144     -0.0009
     73  CE1       27.8350    6.5040   49.0780 C.ar  144  TYR144      0.0417
     74  CE2       26.8650    6.1250   51.2380 C.ar  144  TYR144      0.0417
     75  CZ        27.9340    6.4940   50.4660 C.ar  144  TYR144      0.1957
     76  OH        29.0910    6.8820   51.1140 O.3   144  TYR144     -0.2866
     77  N         20.4650    9.8090   48.9430 N.3   193  TRP193     -0.1241
     78  CA        20.9800    9.7110   50.3060 C.3   193  TRP193      0.1605
     79  C         22.4360   10.0910   50.2050 C.2   193  TRP193      0.2264
     80  O         23.2800    9.2920   49.7910 O.2   193  TRP193     -0.2867
     81  CB        20.8640    8.2620   50.8370 C.3   193  TRP193      0.0550
     82  CG        21.0340    8.1140   52.3210 C.ar  193  TRP193      0.0003
     83  CD1       20.0440    8.1760   53.2590 C.ar  193  TRP193      0.0946
     84  CD2       22.2570    7.8960   53.0340 C.ar  193  TRP193      0.0152
     85  NE1       20.5810    8.0260   54.5060 N.ar  193  TRP193     -0.2442
     86  CE2       21.9320    7.8530   54.4030 C.ar  193  TRP193      0.0810
     87  CE3       23.6030    7.7830   52.6540 C.ar  193  TRP193      0.0012
     88  CZ2       22.8720    7.6340   55.3750 C.ar  193  TRP193      0.0191
     89  CZ3       24.5440    7.5300   53.6200 C.ar  193  TRP193      0.0001
     90  CH2       24.1870    7.5240   54.9820 C.ar  193  TRP193      0.0015
     91  N         26.1720   11.2770   51.4090 N.3   195  ASP195     -0.1239
     92  CA        27.1800   11.0070   52.3790 C.3   195  ASP195      0.1674
     93  C         28.4320   11.8660   52.0010 C.2   195  ASP195      0.2266
     94  O         28.4850   12.4640   50.9120 O.2   195  ASP195     -0.2867
     95  CB        27.5600    9.5300   52.3450 C.3   195  ASP195      0.1410
     96  CG        28.1750    9.0110   53.6500 C.2   195  ASP195      0.3668
     97  OD1       28.1580    9.7470   54.6640 O.co2 195  ASP195     -0.2456
     98  OD2       28.6100    7.8240   53.6810 O.co2 195  ASP195     -0.2456
     99  N         30.5680   16.1530   55.2950 N.3   198  TRP198     -0.1241
    100  CA        30.9250   16.7180   56.5930 C.3   198  TRP198      0.1605
    101  C         32.0750   17.7020   56.5130 C.2   198  TRP198      0.2264
    102  O         32.3450   18.3970   57.4720 O.2   198  TRP198     -0.2867
    103  CB        31.3110   15.6050   57.5730 C.3   198  TRP198      0.0550
    104  CG        32.2780   14.6520   57.0060 C.ar  198  TRP198      0.0003
    105  CD1       33.6280   14.8400   56.8160 C.ar  198  TRP198      0.0946
    106  CD2       31.9780   13.3180   56.5350 C.ar  198  TRP198      0.0152
    107  NE1       34.1750   13.7020   56.2410 N.ar  198  TRP198     -0.2442
    108  CE2       33.1880   12.7580   56.0610 C.ar  198  TRP198      0.0810
    109  CE3       30.7970   12.5540   56.4590 C.ar  198  TRP198      0.0012
    110  CZ2       33.2540   11.4520   55.5220 C.ar  198  TRP198      0.0191
    111  CZ3       30.8650   11.2600   55.9400 C.ar  198  TRP198      0.0001
    112  CH2       32.0850   10.7260   55.4740 C.ar  198  TRP198      0.0015
    113  N         21.4210   14.5350   55.7910 N.3   228  ARG228     -0.1245
    114  CA        22.8770   14.5110   55.8160 C.3   228  ARG228      0.1563
    115  C         23.4950   15.3630   54.7100 C.2   228  ARG228      0.2260
    116  O         24.6460   15.7810   54.8050 O.2   228  ARG228     -0.2867
    117  CB        23.3860   13.0870   55.7240 C.3   228  ARG228      0.0307
    118  CG        24.8980   12.9820   55.8920 C.3   228  ARG228      0.0489
    119  CD        25.4770   11.5890   56.1550 C.3   228  ARG228      0.2205
    120  NE        24.7540   10.8460   57.1900 N.pl3 228  ARG228     -0.0865
    121  CZ        25.1650    9.6880   57.7240 C.cat 228  ARG228      0.5346
    122  NH1       26.3380    9.1410   57.3540 N.pl3 228  ARG228      0.1354
    123  NH2       24.3980    9.0730   58.6350 N.pl3 228  ARG228      0.1354
    124  N         23.2450    5.9510   62.5010 N.3   254  GLU254     -0.1245
    125  CA        24.0140    5.0570   61.6620 C.3   254  GLU254      0.1567
    126  C         24.7270    4.1560   62.6250 C.2   254  GLU254      0.2260
    127  O         25.5560    4.6000   63.4000 O.2   254  GLU254     -0.2867
    128  CB        24.9490    5.8950   60.7720 C.3   254  GLU254      0.0388
    129  CG        26.0900    5.1220   60.1290 C.3   254  GLU254      0.1160
    130  CD        26.8930    5.9330   59.0980 C.2   254  GLU254      0.3649
    131  OE1       26.3250    6.8810   58.5180 O.co2 254  GLU254     -0.2457
    132  OE2       28.0850    5.6020   58.8760 O.co2 254  GLU254     -0.2457
    133  N         20.3830    3.2870   59.4700 N.3   274  CYS274     -0.1235
    134  CA        21.0430    2.2790   58.7290 C.3   274  CYS274      0.1677
    135  C         21.9610    1.5230   59.6440 C.2   274  CYS274      0.2270
    136  O         22.3910    2.0360   60.7070 O.2   274  CYS274     -0.2867
    137  CB        21.7920    2.8240   57.5240 C.3   274  CYS274      0.0956
    138  SG        22.9440    4.1690   57.9170 S.3   274  CYS274     -0.0801
    139  N         31.3790   -2.6910   62.1320 N.3   280  ASN280     -0.1240
    140  CA        31.5430   -1.5740   61.2370 C.3   280  ASN280      0.1653
    141  C         32.1970   -1.9890   59.9070 C.2   280  ASN280      0.2266
    142  O         33.3940   -1.7550   59.6860 O.2   280  ASN280     -0.2867
    143  CB        32.4050   -0.4810   61.8590 C.3   280  ASN280      0.1155
    144  CG        32.3620    0.8090   61.0570 C.2   280  ASN280      0.2627
    145  OD1       31.7510    0.8920   59.9730 O.2   280  ASN280     -0.2716
    146  ND2       32.9470    1.8410   61.6030 N.am  280  ASN280     -0.0877
    147  N         30.8420   -1.9010   55.8880 N.3   282  TRP282     -0.1241
    148  CA        29.8190   -1.6640   54.9250 C.3   282  TRP282      0.1605
    149  C         30.1280   -2.3500   53.6020 C.2   282  TRP282      0.2264
    150  O         29.3360   -3.1450   53.1250 O.2   282  TRP282     -0.2867
    151  CB        29.5740   -0.1910   54.7400 C.3   282  TRP282      0.0550
    152  CG        29.1680    0.5060   56.0140 C.ar  282  TRP282      0.0003
    153  CD1       29.9990    1.0040   56.9550 C.ar  282  TRP282      0.0946
    154  CD2       27.8380    0.8180   56.4370 C.ar  282  TRP282      0.0152
    155  NE1       29.2690    1.6160   57.9620 N.ar  282  TRP282     -0.2442
    156  CE2       27.9460    1.5340   57.6560 C.ar  282  TRP282      0.0810
    157  CE3       26.5740    0.6070   55.8980 C.ar  282  TRP282      0.0012
    158  CZ2       26.8310    1.9940   58.3500 C.ar  282  TRP282      0.0191
    159  CZ3       25.4790    1.0130   56.5940 C.ar  282  TRP282      0.0001
    160  CH2       25.6110    1.7410   57.8050 C.ar  282  TRP282      0.0015
@<TRIPOS>BOND
     1    45    46    1
     2    68    67    2
     3    48    47    2
     4    58    57    2
     5    67    66    1
     6    65    66    1
     7    47    46    1
     8    47    55   am
     9    46    49    1
    10    57    56    1
    11    49    50    1
    12    66    69    1
    13    55    56    1
    14    14    15    2
    15    14    13    1
    16    71    73   ar
    17    71    70   ar
    18    56    59    1
    19    69    70    1
    20    77    78    1
    21    73    75   ar
    22    70    72   ar
    23    13    12    1
    24    13    16    1
    25    50    52   ar
    26    50    51   ar
    27    80    79    2
    28    59    60    1
    29    79    78    1
    30    52    54   ar
    31    51    53   ar
    32    78    81    1
    33    75    76    1
    34    75    74   ar
    35    72    74   ar
    36    16    17    1
    37    81    82    1
    38    94    93    2
    39     3     4    2
    40     3     2    1
    41    61    60   ar
    42    61    63   ar
    43    60    62   ar
    44    25    24    2
    45     9     7   ar
    46     9    11   ar
    47    91    92    1
    48    17    19   ar
    49    17    18   ar
    50    53    54   ar
    51     7     6   ar
    52    19    21   ar
    53     2     1    1
    54     2     5    1
    55    26    23    1
    56    26    27    1
    57    23    24    1
    58    23    22    1
    59    93    92    1
    60    18    20   ar
    61    63    64   ar
    62    24    31   am
    63    62    64   ar
    64    82    84   ar
    65    82    83   ar
    66    21    20   ar
    67    95    92    1
    68    95    96    1
    69    11    10   ar
    70    87    84   ar
    71    87    89   ar
    72     6     5    1
    73     6     8   ar
    74    27    28    1
    75    84    86   ar
    76   150   149    2
    77    83    85   ar
    78    31    32    1
    79    10     8   ar
    80    33    32    1
    81    33    34    2
    82   149   148    1
    83    89    90   ar
    84    96    98   ar
    85    96    97   ar
    86    32    35    1
    87    28    29   ar
    88    28    30   ar
    89    86    85   ar
    90    86    88   ar
    91   115   116    2
    92   115   114    1
    93   151   148    1
    94   151   152    1
    95   148   147    1
    96    90    88   ar
    97    37    39   ar
    98    37    36   ar
    99    35    36    1
   100    39    40   ar
   101    36    38   ar
   102    99   100    1
   103    38    40   ar
   104    38    41   ar
   105    40    42   ar
   106    42    44   ar
   107   112   110   ar
   108   112   111   ar
   109    41    43   ar
   110   110   108   ar
   111    44    43   ar
   112   117   114    1
   113   117   118    1
   114   113   114    1
   115   118   119    1
   116   157   154   ar
   117   157   159   ar
   118   111   109   ar
   119   152   154   ar
   120   152   153   ar
   121   108   107   ar
   122   108   106   ar
   123   119   120    1
   124   107   105   ar
   125   154   156   ar
   126   109   106   ar
   127   101   100    1
   128   101   102    2
   129   106   104   ar
   130   100   103    1
   131   159   160   ar
   132   105   104   ar
   133   153   155   ar
   134   104   103    1
   135   120   121    2
   136   122   121    1
   137   137   138    1
   138   137   134    1
   139   156   155   ar
   140   156   158   ar
   141   121   123    1
   142   160   158   ar
   143   131   130   ar
   144   134   133    1
   145   134   135    1
   146   132   130   ar
   147   130   129    1
   148   135   136    2
   149   142   141    2
   150   141   140    1
   151   145   144    2
   152   129   128    1
   153   128   125    1
   154   144   146   am
   155   144   143    1
   156   140   143    1
   157   140   139    1
   158   125   124    1
   159   125   126    1
   160   126   127    2
