@<TRIPOS>MOLECULE
tmp/4jfwB00.pdb
 160 161 0 0 0
SMALL
GASTEIGER

@<TRIPOS>ATOM
      1  N         13.1230   39.1160    9.5130 N.3    30  PHE30      -0.1241
      2  CA        12.2480   40.0690   10.1550 C.3    30  PHE30       0.1605
      3  C         11.1410   39.2340   10.7810 C.2    30  PHE30       0.2264
      4  O         10.6790   38.3240   10.1680 O.2    30  PHE30      -0.2867
      5  CB        11.6270   41.0040    9.1140 C.3    30  PHE30       0.0534
      6  CG        11.6980   42.4470    9.4730 C.ar   30  PHE30      -0.0203
      7  CD1       11.2490   42.8700   10.6780 C.ar   30  PHE30      -0.0042
      8  CD2       12.2180   43.3550    8.6010 C.ar   30  PHE30      -0.0042
      9  CE1       11.3130   44.1880   11.0160 C.ar   30  PHE30      -0.0003
     10  CE2       12.3040   44.6750    8.9210 C.ar   30  PHE30      -0.0003
     11  CZ        11.8790   45.0890   10.1490 C.ar   30  PHE30      -0.0000
     12  N          7.3710   39.8920   12.2940 N.3    32  HIS32      -0.1241
     13  CA         6.2200   40.7240   12.6600 C.3    32  HIS32       0.1621
     14  C          5.2230   39.8620   13.4170 C.2    32  HIS32       0.2264
     15  O          4.5490   39.0300   12.8140 O.2    32  HIS32      -0.2867
     16  CB         5.5390   41.3410   11.4320 C.3    32  HIS32       0.0745
     17  CG         6.2090   42.5690   10.9440 C.ar   32  HIS32       0.0817
     18  ND1        7.4020   42.5360   10.2680 N.ar   32  HIS32      -0.2268
     19  CD2        5.8590   43.8650   11.0280 C.ar   32  HIS32       0.1154
     20  CE1        7.7790   43.7690    9.9780 C.ar   32  HIS32       0.1986
     21  NE2        6.8570   44.5970   10.4310 N.ar   32  HIS32      -0.2212
     22  N         -1.1040   43.6970    9.2230 N.3    53  GLU53      -0.1231
     23  CA        -0.7050   44.4230   10.4260 C.3    53  GLU53       0.1699
     24  C         -1.3470   45.8220   10.5110 C.2    53  GLU53       0.2592
     25  O         -1.2040   46.5300   11.5160 O.2    53  GLU53      -0.2718
     26  CB         0.8360   44.4570   10.5830 C.3    53  GLU53       0.0402
     27  CG         1.5930   45.4500    9.7240 C.3    53  GLU53       0.1161
     28  CD         1.8070   45.0290    8.2640 C.2    53  GLU53       0.3649
     29  OE1        1.4930   43.8770    7.8550 O.co2  53  GLU53      -0.2457
     30  OE2        2.3500   45.8850    7.5250 O.co2  53  GLU53      -0.2457
     31  N         -2.0430   46.2020    9.4390 N.am   54  TRP54      -0.1976
     32  CA        -2.7230   47.4860    9.3280 C.3    54  TRP54       0.1640
     33  C         -4.2360   47.2870    9.3190 C.2    54  TRP54       0.2290
     34  O         -4.9720   48.2160    9.0420 O.2    54  TRP54      -0.2864
     35  CB        -2.3030   48.2030    8.0340 C.3    54  TRP54       0.0576
     36  CG        -1.1010   49.0290    8.2090 C.ar   54  TRP54       0.0006
     37  CD1        0.1670   48.5860    8.3520 C.ar   54  TRP54       0.0946
     38  CD2       -1.0380   50.4530    8.2600 C.ar   54  TRP54       0.0152
     39  NE1        1.0170   49.6410    8.4900 N.ar   54  TRP54      -0.2442
     40  CE2        0.3050   50.7990    8.4460 C.ar   54  TRP54       0.0810
     41  CE3       -1.9920   51.4730    8.1840 C.ar   54  TRP54       0.0012
     42  CZ2        0.7350   52.1180    8.5370 C.ar   54  TRP54       0.0191
     43  CZ3       -1.5640   52.8020    8.2830 C.ar   54  TRP54       0.0001
     44  CH2       -0.2200   53.1060    8.4600 C.ar   54  TRP54       0.0015
     45  N          4.4600   47.2570   17.3730 N.3   101  HIS101     -0.1226
     46  CA         4.0750   47.8190   16.0620 C.3   101  HIS101      0.1752
     47  C          3.1490   49.0410   16.2910 C.2   101  HIS101      0.2596
     48  O          3.0910   49.5620   17.4140 O.2   101  HIS101     -0.2718
     49  CB         3.4660   46.7370   15.1590 C.3   101  HIS101      0.0759
     50  CG         3.6420   47.0050   13.6950 C.ar  101  HIS101      0.0818
     51  ND1        2.6420   47.5340   12.9120 N.ar  101  HIS101     -0.2268
     52  CD2        4.7190   46.8770   12.8890 C.ar  101  HIS101      0.1154
     53  CE1        3.0880   47.7090   11.6850 C.ar  101  HIS101      0.1986
     54  NE2        4.3450   47.3080   11.6390 N.ar  101  HIS101     -0.2212
     55  N          2.4970   49.5480   15.2410 N.am  102  HIS102     -0.1975
     56  CA         1.6850   50.7820   15.3350 C.3   102  HIS102      0.1656
     57  C          0.5650   50.6290   16.3430 C.2   102  HIS102      0.2291
     58  O          0.1740   51.5960   17.0050 O.2   102  HIS102     -0.2864
     59  CB         1.0700   51.1880   13.9740 C.3   102  HIS102      0.0771
     60  CG         2.0670   51.2690   12.8510 C.ar  102  HIS102      0.0820
     61  ND1        3.3700   51.6820   13.0330 N.ar  102  HIS102     -0.2267
     62  CD2        1.9570   50.9550   11.5370 C.ar  102  HIS102      0.1154
     63  CE1        4.0210   51.6130   11.8860 C.ar  102  HIS102      0.1986
     64  NE2        3.1870   51.1670   10.9620 N.ar  102  HIS102     -0.2212
     65  N         12.8310   46.2090   16.2660 N.3   144  TYR144     -0.1241
     66  CA        11.9590   47.0580   15.5180 C.3   144  TYR144      0.1605
     67  C         11.1040   47.8020   16.5470 C.2   144  TYR144      0.2264
     68  O         10.6040   47.1950   17.4840 O.2   144  TYR144     -0.2867
     69  CB        11.0680   46.2320   14.5850 C.3   144  TYR144      0.0534
     70  CG         9.9040   46.9920   13.9760 C.ar  144  TYR144     -0.0201
     71  CD1        8.8010   47.3620   14.7480 C.ar  144  TYR144     -0.0009
     72  CD2        9.8840   47.3360   12.6300 C.ar  144  TYR144     -0.0009
     73  CE1        7.7270   48.0580   14.1850 C.ar  144  TYR144      0.0417
     74  CE2        8.8190   48.0440   12.0690 C.ar  144  TYR144      0.0417
     75  CZ         7.7360   48.3860   12.8500 C.ar  144  TYR144      0.1957
     76  OH         6.6700   49.0720   12.2940 O.3   144  TYR144     -0.2866
     77  N         15.6080   49.6490   14.9610 N.3   193  TRP193     -0.1241
     78  CA        15.1060   49.9920   13.6300 C.3   193  TRP193      0.1605
     79  C         13.7630   50.6470   13.8060 C.2   193  TRP193      0.2264
     80  O         12.7710   49.9780   14.1240 O.2   193  TRP193     -0.2867
     81  CB        14.9520   48.7350   12.8040 C.3   193  TRP193      0.0550
     82  CG        14.8020   48.9510   11.3180 C.ar  193  TRP193      0.0003
     83  CD1       15.8030   49.0080   10.4140 C.ar  193  TRP193      0.0946
     84  CD2       13.6010   49.0770   10.5870 C.ar  193  TRP193      0.0152
     85  NE1       15.3100   49.1400    9.1770 N.ar  193  TRP193     -0.2442
     86  CE2       13.9530   49.1920    9.2400 C.ar  193  TRP193      0.0810
     87  CE3       12.2530   49.1010   10.9310 C.ar  193  TRP193      0.0012
     88  CZ2       13.0020   49.3470    8.2110 C.ar  193  TRP193      0.0191
     89  CZ3       11.3060   49.2610    9.9040 C.ar  193  TRP193      0.0001
     90  CH2       11.6930   49.3810    8.5740 C.ar  193  TRP193      0.0015
     91  N         10.3600   52.7970   12.8860 N.3   195  ASP195     -0.1239
     92  CA         9.3170   52.9130   11.8690 C.3   195  ASP195      0.1674
     93  C          8.2440   53.8630   12.4210 C.2   195  ASP195      0.2266
     94  O          8.2580   54.2060   13.5980 O.2   195  ASP195     -0.2867
     95  CB         8.7160   51.5170   11.6140 C.3   195  ASP195      0.1410
     96  CG         8.0400   51.3820   10.2410 C.2   195  ASP195      0.3668
     97  OD1        8.1450   52.2860    9.4160 O.co2 195  ASP195     -0.2456
     98  OD2        7.4020   50.3360   10.0070 O.co2 195  ASP195     -0.2456
     99  N          7.0120   58.9820    9.9960 N.3   198  TRP198     -0.1227
    100  CA         6.7890   59.7890    8.7710 C.3   198  TRP198      0.1737
    101  C          5.9160   61.0020    8.9910 C.2   198  TRP198      0.2595
    102  O          5.9690   61.9490    8.2270 O.2   198  TRP198     -0.2718
    103  CB         6.2040   58.9370    7.6410 C.3   198  TRP198      0.0564
    104  CG         5.0680   58.0730    8.0610 C.ar  198  TRP198      0.0003
    105  CD1        3.7830   58.4620    8.2860 C.ar  198  TRP198      0.0946
    106  CD2        5.1130   56.6660    8.3050 C.ar  198  TRP198      0.0152
    107  NE1        3.0120   57.3860    8.6400 N.ar  198  TRP198     -0.2442
    108  CE2        3.8070   56.2680    8.6760 C.ar  198  TRP198      0.0810
    109  CE3        6.1270   55.7030    8.2580 C.ar  198  TRP198      0.0012
    110  CZ2        3.4850   54.9450    9.0060 C.ar  198  TRP198      0.0191
    111  CZ3        5.8010   54.3730    8.5800 C.ar  198  TRP198      0.0001
    112  CH2        4.4890   54.0120    8.9360 C.ar  198  TRP198      0.0015
    113  N          5.1150   60.9800   10.0450 N.am  199  ASP199     -0.1974
    114  CA         4.1880   62.0730   10.3040 C.3   199  ASP199      0.1709
    115  C          4.8910   63.4250   10.5330 C.2   199  ASP199      0.2293
    116  O          6.0550   63.5120   10.9780 O.2   199  ASP199     -0.2864
    117  CB         3.2620   61.7220   11.4760 C.3   199  ASP199      0.1436
    118  CG         2.3190   60.5880   11.1450 C.2   199  ASP199      0.3671
    119  OD1        1.7090   60.6240   10.0550 O.co2 199  ASP199     -0.2456
    120  OD2        2.1750   59.6500   11.9760 O.co2 199  ASP199     -0.2456
    121  N         15.7620   55.8200    9.1920 N.3   228  ARG228     -0.1245
    122  CA        14.3330   56.1610    9.1990 C.3   228  ARG228      0.1563
    123  C         13.8780   56.9130   10.4530 C.2   228  ARG228      0.2260
    124  O         12.8160   57.5430   10.4960 O.2   228  ARG228     -0.2867
    125  CB        13.5180   54.8860    9.0180 C.3   228  ARG228      0.0307
    126  CG        12.0690   55.1580    8.7220 C.3   228  ARG228      0.0489
    127  CD        11.2800   53.9330    8.2990 C.3   228  ARG228      0.2205
    128  NE        11.8420   53.2340    7.1410 N.pl3 228  ARG228     -0.0865
    129  CZ        11.1940   52.2730    6.4760 C.cat 228  ARG228      0.5346
    130  NH1        9.9640   51.9070    6.8530 N.pl3 228  ARG228      0.1354
    131  NH2       11.7680   51.6580    5.4450 N.pl3 228  ARG228      0.1354
    132  N         12.4520   49.1920    1.0980 N.3   254  GLU254     -0.1245
    133  CA        11.4310   48.3640    1.6640 C.3   254  GLU254      0.1567
    134  C         10.6090   47.8400    0.4800 C.2   254  GLU254      0.2260
    135  O          9.9390   48.5860   -0.2130 O.2   254  GLU254     -0.2867
    136  CB        10.6200   49.1800    2.6770 C.3   254  GLU254      0.0388
    137  CG         9.3840   48.4960    3.2510 C.3   254  GLU254      0.1160
    138  CD         8.7590   49.2400    4.4650 C.2   254  GLU254      0.3649
    139  OE1        9.4780   49.9790    5.1580 O.co2 254  GLU254     -0.2457
    140  OE2        7.5640   49.0830    4.7740 O.co2 254  GLU254     -0.2457
    141  N         14.6560   45.4450    3.3210 N.3   274  CYS274     -0.1235
    142  CA        13.7900   44.4080    3.8470 C.3   274  CYS274      0.1677
    143  C         12.6970   44.0780    2.8160 C.2   274  CYS274      0.2270
    144  O         12.4500   44.8420    1.8980 O.2   274  CYS274     -0.2867
    145  CB        13.1690   44.8470    5.1420 C.3   274  CYS274      0.0956
    146  SG        12.3780   46.4680    5.0360 S.3   274  CYS274     -0.0801
    147  N          3.2160   41.8910    6.1620 N.3   282  TRP282     -0.1241
    148  CA         4.2900   41.6820    7.1320 C.3   282  TRP282      0.1605
    149  C          3.7930   40.8400    8.2670 C.2   282  TRP282      0.2264
    150  O          4.3620   39.7880    8.6070 O.2   282  TRP282     -0.2867
    151  CB         4.8020   42.9920    7.5970 C.3   282  TRP282      0.0550
    152  CG         5.3160   43.8580    6.4690 C.ar  282  TRP282      0.0003
    153  CD1        4.5880   44.6960    5.6990 C.ar  282  TRP282      0.0946
    154  CD2        6.6690   44.0240    6.0610 C.ar  282  TRP282      0.0152
    155  NE1        5.3900   45.3460    4.8020 N.ar  282  TRP282     -0.2442
    156  CE2        6.6810   44.9640    5.0220 C.ar  282  TRP282      0.0810
    157  CE3        7.8840   43.4830    6.4920 C.ar  282  TRP282      0.0012
    158  CZ2        7.8520   45.3700    4.3900 C.ar  282  TRP282      0.0191
    159  CZ3        9.0600   43.8700    5.8430 C.ar  282  TRP282      0.0001
    160  CH2        9.0370   44.8140    4.8210 C.ar  282  TRP282      0.0015
@<TRIPOS>BOND
     1   135   134    2
     2   134   133    1
     3   132   133    1
     4   133   136    1
     5   144   143    2
     6   136   137    1
     7   143   142    1
     8   137   138    1
     9   141   142    1
    10   142   145    1
    11   158   160   ar
    12   158   156   ar
    13   138   140   ar
    14   138   139   ar
    15   155   156   ar
    16   155   153   ar
    17   160   159   ar
    18   156   154   ar
    19   146   145    1
    20   131   129    1
    21   153   152   ar
    22   159   157   ar
    23   154   152   ar
    24   154   157   ar
    25   147   148    1
    26   152   151    1
    27   129   130    1
    28   129   128    2
    29   148   151    1
    30   148   149    1
    31   128   127    1
    32    30    28   ar
    33   103   104    1
    34   103   100    1
    35    29    28   ar
    36    35    36    1
    37    35    32    1
    38   104   105   ar
    39   104   106   ar
    40    41    38   ar
    41    41    43   ar
    42    36    38   ar
    43    36    37   ar
    44    88    90   ar
    45    88    86   ar
    46   102   101    2
    47   109   106   ar
    48   109   111   ar
    49    38    40   ar
    50    28    27    1
    51   149   150    2
    52    43    44   ar
    53   105   107   ar
    54   127   126    1
    55   106   108   ar
    56    37    39   ar
    57    40    39   ar
    58    40    42   ar
    59    44    42   ar
    60    90    89   ar
    61   111   112   ar
    62     8    10   ar
    63     8     6   ar
    64   107   108   ar
    65   108   110   ar
    66   126   125    1
    67   100   101    1
    68   100    99    1
    69    10    11   ar
    70   112   110   ar
    71   101   113   am
    72   125   122    1
    73    34    33    2
    74     5     6    1
    75     5     2    1
    76    85    86   ar
    77    85    83   ar
    78   121   122    1
    79   122   123    1
    80    22    23    1
    81    86    84   ar
    82    33    32    1
    83    32    31    1
    84    97    96   ar
    85    31    24   am
    86     6     7   ar
    87     1     2    1
    88    27    26    1
    89    89    87   ar
    90    20    18   ar
    91    20    21   ar
    92    98    96   ar
    93   113   114    1
    94   119   118   ar
    95    11     9   ar
    96     2     3    1
    97     4     3    2
    98    96    95    1
    99    18    17   ar
   100   114   115    1
   101   114   117    1
   102    83    82   ar
   103    23    24    1
   104    23    26    1
   105    21    19   ar
   106   123   124    2
   107    24    25    2
   108   115   116    2
   109    84    87   ar
   110    84    82   ar
   111     7     9   ar
   112    17    19   ar
   113    17    16    1
   114    64    62   ar
   115    64    63   ar
   116   118   117    1
   117   118   120   ar
   118    82    81    1
   119    16    13    1
   120    62    60   ar
   121    95    92    1
   122    54    53   ar
   123    54    52   ar
   124    53    51   ar
   125    92    93    1
   126    92    91    1
   127    63    61   ar
   128    74    72   ar
   129    74    75   ar
   130    76    75    1
   131    12    13    1
   132    93    94    2
   133    72    70   ar
   134    13    14    1
   135    81    78    1
   136    15    14    2
   137    75    73   ar
   138    60    61   ar
   139    60    59    1
   140    52    50   ar
   141    51    50   ar
   142    78    79    1
   143    78    77    1
   144    50    49    1
   145    79    80    2
   146    59    56    1
   147    70    69    1
   148    70    71   ar
   149    73    71   ar
   150    69    66    1
   151    49    46    1
   152    55    56    1
   153    55    47   am
   154    56    57    1
   155    66    65    1
   156    66    67    1
   157    46    47    1
   158    46    45    1
   159    47    48    2
   160    57    58    2
   161    67    68    2
