@<TRIPOS>MOLECULE
tmp/4jfxD00.pdb
 105 101 0 0 0
SMALL
GASTEIGER

@<TRIPOS>ATOM
      1  N         28.9250  -46.4560  -44.3210 N.3    31  LYS31      -0.1245
      2  CA        28.6160  -46.8040  -45.7090 C.3    31  LYS31       0.1561
      3  C         29.5910  -46.2180  -46.7510 C.2    31  LYS31       0.2260
      4  O         29.4320  -46.4530  -47.9520 O.2    31  LYS31      -0.2867
      5  CB        27.1660  -46.4420  -46.0620 C.3    31  LYS31       0.0271
      6  CG        26.1260  -47.2610  -45.3060 C.3    31  LYS31       0.0035
      7  CD        24.8630  -47.4420  -46.1360 C.3    31  LYS31       0.0206
      8  CE        23.8140  -48.2780  -45.4060 C.3    31  LYS31       0.1093
      9  NZ        22.6450  -48.6080  -46.2790 N.3    31  LYS31      -0.1314
     10  N         33.7250  -45.3850  -48.0870 N.3    33  GLY33      -0.1225
     11  CA        35.1700  -45.4920  -47.9870 C.3    33  GLY33       0.1811
     12  C         35.6960  -44.1060  -47.6420 C.2    33  GLY33       0.2280
     13  O         34.9820  -43.1180  -47.8350 O.2    33  GLY33      -0.2866
     14  N         38.4130  -49.2900  -46.5240 N.3    52  VAL52      -0.1231
     15  CA        37.0720  -49.7320  -46.8840 C.3    52  VAL52       0.1692
     16  C         36.0730  -49.4250  -45.7740 C.2    52  VAL52       0.2593
     17  O         36.4590  -49.1550  -44.6300 O.2    52  VAL52      -0.2718
     18  CB        37.0400  -51.2440  -47.1820 C.3    52  VAL52       0.0266
     19  CG1       37.9510  -51.5710  -48.3810 C.3    52  VAL52       0.0020
     20  CG2       37.4280  -52.0520  -45.9140 C.3    52  VAL52       0.0020
     21  N         34.7920  -49.4870  -46.1210 N.am   53  THR53      -0.1939
     22  CA        33.7020  -49.2080  -45.1800 C.3    53  THR53       0.2028
     23  C         33.8910  -49.8580  -43.8120 C.2    53  THR53       0.2642
     24  O         33.8420  -49.1770  -42.7850 O.2    53  THR53      -0.2714
     25  CB        32.3440  -49.6470  -45.7630 C.3    53  THR53       0.1808
     26  OG1       32.4510  -50.9840  -46.2740 O.3    53  THR53      -0.2208
     27  CG2       31.9260  -48.7130  -46.8900 C.3    53  THR53       0.0379
     28  N         34.1360  -51.1670  -43.8040 N.am   54  GLY54      -0.1954
     29  CA        34.2760  -51.9180  -42.5660 C.3    54  GLY54       0.1869
     30  C         35.5740  -51.6830  -41.8080 C.2    54  GLY54       0.2309
     31  O         35.6370  -51.8840  -40.6010 O.2    54  GLY54      -0.2863
     32  N         38.6280  -53.1760  -42.4140 N.3    56  ARG56      -0.1231
     33  CA        39.5530  -54.3060  -42.3290 C.3    56  ARG56       0.1694
     34  C         40.4830  -54.4110  -43.5240 C.2    56  ARG56       0.2591
     35  O         41.3440  -55.2800  -43.5580 O.2    56  ARG56      -0.2718
     36  CB        38.8070  -55.6310  -42.1430 C.3    56  ARG56       0.0321
     37  CG        38.0200  -55.7490  -40.8550 C.3    56  ARG56       0.0489
     38  CD        37.4760  -57.1780  -40.6720 C.3    56  ARG56       0.2205
     39  NE        36.6810  -57.6180  -41.8240 N.pl3  56  ARG56      -0.0865
     40  CZ        37.0530  -58.5690  -42.6800 C.cat  56  ARG56       0.5346
     41  NH1       38.2070  -59.2000  -42.5150 N.pl3  56  ARG56       0.1354
     42  NH2       36.2650  -58.8970  -43.6960 N.pl3  56  ARG56       0.1354
     43  N         40.3070  -53.5330  -44.5100 N.am   57  LYS57      -0.1980
     44  CA        41.1780  -53.5260  -45.6790 C.3    57  LYS57       0.1596
     45  C         41.6050  -52.0950  -46.0130 C.2    57  LYS57       0.2287
     46  O         40.7840  -51.1700  -45.9590 O.2    57  LYS57      -0.2864
     47  CB        40.4920  -54.1960  -46.8740 C.3    57  LYS57       0.0298
     48  CG        41.3720  -54.2650  -48.1150 C.3    57  LYS57       0.0038
     49  CD        40.8370  -55.2660  -49.1280 C.3    57  LYS57       0.0206
     50  CE        40.9220  -56.6770  -48.5730 C.3    57  LYS57       0.1093
     51  NZ        40.7640  -57.6970  -49.6350 N.3    57  LYS57      -0.1314
     52  N         44.7290  -49.3830  -48.2210 N.3    59  TYR59      -0.1241
     53  CA        45.6890  -49.2330  -49.3050 C.3    59  TYR59       0.1605
     54  C         46.5570  -48.0180  -49.0080 C.2    59  TYR59       0.2264
     55  O         46.0530  -47.0250  -48.4790 O.2    59  TYR59      -0.2867
     56  CB        44.9590  -49.0130  -50.6300 C.3    59  TYR59       0.0534
     57  CG        43.9260  -50.0600  -50.9610 C.ar   59  TYR59      -0.0201
     58  CD1       42.6080  -49.9140  -50.5430 C.ar   59  TYR59      -0.0009
     59  CD2       44.2590  -51.1860  -51.7060 C.ar   59  TYR59      -0.0009
     60  CE1       41.6520  -50.8650  -50.8230 C.ar   59  TYR59       0.0417
     61  CE2       43.2930  -52.1620  -51.9990 C.ar   59  TYR59       0.0417
     62  CZ        41.9960  -51.9800  -51.5600 C.ar   59  TYR59       0.1957
     63  OH        41.0270  -52.9050  -51.8550 O.3    59  TYR59      -0.2866
     64  N         31.2610  -42.6280  -53.8160 N.3   101  SER101     -0.1202
     65  CA        30.3280  -43.6790  -54.2170 C.3   101  SER101      0.2020
     66  C         30.7000  -44.9550  -53.4980 C.2   101  SER101      0.2619
     67  O         31.7490  -45.0270  -52.8690 O.2   101  SER101     -0.2717
     68  CB        30.3920  -43.9170  -55.7240 C.3   101  SER101      0.2103
     69  OG        31.3840  -44.8850  -56.0340 O.3   101  SER101     -0.2182
     70  N         29.8570  -45.9720  -53.6090 N.am  102  SER102     -0.1937
     71  CA        30.0980  -47.2270  -52.9050 C.3   102  SER102      0.2055
     72  C         31.2150  -48.0510  -53.5420 C.2   102  SER102      0.2644
     73  O         31.6590  -49.0510  -52.9770 O.2   102  SER102     -0.2714
     74  CB        28.8150  -48.0560  -52.8520 C.3   102  SER102      0.2130
     75  OG        28.3770  -48.3550  -54.1670 O.3   102  SER102     -0.2179
     76  N         31.6650  -47.6380  -54.7230 N.am  103  THR103     -0.1936
     77  CA        32.6820  -48.3930  -55.4420 C.3   103  THR103      0.2028
     78  C         33.9330  -47.5700  -55.7730 C.2   103  THR103      0.2643
     79  O         34.8600  -48.0700  -56.4100 O.2   103  THR103     -0.2714
     80  CB        32.1040  -48.9630  -56.7400 C.3   103  THR103      0.1808
     81  OG1       31.5990  -47.8910  -57.5420 O.3   103  THR103     -0.2208
     82  CG2       30.9710  -49.9420  -56.4300 C.3   103  THR103      0.0379
     83  N         33.9700  -46.3160  -55.3380 N.am  104  SER104     -0.1935
     84  CA        35.0840  -45.4440  -55.7000 C.3   104  SER104      0.2055
     85  C         35.5960  -44.5950  -54.5350 C.2   104  SER104      0.2643
     86  O         34.8110  -44.1270  -53.7190 O.2   104  SER104     -0.2714
     87  CB        34.6630  -44.5290  -56.8510 C.3   104  SER104      0.2130
     88  OG        35.6400  -43.5250  -57.0670 O.3   104  SER104     -0.2179
     89  N         36.9140  -44.3850  -54.4800 N.am  105  TYR105     -0.1959
     90  CA        37.5250  -43.4880  -53.4930 C.3   105  TYR105      0.1771
     91  C         37.6540  -42.0450  -53.9800 C.2   105  TYR105      0.2619
     92  O         38.1880  -41.2100  -53.2530 O.2   105  TYR105     -0.2715
     93  CB        38.9210  -43.9810  -53.0530 C.3   105  TYR105      0.0574
     94  CG        38.8890  -45.2170  -52.1940 C.ar  105  TYR105     -0.0198
     95  CD1       38.2710  -45.2000  -50.9490 C.ar  105  TYR105     -0.0009
     96  CD2       39.5000  -46.3990  -52.6110 C.ar  105  TYR105     -0.0009
     97  CE1       38.2420  -46.3240  -50.1560 C.ar  105  TYR105      0.0417
     98  CE2       39.4720  -47.5270  -51.8210 C.ar  105  TYR105      0.0417
     99  CZ        38.8420  -47.4820  -50.5940 C.ar  105  TYR105      0.1957
    100  OH        38.7910  -48.6060  -49.8000 O.3   105  TYR105     -0.2866
    101  N         37.1960  -41.7520  -55.2010 N.am  106  ALA106     -0.1977
    102  CA        37.2600  -40.3800  -55.7050 C.3   106  ALA106      0.1597
    103  C         36.5950  -39.4860  -54.6690 C.2   106  ALA106      0.2287
    104  O         35.4840  -39.7690  -54.2200 O.2   106  ALA106     -0.2864
    105  CB        36.5740  -40.2540  -57.0630 C.3   106  ALA106      0.0319
@<TRIPOS>BOND
     1    81    80    1
     2    88    87    1
     3   105   102    1
     4    87    84    1
     5    80    82    1
     6    80    77    1
     7    79    78    2
     8    69    68    1
     9    78    77    1
    10    78    83   am
    11    68    65    1
    12   102   101    1
    13   102   103    1
    14    84    83    1
    15    84    85    1
    16    77    76    1
    17   101    91   am
    18    76    72   am
    19   103   104    2
    20    85    89   am
    21    85    86    2
    22    89    90    1
    23    65    64    1
    24    65    66    1
    25    75    74    1
    26    91    90    1
    27    91    92    2
    28    70    66   am
    29    70    71    1
    30    72    73    2
    31    72    71    1
    32    66    67    2
    33    90    93    1
    34    93    94    1
    35    71    74    1
    36    96    94   ar
    37    96    98   ar
    38    94    95   ar
    39    61    59   ar
    40    61    62   ar
    41    63    62    1
    42    98    99   ar
    43    59    57   ar
    44    62    60   ar
    45    57    56    1
    46    57    58   ar
    47    95    97   ar
    48    60    58   ar
    49    56    53    1
    50    99    97   ar
    51    99   100    1
    52    51    50    1
    53    53    54    1
    54    53    52    1
    55    49    50    1
    56    49    48    1
    57    54    55    2
    58    19    18    1
    59    48    47    1
    60    10    11    1
    61    11    12    1
    62     4     3    2
    63    13    12    2
    64    18    15    1
    65    18    20    1
    66    27    25    1
    67    15    14    1
    68    15    16    1
    69    47    44    1
    70     3     2    1
    71     9     8    1
    72    26    25    1
    73     7     8    1
    74     7     6    1
    75    21    16   am
    76    21    22    1
    77     5     2    1
    78     5     6    1
    79    45    46    2
    80    45    44    1
    81    16    17    2
    82    25    22    1
    83     2     1    1
    84    44    43    1
    85    22    23    1
    86    43    34   am
    87    23    28   am
    88    23    24    2
    89    28    29    1
    90    42    40    1
    91    35    34    2
    92    34    33    1
    93    40    41    1
    94    40    39    2
    95    29    30    1
    96    32    33    1
    97    33    36    1
    98    36    37    1
    99    39    38    1
   100    30    31    2
   101    37    38    1
