@<TRIPOS>MOLECULE
tmp/4jfxA00.pdb
 89 81 0 0 0
SMALL
GASTEIGER

@<TRIPOS>ATOM
      1  N         41.2250  -30.0360    5.8040 N.3     9  ALA9       -0.1231
      2  CA        42.0260  -29.7480    4.6120 C.3     9  ALA9        0.1694
      3  C         42.4600  -31.0450    3.9300 C.2     9  ALA9        0.2592
      4  O         42.3820  -31.1920    2.7050 O.2     9  ALA9       -0.2718
      5  CB        43.2410  -28.9040    4.9800 C.3     9  ALA9        0.0304
      6  N         42.9310  -31.9730    4.7530 N.am   10  THR10      -0.1953
      7  CA        43.3810  -33.2900    4.3280 C.3    10  THR10       0.1897
      8  C         42.7680  -34.2670    5.3030 C.2    10  THR10       0.2313
      9  O         42.6680  -33.9810    6.4940 O.2    10  THR10      -0.2863
     10  CB        44.9350  -33.4550    4.3900 C.3    10  THR10       0.1794
     11  OG1       45.5660  -32.5400    3.4860 O.3    10  THR10      -0.2208
     12  CG2       45.3480  -34.8690    3.9770 C.3    10  THR10       0.0378
     13  N         38.0330  -34.7160   -8.0120 N.3    38  GLN38      -0.1245
     14  CA        39.0740  -34.4780   -9.0120 C.3    38  GLN38       0.1566
     15  C         40.3720  -35.1880   -8.6740 C.2    38  GLN38       0.2260
     16  O         40.9010  -35.0800   -7.5540 O.2    38  GLN38      -0.2867
     17  CB        39.3410  -32.9800   -9.2030 C.3    38  GLN38       0.0367
     18  CG        40.2750  -32.6820  -10.3760 C.3    38  GLN38       0.0905
     19  CD        40.5530  -31.2000  -10.5390 C.2    38  GLN38       0.2608
     20  OE1       40.6580  -30.4670   -9.5550 O.2    38  GLN38      -0.2717
     21  NE2       40.6720  -30.7460  -11.7900 N.am   38  GLN38      -0.0878
     22  N         40.8790  -35.3110   -4.5790 N.3    85  VAL85      -0.1245
     23  CA        40.4130  -34.0550   -3.9990 C.3    85  VAL85       0.1561
     24  C         38.9160  -33.9030   -4.2600 C.2    85  VAL85       0.2260
     25  O         38.4250  -34.2430   -5.3380 O.2    85  VAL85      -0.2867
     26  CB        41.1980  -32.8550   -4.5700 C.3    85  VAL85       0.0252
     27  CG1       40.6600  -31.5340   -4.0060 C.3    85  VAL85       0.0019
     28  CG2       42.6890  -33.0180   -4.2360 C.3    85  VAL85       0.0019
     29  N         35.5620  -31.2280   -4.0350 N.3    87  TYR87      -0.1241
     30  CA        35.2110  -29.8150   -3.9750 C.3    87  TYR87       0.1605
     31  C         33.7140  -29.6860   -3.8490 C.2    87  TYR87       0.2264
     32  O         32.9820  -30.4540   -4.4810 O.2    87  TYR87      -0.2867
     33  CB        35.6050  -29.1030   -5.2710 C.3    87  TYR87       0.0534
     34  CG        37.0880  -28.9080   -5.4860 C.ar   87  TYR87      -0.0201
     35  CD1       37.7900  -27.9170   -4.8190 C.ar   87  TYR87      -0.0009
     36  CD2       37.7790  -29.7110   -6.3850 C.ar   87  TYR87      -0.0009
     37  CE1       39.1670  -27.7460   -5.0310 C.ar   87  TYR87       0.0417
     38  CE2       39.1060  -29.5550   -6.6010 C.ar   87  TYR87       0.0417
     39  CZ        39.8090  -28.5740   -5.9210 C.ar   87  TYR87       0.1957
     40  OH        41.1500  -28.4520   -6.1780 O.3    87  TYR87      -0.2866
     41  N         37.3100  -24.6730   -0.9720 N.3   100  GLN100     -0.1231
     42  CA        38.7390  -24.7080   -1.2840 C.3   100  GLN100      0.1698
     43  C         39.3070  -26.1270   -1.4350 C.2   100  GLN100      0.2592
     44  O         40.4760  -26.2980   -1.7660 O.2   100  GLN100     -0.2718
     45  CB        39.5210  -23.9300   -0.2120 C.3   100  GLN100      0.0381
     46  CG        39.7480  -24.7210    1.0900 C.3   100  GLN100      0.0905
     47  CD        38.5320  -24.8340    2.0460 C.2   100  GLN100      0.2608
     48  OE1       37.3960  -24.4290    1.7340 O.2   100  GLN100     -0.2717
     49  NE2       38.7940  -25.3880    3.2380 N.am  100  GLN100     -0.0878
     50  N         38.4820  -27.1390   -1.1980 N.am  101  GLY101     -0.1957
     51  CA        38.8880  -28.5210   -1.4370 C.3   101  GLY101      0.1869
     52  C         39.3240  -29.3220   -0.2150 C.2   101  GLY101      0.2309
     53  O         39.9460  -28.7920    0.6900 O.2   101  GLY101     -0.2863
     54  N         41.4860  -32.9310    0.5000 N.3   103  LYS103     -0.1245
     55  CA        42.2240  -34.0510   -0.0500 C.3   103  LYS103      0.1561
     56  C         42.0300  -35.2890    0.8000 C.2   103  LYS103      0.2260
     57  O         42.3540  -35.3010    1.9980 O.2   103  LYS103     -0.2867
     58  CB        43.7240  -33.7400   -0.1550 C.3   103  LYS103      0.0271
     59  CG        44.5240  -34.8710   -0.8420 C.3   103  LYS103      0.0035
     60  CD        45.9920  -34.5170   -0.9360 C.3   103  LYS103      0.0206
     61  CE        46.7770  -35.5720   -1.7140 C.3   103  LYS103      0.1093
     62  NZ        48.1980  -35.1360   -1.9080 N.3   103  LYS103     -0.1314
     63  N         53.3360  -36.5760    5.0140 N.3   142  ARG142     -0.1245
     64  CA        53.7510  -35.5390    4.0770 C.3   142  ARG142      0.1563
     65  C         54.6260  -34.4350    4.6880 C.2   142  ARG142      0.2260
     66  O         55.5280  -33.8980    4.0190 O.2   142  ARG142     -0.2867
     67  CB        52.4970  -34.9270    3.4310 C.3   142  ARG142      0.0307
     68  CG        52.7140  -33.5630    2.7960 C.3   142  ARG142      0.0489
     69  CD        53.5780  -33.6470    1.5690 C.3   142  ARG142      0.2205
     70  NE        53.7690  -32.3210    0.9790 N.pl3 142  ARG142     -0.0865
     71  CZ        54.7520  -31.4790    1.3050 C.cat 142  ARG142      0.5346
     72  NH1       54.8160  -30.2950    0.7030 N.pl3 142  ARG142      0.1354
     73  NH2       55.6670  -31.8060    2.2290 N.pl3 142  ARG142      0.1354
     74  N         56.8210  -31.3060   -4.4260 N.3   163  VAL163     -0.1245
     75  CA        56.4710  -32.6230   -3.8920 C.3   163  VAL163      0.1561
     76  C         55.6390  -33.4280   -4.9220 C.2   163  VAL163      0.2260
     77  O         54.7900  -32.8680   -5.6440 O.2   163  VAL163     -0.2867
     78  CB        55.7200  -32.4750   -2.5290 C.3   163  VAL163      0.0252
     79  CG1       54.4160  -31.6790   -2.7040 C.3   163  VAL163      0.0019
     80  CG2       55.4640  -33.8340   -1.8700 C.3   163  VAL163      0.0019
     81  N         52.8690  -36.5050   -6.0410 N.3   165  GLU165     -0.1245
     82  CA        51.6540  -37.0840   -5.4860 C.3   165  GLU165      0.1567
     83  C         52.0540  -38.3790   -4.7900 C.2   165  GLU165      0.2260
     84  O         53.1210  -38.9020   -5.0490 O.2   165  GLU165     -0.2867
     85  CB        50.6500  -37.3640   -6.6080 C.3   165  GLU165      0.0388
     86  CG        50.2200  -36.1180   -7.3440 C.3   165  GLU165      0.1160
     87  CD        49.1730  -35.3200   -6.5880 C.2   165  GLU165      0.3649
     88  OE1       48.5710  -35.8590   -5.6330 O.co2 165  GLU165     -0.2457
     89  OE2       48.9390  -34.1490   -6.9550 O.co2 165  GLU165     -0.2457
@<TRIPOS>BOND
     1    21    19   am
     2    19    18    1
     3    19    20    2
     4    18    17    1
     5    17    14    1
     6    14    15    1
     7    14    13    1
     8    15    16    2
     9    86    85    1
    10    86    87    1
    11    89    87   ar
    12    85    82    1
    13    38    36   ar
    14    38    39   ar
    15    87    88   ar
    16    36    34   ar
    17    40    39    1
    18    81    82    1
    19    39    37   ar
    20    77    76    2
    21    34    33    1
    22    34    35   ar
    23    82    83    1
    24    25    24    2
    25    33    30    1
    26    84    83    2
    27    37    35   ar
    28    76    75    1
    29    22    23    1
    30    26    28    1
    31    26    27    1
    32    26    23    1
    33    32    31    2
    34    74    75    1
    35    24    23    1
    36    29    30    1
    37    30    31    1
    38    75    78    1
    39    79    78    1
    40    78    80    1
    41    62    61    1
    42    44    43    2
    43    61    60    1
    44    51    50    1
    45    51    52    1
    46    43    42    1
    47    43    50   am
    48    42    41    1
    49    42    45    1
    50    60    59    1
    51    59    58    1
    52    52    53    2
    53    45    46    1
    54    58    55    1
    55    55    54    1
    56    55    56    1
    57    72    71    1
    58    56    57    2
    59    70    71    2
    60    70    69    1
    61    46    47    1
    62    71    73    1
    63    69    68    1
    64    48    47    2
    65    47    49   am
    66     4     3    2
    67    68    67    1
    68    67    64    1
    69    11    10    1
    70     3     2    1
    71     3     6   am
    72    12    10    1
    73    66    65    2
    74    64    65    1
    75    64    63    1
    76     7    10    1
    77     7     6    1
    78     7     8    1
    79     2     5    1
    80     2     1    1
    81     8     9    2
