@<TRIPOS>MOLECULE
tmp/4jfyD00.pdb
 85 81 0 0 0
SMALL
GASTEIGER

@<TRIPOS>ATOM
      1  N         40.7080  -24.1150  -28.8340 N.3    41  GLN41      -0.1245
      2  CA        41.5260  -24.4920  -29.9690 C.3    41  GLN41       0.1566
      3  C         41.9850  -25.9310  -29.8000 C.2    41  GLN41       0.2260
      4  O         42.9050  -26.2100  -29.0340 O.2    41  GLN41      -0.2867
      5  CB        42.7340  -23.5690  -30.0890 C.3    41  GLN41       0.0367
      6  CG        43.6270  -23.8320  -31.2940 C.3    41  GLN41       0.0905
      7  CD        44.7040  -22.7760  -31.4280 C.2    41  GLN41       0.2608
      8  OE1       45.1680  -22.2210  -30.4300 O.2    41  GLN41      -0.2717
      9  NE2       45.1030  -22.4860  -32.6570 N.am   41  GLN41      -0.0878
     10  N         46.3900  -28.7230  -33.0370 N.3    44  GLY44      -0.1210
     11  CA        46.6550  -28.6420  -34.4610 C.3    44  GLY44       0.1956
     12  C         45.5550  -27.9620  -35.2500 C.2    44  GLY44       0.2611
     13  O         45.6140  -27.8860  -36.4760 O.2    44  GLY44      -0.2717
     14  N         44.5380  -27.4710  -34.5550 N.am   45  LYS45      -0.1979
     15  CA        43.4270  -26.8130  -35.2270 C.3    45  LYS45       0.1596
     16  C         43.4230  -25.3140  -34.9590 C.2    45  LYS45       0.2287
     17  O         44.3530  -24.7760  -34.3590 O.2    45  LYS45      -0.2864
     18  CB        42.0880  -27.4360  -34.8240 C.3    45  LYS45       0.0298
     19  CG        41.9060  -28.8740  -35.2760 C.3    45  LYS45       0.0038
     20  CD        40.4620  -29.1220  -35.6850 C.3    45  LYS45       0.0206
     21  CE        40.2610  -30.5220  -36.2400 C.3    45  LYS45       0.1093
     22  NZ        39.3900  -31.3260  -35.3380 N.3    45  LYS45      -0.1314
     23  N         42.5110  -26.6540  -25.9430 N.3    95  VAL95      -0.1245
     24  CA        42.9750  -25.6160  -25.0420 C.3    95  VAL95       0.1561
     25  C         41.8710  -24.5780  -24.9900 C.2    95  VAL95       0.2260
     26  O         41.4480  -24.0660  -26.0290 O.2    95  VAL95      -0.2867
     27  CB        44.2510  -24.9360  -25.5600 C.3    95  VAL95       0.0252
     28  CG1       44.5640  -23.6960  -24.7310 C.3    95  VAL95       0.0019
     29  CG2       45.4200  -25.9100  -25.5630 C.3    95  VAL95       0.0019
     30  N         40.3800  -20.8960  -23.8410 N.3    97  TYR97      -0.1241
     31  CA        40.7960  -19.5330  -23.5250 C.3    97  TYR97       0.1605
     32  C         39.6580  -18.7050  -22.9530 C.2    97  TYR97       0.2264
     33  O         38.5350  -18.7540  -23.4540 O.2    97  TYR97      -0.2867
     34  CB        41.3190  -18.8110  -24.7670 C.3    97  TYR97       0.0534
     35  CG        42.5720  -19.3950  -25.3590 C.ar   97  TYR97      -0.0201
     36  CD1       43.8080  -19.2110  -24.7510 C.ar   97  TYR97      -0.0009
     37  CD2       42.5240  -20.1070  -26.5510 C.ar   97  TYR97      -0.0009
     38  CE1       44.9640  -19.7450  -25.3060 C.ar   97  TYR97       0.0417
     39  CE2       43.6690  -20.6400  -27.1130 C.ar   97  TYR97       0.0417
     40  CZ        44.8830  -20.4580  -26.4890 C.ar   97  TYR97       0.1957
     41  OH        46.0120  -20.9970  -27.0600 O.3    97  TYR97      -0.2866
     42  N         46.0430  -17.3440  -20.4810 N.3   114  GLN114     -0.1231
     43  CA        47.1260  -18.2380  -20.8900 C.3   114  GLN114      0.1698
     44  C         46.5940  -19.4530  -21.6400 C.2   114  GLN114      0.2593
     45  O         47.2860  -20.0280  -22.4810 O.2   114  GLN114     -0.2718
     46  CB        47.9290  -18.7070  -19.6720 C.3   114  GLN114      0.0381
     47  CG        48.7520  -17.6270  -18.9880 C.3   114  GLN114      0.0905
     48  CD        49.8990  -17.1400  -19.8530 C.2   114  GLN114      0.2608
     49  OE1       50.3410  -17.8390  -20.7670 O.2   114  GLN114     -0.2717
     50  NE2       50.3870  -15.9360  -19.5720 N.am  114  GLN114     -0.0878
     51  N         45.3540  -19.8270  -21.3380 N.am  115  GLY115     -0.1942
     52  CA        44.7360  -20.9900  -21.9410 C.3   115  GLY115      0.2014
     53  C         44.9960  -22.2330  -21.1160 C.2   115  GLY115      0.2640
     54  O         46.1140  -22.4300  -20.6410 O.2   115  GLY115     -0.2714
     55  N         43.9680  -23.0610  -20.9360 N.am  116  THR116     -0.1936
     56  CA        44.1040  -24.3020  -20.1710 C.3   116  THR116      0.2028
     57  C         43.6180  -25.5130  -20.9760 C.2   116  THR116      0.2642
     58  O         42.5680  -25.4610  -21.6160 O.2   116  THR116     -0.2714
     59  CB        43.3550  -24.2420  -18.8110 C.3   116  THR116      0.1808
     60  OG1       43.4000  -25.5250  -18.1780 O.3   116  THR116     -0.2208
     61  CG2       41.8980  -23.8290  -18.9950 C.3   116  THR116      0.0379
     62  N         44.3980  -26.5910  -20.9550 N.am  117  LEU117     -0.1977
     63  CA        44.0700  -27.8100  -21.6960 C.3   117  LEU117      0.1596
     64  C         42.9650  -28.6320  -21.0400 C.2   117  LEU117      0.2287
     65  O         43.0030  -28.9080  -19.8380 O.2   117  LEU117     -0.2864
     66  CB        45.3150  -28.6840  -21.8810 C.3   117  LEU117      0.0297
     67  CG        45.1480  -29.9390  -22.7460 C.3   117  LEU117      0.0022
     68  CD1       44.8690  -29.5550  -24.1970 C.3   117  LEU117      0.0001
     69  CD2       46.3790  -30.8280  -22.6660 C.3   117  LEU117      0.0001
     70  N         48.5930  -35.3290  -22.9110 N.3   157  GLU157     -0.1231
     71  CA        49.5980  -34.3320  -23.2510 C.3   157  GLU157      0.1684
     72  C         49.7780  -33.4230  -22.0410 C.2   157  GLU157      0.2434
     73  O         48.8600  -33.2690  -21.2360 O.2   157  GLU157     -0.2733
     74  CB        49.1220  -33.5050  -24.4470 C.3   157  GLU157      0.0402
     75  CG        49.1900  -34.2010  -25.8060 C.3   157  GLU157      0.1161
     76  CD        50.4980  -33.9120  -26.5450 C.2   157  GLU157      0.3649
     77  OE1       50.4090  -33.4730  -27.7120 O.co2 157  GLU157     -0.2457
     78  OE2       51.6030  -34.0980  -25.9740 O.co2 157  GLU157     -0.2457
     79  N         50.9620  -32.8130  -21.9020 N.am  158  PRO158     -0.2729
     80  CA        52.1130  -32.9430  -22.8010 C.3   158  PRO158      0.1401
     81  C         53.2660  -33.7250  -22.1900 C.2   158  PRO158      0.2269
     82  O         53.2230  -34.0750  -21.0110 O.2   158  PRO158     -0.2865
     83  CB        52.5410  -31.4910  -22.9870 C.3   158  PRO158      0.0296
     84  CG        52.1220  -30.8020  -21.6530 C.3   158  PRO158      0.0237
     85  CD        51.1730  -31.7340  -20.9240 C.3   158  PRO158      0.0939
@<TRIPOS>BOND
     1    13    12    2
     2    21    20    1
     3    21    22    1
     4    20    19    1
     5    19    18    1
     6    12    14   am
     7    12    11    1
     8    15    16    1
     9    15    18    1
    10    15    14    1
    11    16    17    2
    12    11    10    1
    13     9     7   am
    14     7     6    1
    15     7     8    2
    16     6     5    1
    17     5     2    1
    18     2     3    1
    19     2     1    1
    20     3     4    2
    21    77    76   ar
    22    39    37   ar
    23    39    40   ar
    24    41    40    1
    25    37    35   ar
    26    76    78   ar
    27    76    75    1
    28    40    38   ar
    29    26    25    2
    30    23    24    1
    31    75    74    1
    32    29    27    1
    33    27    24    1
    34    27    28    1
    35    35    34    1
    36    35    36   ar
    37    38    36   ar
    38    24    25    1
    39    34    31    1
    40    74    71    1
    41    68    67    1
    42    30    31    1
    43    31    32    1
    44    33    32    2
    45    71    70    1
    46    71    72    1
    47    83    80    1
    48    83    84    1
    49    80    81    1
    50    80    79    1
    51    67    69    1
    52    67    66    1
    53    45    44    2
    54    81    82    2
    55    72    79   am
    56    72    73    2
    57    52    51    1
    58    52    53    1
    59    79    85    1
    60    66    63    1
    61    63    64    1
    62    63    62    1
    63    84    85    1
    64    44    51   am
    65    44    43    1
    66    58    57    2
    67    53    55   am
    68    53    54    2
    69    64    65    2
    70    57    62   am
    71    57    56    1
    72    55    56    1
    73    43    42    1
    74    43    46    1
    75    49    48    2
    76    56    59    1
    77    48    50   am
    78    48    47    1
    79    46    47    1
    80    61    59    1
    81    59    60    1
