@<TRIPOS>MOLECULE
tmp/4jfzB00.pdb
 108 105 0 0 0
SMALL
GASTEIGER

@<TRIPOS>ATOM
      1  N         14.9710   24.6990   -1.2860 N.3    31  LYS31      -0.1245
      2  CA        13.5520   24.4810   -1.4630 C.3    31  LYS31       0.1561
      3  C         12.7170   24.9430   -0.2710 C.2    31  LYS31       0.2260
      4  O         11.4840   24.8180   -0.3040 O.2    31  LYS31      -0.2867
      5  CB        13.2800   23.0120   -1.7190 C.3    31  LYS31       0.0271
      6  CG        13.7060   22.5990   -3.1150 C.3    31  LYS31       0.0035
      7  CD        13.5560   21.1170   -3.3200 C.3    31  LYS31       0.0206
      8  CE        14.2380   20.6730   -4.6020 C.3    31  LYS31       0.1093
      9  NZ        13.5940   21.2670   -5.8000 N.3    31  LYS31      -0.1314
     10  N         11.8070   27.9510    2.8340 N.3    33  GLY33      -0.1225
     11  CA        11.8940   29.2770    3.4400 C.3    33  GLY33       0.1811
     12  C         12.6120   29.1570    4.7760 C.2    33  GLY33       0.2280
     13  O         12.5400   28.1220    5.4170 O.2    33  GLY33      -0.2866
     14  N         12.6290   33.9930    1.4970 N.3    52  ALA52      -0.1231
     15  CA        12.0580   33.0300    0.5640 C.3    52  ALA52       0.1694
     16  C         13.1530   32.1530   -0.0660 C.2    52  ALA52       0.2593
     17  O         14.3390   32.4240    0.0450 O.2    52  ALA52      -0.2718
     18  CB        11.2770   33.7670   -0.5270 C.3    52  ALA52       0.0304
     19  N         12.7300   31.0920   -0.7330 N.am   53  THR53      -0.1939
     20  CA        13.6530   30.1110   -1.2810 C.3    53  THR53       0.2028
     21  C         14.7310   30.7200   -2.1710 C.2    53  THR53       0.2643
     22  O         15.8720   30.2880   -2.1250 O.2    53  THR53      -0.2714
     23  CB        12.8810   29.0970   -2.1350 C.3    53  THR53       0.1808
     24  OG1       12.0580   29.8000   -3.0690 O.3    53  THR53      -0.2208
     25  CG2       12.0350   28.2290   -1.2700 C.3    53  THR53       0.0379
     26  N         14.3670   31.7130   -2.9810 N.am   54  GLY54      -0.1939
     27  CA        15.2820   32.2700   -3.9640 C.3    54  GLY54       0.2014
     28  C         16.2680   33.2740   -3.3900 C.2    54  GLY54       0.2639
     29  O         17.2420   33.6560   -4.0480 O.2    54  GLY54      -0.2714
     30  N         16.0100   33.7130   -2.1630 N.am   55  GLY55      -0.1939
     31  CA        16.8980   34.6390   -1.4690 C.3    55  GLY55       0.2014
     32  C         16.7570   36.1050   -1.8470 C.2    55  GLY55       0.2639
     33  O         17.6070   36.9290   -1.4690 O.2    55  GLY55      -0.2714
     34  N         15.6880   36.4610   -2.5590 N.am   56  HIS56      -0.1959
     35  CA        15.4410   37.8780   -2.8740 C.3    56  HIS56       0.1787
     36  C         14.3430   38.5100   -2.0080 C.2    56  HIS56       0.2620
     37  O         14.4490   39.6640   -1.6000 O.2    56  HIS56      -0.2715
     38  CB        15.0480   38.0230   -4.3390 C.3    56  HIS56       0.0785
     39  CG        15.9580   37.3040   -5.2880 C.ar   56  HIS56       0.0821
     40  ND1       15.6110   36.1150   -5.9010 N.ar   56  HIS56      -0.2267
     41  CD2       17.2060   37.6050   -5.7370 C.ar   56  HIS56       0.1154
     42  CE1       16.5990   35.7210   -6.6850 C.ar   56  HIS56       0.1986
     43  NE2       17.5800   36.6040   -6.5990 N.ar   56  HIS56      -0.2212
     44  N         13.2820   37.7420   -1.7740 N.am   57  THR57      -0.1951
     45  CA        12.1160   38.1850   -1.0180 C.3    57  THR57       0.1897
     46  C         12.3700   37.9990    0.4750 C.2    57  THR57       0.2313
     47  O         12.6850   36.8940    0.9320 O.2    57  THR57      -0.2863
     48  CB        10.8750   37.4120   -1.4420 C.3    57  THR57       0.1794
     49  OG1       10.6370   37.6470   -2.8360 O.3    57  THR57      -0.2208
     50  CG2        9.6490   37.8680   -0.6620 C.3    57  THR57       0.0378
     51  N         11.3990   39.5040    4.7440 N.3    59  TYR59      -0.1241
     52  CA        10.4340   40.0860    5.6580 C.3    59  TYR59       0.1605
     53  C         11.1400   40.3700    6.9910 C.2    59  TYR59       0.2264
     54  O         12.0060   39.5900    7.4320 O.2    59  TYR59      -0.2867
     55  CB         9.2600   39.1170    5.8820 C.3    59  TYR59       0.0534
     56  CG         8.5340   38.8400    4.6020 C.ar   59  TYR59      -0.0201
     57  CD1        7.5670   39.7220    4.1350 C.ar   59  TYR59      -0.0009
     58  CD2        8.8290   37.7160    3.8520 C.ar   59  TYR59      -0.0009
     59  CE1        6.8950   39.5030    2.9340 C.ar   59  TYR59       0.0417
     60  CE2        8.1900   37.4910    2.6530 C.ar   59  TYR59       0.0417
     61  CZ         7.2140   38.3860    2.1970 C.ar   59  TYR59       0.1957
     62  OH         6.5760   38.1280    0.9900 O.3    59  TYR59      -0.2866
     63  N         11.1080   26.9990    7.6950 N.3    99  GLY99      -0.1225
     64  CA         9.6760   26.9960    7.4330 C.3    99  GLY99       0.1811
     65  C          9.2550   25.5790    7.0580 C.2    99  GLY99       0.2280
     66  O          9.8980   24.9570    6.2200 O.2    99  GLY99      -0.2866
     67  N          6.7130   24.2550    5.4330 N.3   101  SER101     -0.1202
     68  CA         6.0130   23.9890    4.1560 C.3   101  SER101      0.2020
     69  C          6.4680   24.9680    3.0820 C.2   101  SER101      0.2619
     70  O          7.0890   25.9980    3.3670 O.2   101  SER101     -0.2717
     71  CB         4.4810   24.1030    4.3140 C.3   101  SER101      0.2103
     72  OG         4.0800   25.4660    4.2460 O.3   101  SER101     -0.2182
     73  N          6.1290   24.6610    1.8390 N.am  102  SER102     -0.1937
     74  CA         6.4930   25.5230    0.7360 C.3   102  SER102      0.2055
     75  C          5.7240   26.8650    0.7640 C.2   102  SER102      0.2644
     76  O          6.0520   27.7840   -0.0050 O.2   102  SER102     -0.2714
     77  CB         6.2870   24.7730   -0.5920 C.3   102  SER102      0.2130
     78  OG         4.9280   24.4340   -0.7880 O.3   102  SER102     -0.2179
     79  N          4.7410   26.9940    1.6560 N.am  103  THR103     -0.1936
     80  CA         3.8990   28.1960    1.6830 C.3   103  THR103      0.2028
     81  C          3.7820   28.8530    3.0550 C.2   103  THR103      0.2643
     82  O          3.0390   29.8090    3.2250 O.2   103  THR103     -0.2714
     83  CB         2.4770   27.9070    1.1550 C.3   103  THR103      0.1808
     84  OG1        1.8840   26.8250    1.9060 O.3   103  THR103     -0.2208
     85  CG2        2.5280   27.5600   -0.3510 C.3   103  THR103      0.0379
     86  N          4.5420   28.3680    4.0220 N.am  104  SER104     -0.1935
     87  CA         4.4770   28.9250    5.3660 C.3   104  SER104      0.2055
     88  C          5.8490   29.0770    6.0080 C.2   104  SER104      0.2643
     89  O          6.6850   28.1960    5.8770 O.2   104  SER104     -0.2714
     90  CB         3.6150   28.0110    6.2480 C.3   104  SER104      0.2130
     91  OG         3.5470   28.4800    7.5820 O.3   104  SER104     -0.2179
     92  N          6.0520   30.1690    6.7540 N.am  105  TYR105     -0.1959
     93  CA         7.2500   30.3270    7.5710 C.3   105  TYR105      0.1771
     94  C          7.1240   29.7110    8.9720 C.2   105  TYR105      0.2619
     95  O          8.1020   29.6720    9.7220 O.2   105  TYR105     -0.2715
     96  CB         7.6670   31.8040    7.6630 C.3   105  TYR105      0.0574
     97  CG         8.2490   32.3570    6.3750 C.ar  105  TYR105     -0.0198
     98  CD1        9.4130   31.8480    5.8410 C.ar  105  TYR105     -0.0009
     99  CD2        7.6280   33.4210    5.7160 C.ar  105  TYR105     -0.0009
    100  CE1        9.9460   32.3580    4.6530 C.ar  105  TYR105      0.0417
    101  CE2        8.1400   33.9410    4.5510 C.ar  105  TYR105      0.0417
    102  CZ         9.3080   33.4080    4.0240 C.ar  105  TYR105      0.1957
    103  OH         9.8220   33.9100    2.8630 O.3   105  TYR105     -0.2866
    104  N          5.9550   29.1860    9.3270 N.am  106  ALA106     -0.1977
    105  CA         5.8420   28.4810   10.6100 C.3   106  ALA106      0.1597
    106  C          6.9850   27.4560   10.7070 C.2   106  ALA106      0.2287
    107  O          7.2400   26.6600    9.7740 O.2   106  ALA106     -0.2864
    108  CB         4.4990   27.8100   10.7480 C.3   106  ALA106      0.0319
@<TRIPOS>BOND
     1    42    43   ar
     2    42    40   ar
     3    43    41   ar
     4    40    39   ar
     5     9     8    1
     6    41    39   ar
     7    39    38    1
     8     8     7    1
     9    38    35    1
    10    29    28    2
    11    27    28    1
    12    27    26    1
    13    28    30   am
    14     7     6    1
    15     6     5    1
    16    24    23    1
    17    26    21   am
    18    35    34    1
    19    35    36    1
    20    49    48    1
    21    34    32   am
    22    21    22    2
    23    21    20    1
    24    30    31    1
    25    23    20    1
    26    23    25    1
    27    36    44   am
    28    36    37    2
    29    32    33    2
    30    32    31    1
    31    44    45    1
    32     5     2    1
    33     2     1    1
    34     2     3    1
    35    48    45    1
    36    48    50    1
    37    20    19    1
    38    45    46    1
    39    78    77    1
    40    19    16   am
    41    77    74    1
    42    18    15    1
    43    85    83    1
    44     4     3    2
    45    16    17    2
    46    16    15    1
    47    76    75    2
    48    46    47    2
    49    15    14    1
    50    74    75    1
    51    74    73    1
    52    75    79   am
    53    62    61    1
    54    83    80    1
    55    83    84    1
    56    79    80    1
    57    80    81    1
    58    73    69   am
    59    61    60   ar
    60    61    59   ar
    61    60    58   ar
    62    10    11    1
    63   103   102    1
    64    59    57   ar
    65    81    82    2
    66    81    86   am
    67    69    70    2
    68    69    68    1
    69    11    12    1
    70    58    56   ar
    71    86    87    1
    72   102   101   ar
    73   102   100   ar
    74    57    56   ar
    75    68    71    1
    76    68    67    1
    77    72    71    1
    78   101    99   ar
    79    56    55    1
    80   100    98   ar
    81    51    52    1
    82    12    13    2
    83    87    88    1
    84    87    90    1
    85    52    55    1
    86    52    53    1
    87    99    97   ar
    88    98    97   ar
    89    89    88    2
    90    88    92   am
    91    66    65    2
    92    90    91    1
    93    97    96    1
    94    92    93    1
    95    53    54    2
    96    65    64    1
    97    64    63    1
    98    93    96    1
    99    93    94    1
   100    94   104   am
   101    94    95    2
   102   104   105    1
   103   107   106    2
   104   105   106    1
   105   105   108    1
