@<TRIPOS>MOLECULE
tmp/4jg0B00.pdb
 115 113 0 0 0
SMALL
GASTEIGER

@<TRIPOS>ATOM
      1  N         15.2350   24.8220   -1.3900 N.3    31  LYS31      -0.1245
      2  CA        13.8000   24.6060   -1.5550 C.3    31  LYS31       0.1561
      3  C         12.9360   25.2160   -0.4440 C.2    31  LYS31       0.2260
      4  O         11.7070   25.1820   -0.5330 O.2    31  LYS31      -0.2867
      5  CB        13.5040   23.1100   -1.6630 C.3    31  LYS31       0.0271
      6  CG        14.0510   22.4630   -2.9260 C.3    31  LYS31       0.0035
      7  CD        13.6130   21.0110   -3.0320 C.3    31  LYS31       0.0206
      8  CE        14.1280   20.3540   -4.3040 C.3    31  LYS31       0.1093
      9  NZ        13.5530   20.9690   -5.5320 N.3    31  LYS31      -0.1314
     10  N         11.9050   28.3420    2.5330 N.3    33  GLY33      -0.1225
     11  CA        11.9750   29.6570    3.1420 C.3    33  GLY33       0.1811
     12  C         12.6570   29.5270    4.4910 C.2    33  GLY33       0.2280
     13  O         12.5820   28.4760    5.1180 O.2    33  GLY33      -0.2866
     14  N         12.7630   34.4650    1.0910 N.3    52  SER52      -0.1202
     15  CA        12.1190   33.5490    0.1490 C.3    52  SER52       0.2020
     16  C         13.0520   32.4870   -0.4200 C.2    52  SER52       0.2619
     17  O         14.2700   32.5620   -0.2740 O.2    52  SER52      -0.2717
     18  CB        11.5210   34.3360   -1.0150 C.3    52  SER52       0.2103
     19  OG        12.5290   35.0540   -1.7040 O.3    52  SER52      -0.2182
     20  N         12.4420   31.5040   -1.0800 N.am   53  THR53      -0.1939
     21  CA        13.1440   30.4360   -1.7820 C.3    53  THR53       0.2013
     22  C         12.7110   30.4730   -3.2420 C.2    53  THR53       0.2484
     23  O         11.5450   30.7510   -3.5300 O.2    53  THR53      -0.2729
     24  CB        12.7840   29.0490   -1.1990 C.3    53  THR53       0.1807
     25  OG1       12.9600   28.0350   -2.1950 O.3    53  THR53      -0.2208
     26  CG2       11.3330   29.0110   -0.7540 C.3    53  THR53       0.0379
     27  N         13.6330   30.1770   -4.1730 N.am   54  PRO54      -0.2715
     28  CA        15.0280   29.7700   -3.9520 C.3    54  PRO54       0.1536
     29  C         16.0580   30.8940   -3.8030 C.2    54  PRO54       0.2598
     30  O         16.9180   30.7770   -2.9380 O.2    54  PRO54      -0.2715
     31  CB        15.3430   28.9360   -5.2000 C.3    54  PRO54       0.0310
     32  CG        14.4600   29.5000   -6.2570 C.3    54  PRO54       0.0237
     33  CD        13.2010   29.9250   -5.5610 C.3    54  PRO54       0.0939
     34  N         15.9900   31.9420   -4.6190 N.am   55  ARG55      -0.1964
     35  CA        17.0540   32.9410   -4.6500 C.3    55  ARG55       0.1729
     36  C         17.1020   33.8150   -3.4010 C.2    55  ARG55       0.2617
     37  O         18.1650   34.3120   -3.0310 O.2    55  ARG55      -0.2715
     38  CB        16.9080   33.8460   -5.8750 C.3    55  ARG55       0.0348
     39  CG        16.9760   33.1240   -7.2080 C.3    55  ARG55       0.0492
     40  CD        16.7230   34.0900   -8.3500 C.3    55  ARG55       0.2205
     41  NE        15.4180   34.7340   -8.2250 N.pl3  55  ARG55      -0.0865
     42  CZ        14.9840   35.7200   -9.0030 C.cat  55  ARG55       0.5346
     43  NH1       13.7770   36.2360   -8.8030 N.pl3  55  ARG55       0.1354
     44  NH2       15.7500   36.1950   -9.9770 N.pl3  55  ARG55       0.1354
     45  N         15.9550   34.0140   -2.7600 N.am   56  GLY56      -0.1940
     46  CA        15.8750   34.9180   -1.6290 C.3    56  GLY56       0.2014
     47  C         15.7620   36.3700   -2.0560 C.2    56  GLY56       0.2640
     48  O         16.3030   37.2610   -1.4010 O.2    56  GLY56      -0.2714
     49  N         15.0550   36.6160   -3.1560 N.am   57  SER57      -0.1935
     50  CA        14.8610   37.9800   -3.6430 C.3    57  SER57       0.2055
     51  C         13.8980   38.7510   -2.7500 C.2    57  SER57       0.2643
     52  O         13.9400   39.9810   -2.6820 O.2    57  SER57      -0.2714
     53  CB        14.3180   37.9690   -5.0730 C.3    57  SER57       0.2130
     54  OG        12.9740   37.5090   -5.1150 O.3    57  SER57      -0.2179
     55  N         13.0370   38.0150   -2.0580 N.am   58  THR58      -0.1950
     56  CA        11.9390   38.6100   -1.3090 C.3    58  THR58       0.1897
     57  C         12.1720   38.4220    0.1830 C.2    58  THR58       0.2313
     58  O         12.3240   37.2970    0.6540 O.2    58  THR58      -0.2863
     59  CB        10.5950   37.9820   -1.7230 C.3    58  THR58       0.1794
     60  OG1       10.3610   38.2400   -3.1130 O.3    58  THR58      -0.2208
     61  CG2        9.4520   38.5550   -0.9140 C.3    58  THR58       0.0378
     62  N         11.4920   39.9500    4.4600 N.3    60  TYR60      -0.1241
     63  CA        10.5800   40.5850    5.4000 C.3    60  TYR60       0.1605
     64  C         11.2900   40.8330    6.7250 C.2    60  TYR60       0.2264
     65  O         12.1350   40.0360    7.1360 O.2    60  TYR60      -0.2867
     66  CB         9.3550   39.6930    5.6150 C.3    60  TYR60       0.0534
     67  CG         8.5940   39.4540    4.3370 C.ar   60  TYR60      -0.0201
     68  CD1        7.6570   40.3680    3.8920 C.ar   60  TYR60      -0.0009
     69  CD2        8.8360   38.3270    3.5580 C.ar   60  TYR60      -0.0009
     70  CE1        6.9660   40.1690    2.7090 C.ar   60  TYR60       0.0417
     71  CE2        8.1510   38.1170    2.3760 C.ar   60  TYR60       0.0417
     72  CZ         7.2180   39.0460    1.9550 C.ar   60  TYR60       0.1957
     73  OH         6.5270   38.8560    0.7800 O.3    60  TYR60      -0.2866
     74  N          6.7160   24.8640    5.0820 N.3   102  SER102     -0.1202
     75  CA         6.0220   24.6140    3.8210 C.3   102  SER102      0.2020
     76  C          6.4560   25.5910    2.7370 C.2   102  SER102      0.2619
     77  O          7.1100   26.5920    3.0080 O.2   102  SER102     -0.2717
     78  CB         4.5130   24.7220    4.0170 C.3   102  SER102      0.2103
     79  OG         4.1130   26.0800    4.0480 O.3   102  SER102     -0.2182
     80  N          6.0740   25.3040    1.5020 N.am  103  SER103     -0.1937
     81  CA         6.4390   26.1730    0.3920 C.3   103  SER103      0.2055
     82  C          5.6550   27.4880    0.4090 C.2   103  SER103      0.2644
     83  O          5.9170   28.3750   -0.4000 O.2   103  SER103     -0.2714
     84  CB         6.2300   25.4470   -0.9400 C.3   103  SER103      0.2130
     85  OG         4.8940   25.0230   -1.0840 O.3   103  SER103     -0.2179
     86  N          4.7090   27.6210    1.3370 N.am  104  THR104     -0.1936
     87  CA         3.8650   28.8140    1.3950 C.3   104  THR104      0.2028
     88  C          3.7430   29.4320    2.7930 C.2   104  THR104      0.2643
     89  O          2.9360   30.3350    3.0010 O.2   104  THR104     -0.2714
     90  CB         2.4370   28.5140    0.8770 C.3   104  THR104      0.1808
     91  OG1        1.8590   27.4400    1.6300 O.3   104  THR104     -0.2208
     92  CG2        2.4640   28.1370   -0.5990 C.3   104  THR104      0.0379
     93  N          4.5410   28.9610    3.7470 N.am  105  SER105     -0.1935
     94  CA         4.4830   29.4970    5.1050 C.3   105  SER105      0.2055
     95  C          5.8670   29.6060    5.7290 C.2   105  SER105      0.2643
     96  O          6.7080   28.7350    5.5240 O.2   105  SER105     -0.2714
     97  CB         3.5990   28.6170    5.9920 C.3   105  SER105      0.2130
     98  OG         3.5800   29.1050    7.3270 O.3   105  SER105     -0.2179
     99  N          6.0970   30.6750    6.4900 N.am  106  TYR106     -0.1959
    100  CA         7.3400   30.8210    7.2330 C.3   106  TYR106      0.1771
    101  C          7.2200   30.2610    8.6460 C.2   106  TYR106      0.2619
    102  O          8.1850   30.3050    9.4060 O.2   106  TYR106     -0.2715
    103  CB         7.7840   32.2860    7.3040 C.3   106  TYR106      0.0574
    104  CG         8.3060   32.8550    5.9990 C.ar  106  TYR106     -0.0198
    105  CD1        9.4180   32.3010    5.3640 C.ar  106  TYR106     -0.0009
    106  CD2        7.7040   33.9580    5.4160 C.ar  106  TYR106     -0.0009
    107  CE1        9.8980   32.8240    4.1720 C.ar  106  TYR106      0.0417
    108  CE2        8.1740   34.4890    4.2250 C.ar  106  TYR106      0.0417
    109  CZ         9.2700   33.9220    3.6090 C.ar  106  TYR106      0.1957
    110  OH         9.7290   34.4620    2.4300 O.3   106  TYR106     -0.2866
    111  N          6.0440   29.7510    9.0080 N.am  107  ALA107     -0.1977
    112  CA         5.8930   29.0740   10.2920 C.3   107  ALA107      0.1597
    113  C          7.0110   28.0490   10.3980 C.2   107  ALA107      0.2287
    114  O          7.2130   27.2520    9.4860 O.2   107  ALA107     -0.2864
    115  CB         4.5300   28.4010   10.4000 C.3   107  ALA107      0.0319
@<TRIPOS>BOND
     1    44    42    1
     2    42    43    1
     3    42    41    2
     4    40    41    1
     5    40    39    1
     6    39    38    1
     7    32    33    1
     8    32    31    1
     9    38    35    1
    10    33    27    1
    11     9     8    1
    12    31    28    1
    13    54    53    1
    14    53    50    1
    15    35    34    1
    16    35    36    1
    17    34    29   am
    18     8     7    1
    19    27    28    1
    20    27    22   am
    21    28    29    1
    22    29    30    2
    23    50    49    1
    24    50    51    1
    25    23    22    2
    26    36    37    2
    27    36    45   am
    28    22    21    1
    29    49    47   am
    30    60    59    1
    31     7     6    1
    32     6     5    1
    33    45    46    1
    34    51    52    2
    35    51    55   am
    36    25    24    1
    37    55    56    1
    38    47    46    1
    39    47    48    2
    40    21    24    1
    41    21    20    1
    42    59    56    1
    43    59    61    1
    44    19    18    1
    45     5     2    1
    46     2     1    1
    47     2     3    1
    48    56    57    1
    49    24    26    1
    50    85    84    1
    51    20    16   am
    52    18    15    1
    53    84    81    1
    54    92    90    1
    55     4     3    2
    56    16    17    2
    57    16    15    1
    58    83    82    2
    59    15    14    1
    60    57    58    2
    61    81    82    1
    62    81    80    1
    63    82    86   am
    64    73    72    1
    65    90    87    1
    66    90    91    1
    67    86    87    1
    68    87    88    1
    69    80    76   am
    70    72    71   ar
    71    72    70   ar
    72    71    69   ar
    73   110   109    1
    74    10    11    1
    75    70    68   ar
    76    76    77    2
    77    76    75    1
    78    88    89    2
    79    88    93   am
    80    11    12    1
    81    69    67   ar
    82   109   107   ar
    83   109   108   ar
    84    93    94    1
    85    75    78    1
    86    75    74    1
    87    68    67   ar
    88    78    79    1
    89   107   105   ar
    90   108   106   ar
    91    67    66    1
    92    62    63    1
    93    12    13    2
    94    94    95    1
    95    94    97    1
    96   105   104   ar
    97    63    66    1
    98    63    64    1
    99   106   104   ar
   100    96    95    2
   101    95    99   am
   102    97    98    1
   103   104   103    1
   104    99   100    1
   105    64    65    2
   106   100   103    1
   107   100   101    1
   108   101   111   am
   109   101   102    2
   110   111   112    1
   111   114   113    2
   112   112   113    1
   113   112   115    1
