@<TRIPOS>MOLECULE
tmp/4jg6A00.pdb
 118 109 0 0 0
SMALL
GASTEIGER

@<TRIPOS>ATOM
      1  N          8.6720  -32.5580   25.6750 N.3    23  ILE23      -0.1245
      2  CA        10.0010  -32.0430   25.9790 C.3    23  ILE23       0.1561
      3  C         10.1810  -30.6410   25.4030 C.2    23  ILE23       0.2260
      4  O         10.5050  -29.6980   26.1250 O.2    23  ILE23      -0.2867
      5  CB        11.0980  -32.9590   25.4120 C.3    23  ILE23       0.0252
      6  CG1       10.9540  -33.0810   23.8920 C.3    23  ILE23       0.0019
      7  CG2       11.0300  -34.3300   26.0660 C.3    23  ILE23       0.0019
      8  CD1       11.9960  -33.9670   23.2470 C.3    23  ILE23       0.0001
      9  N          7.0540  -30.1920   21.2670 N.3    26  CYS26      -0.1235
     10  CA         8.1080  -31.1960   21.2570 C.3    26  CYS26       0.1677
     11  C          7.7410  -32.3550   22.1710 C.2    26  CYS26       0.2270
     12  O          7.1870  -32.1560   23.2530 O.2    26  CYS26      -0.2867
     13  CB         9.4350  -30.5850   21.7070 C.3    26  CYS26       0.0956
     14  SG        10.0180  -29.2320   20.6640 S.3    26  CYS26      -0.0801
     15  N         13.7360  -37.1340   19.4470 N.3    39  ALA39      -0.1231
     16  CA        12.8310  -36.0310   19.7360 C.3    39  ALA39       0.1694
     17  C         12.0340  -35.6940   18.4830 C.2    39  ALA39       0.2592
     18  O         12.5840  -35.6600   17.3820 O.2    39  ALA39      -0.2718
     19  CB        13.6090  -34.8180   20.2110 C.3    39  ALA39       0.0304
     20  N         10.7380  -35.4520   18.6500 N.am   40  VAL40      -0.1966
     21  CA         9.8750  -35.1300   17.5200 C.3    40  VAL40       0.1727
     22  C          9.1620  -33.7980   17.7280 C.2    40  VAL40       0.2616
     23  O          8.4020  -33.6290   18.6800 O.2    40  VAL40      -0.2715
     24  CB         8.8280  -36.2400   17.2700 C.3    40  VAL40       0.0290
     25  CG1        8.0170  -36.5130   18.5290 C.3    40  VAL40       0.0023
     26  CG2        7.9170  -35.8600   16.1120 C.3    40  VAL40       0.0023
     27  N          9.4190  -32.8520   16.8300 N.am   41  LYS41      -0.1977
     28  CA         8.7490  -31.5600   16.8680 C.3    41  LYS41       0.1596
     29  C          7.5300  -31.5890   15.9570 C.2    41  LYS41       0.2287
     30  O          7.6570  -31.6910   14.7370 O.2    41  LYS41      -0.2864
     31  CB         9.7020  -30.4460   16.4310 C.3    41  LYS41       0.0298
     32  CG         9.0880  -29.0540   16.4780 C.3    41  LYS41       0.0038
     33  CD        10.0660  -27.9920   15.9980 C.3    41  LYS41       0.0206
     34  CE         9.4550  -26.6010   16.0700 C.3    41  LYS41       0.1093
     35  NZ        10.4030  -25.5440   15.6220 N.3    41  LYS41      -0.1314
     36  N         21.8540  -29.2750   15.8490 N.3    67  ILE67      -0.1245
     37  CA        20.9440  -30.3920   16.0690 C.3    67  ILE67       0.1561
     38  C         20.7060  -31.1180   14.7470 C.2    67  ILE67       0.2260
     39  O         20.3900  -30.4980   13.7300 O.2    67  ILE67      -0.2867
     40  CB        19.6030  -29.9300   16.6760 C.3    67  ILE67       0.0252
     41  CG1       18.7230  -31.1410   16.9960 C.3    67  ILE67       0.0019
     42  CG2       18.8840  -28.9740   15.7340 C.3    67  ILE67       0.0019
     43  CD1       17.4460  -30.7910   17.7330 C.3    67  ILE67       0.0001
     44  N          8.9600  -33.3890   12.6990 N.3    81  VAL81      -0.1245
     45  CA        10.4040  -33.2910   12.5390 C.3    81  VAL81       0.1561
     46  C         11.1030  -34.1040   13.6210 C.2    81  VAL81       0.2260
     47  O         11.0850  -33.7370   14.7950 O.2    81  VAL81      -0.2867
     48  CB        10.8770  -31.8280   12.6220 C.3    81  VAL81       0.0252
     49  CG1       12.3890  -31.7470   12.4740 C.3    81  VAL81       0.0019
     50  CG2       10.1870  -30.9890   11.5580 C.3    81  VAL81       0.0019
     51  N         14.3890  -35.4230   15.3880 N.3    83  THR83      -0.1203
     52  CA        15.7910  -35.0710   15.5630 C.3    83  THR83       0.1994
     53  C         16.4090  -35.8760   16.6960 C.2    83  THR83       0.2618
     54  O         15.7330  -36.6660   17.3530 O.2    83  THR83      -0.2717
     55  CB        15.9540  -33.5750   15.8860 C.3    83  THR83       0.1784
     56  OG1       15.3790  -33.2960   17.1690 O.3    83  THR83      -0.2211
     57  CG2       15.2760  -32.7190   14.8250 C.3    83  THR83       0.0376
     58  N         17.7000  -35.6660   16.9240 N.am   84  GLU84      -0.1965
     59  CA        18.3910  -36.3220   18.0230 C.3    84  GLU84       0.1733
     60  C         17.9280  -35.7330   19.3520 C.2    84  GLU84       0.2616
     61  O         17.6830  -34.5310   19.4600 O.2    84  GLU84      -0.2715
     62  CB        19.9080  -36.1800   17.8660 C.3    84  GLU84       0.0429
     63  CG        20.3870  -34.7510   17.6800 C.3    84  GLU84       0.1163
     64  CD        21.8860  -34.6640   17.4730 C.2    84  GLU84       0.3649
     65  OE1       22.5650  -35.7040   17.6040 O.co2  84  GLU84      -0.2457
     66  OE2       22.3850  -33.5570   17.1760 O.co2  84  GLU84      -0.2457
     67  N         17.8030  -36.5920   20.3570 N.am   85  LEU85      -0.1963
     68  CA        17.3080  -36.1830   21.6660 C.3    85  LEU85       0.1728
     69  C         18.4570  -35.7110   22.5530 C.2    85  LEU85       0.2616
     70  O         19.4470  -36.4210   22.7260 O.2    85  LEU85      -0.2715
     71  CB        16.5760  -37.3520   22.3300 C.3    85  LEU85       0.0311
     72  CG        15.9420  -37.0860   23.6960 C.3    85  LEU85       0.0022
     73  CD1       14.9080  -35.9760   23.6030 C.3    85  LEU85       0.0001
     74  CD2       15.3180  -38.3590   24.2410 C.3    85  LEU85       0.0001
     75  N         18.3220  -34.5100   23.1110 N.am   86  MET86      -0.1977
     76  CA        19.3600  -33.9480   23.9640 C.3    86  MET86       0.1605
     77  C         19.2430  -34.5230   25.3690 C.2    86  MET86       0.2287
     78  O         18.2390  -34.3190   26.0510 O.2    86  MET86      -0.2864
     79  CB        19.2200  -32.4270   24.0280 C.3    86  MET86       0.0413
     80  CG        19.2950  -31.7260   22.6810 C.3    86  MET86       0.0598
     81  SD        20.8940  -31.9050   21.8670 S.3    86  MET86      -0.1393
     82  CE        20.6440  -33.4180   20.9440 C.3    86  MET86       0.0692
     83  N         18.0230  -21.3050   26.1160 N.3   133  SER133     -0.1202
     84  CA        17.1800  -22.4900   26.2070 C.3   133  SER133      0.2020
     85  C         17.2510  -23.3330   24.9340 C.2   133  SER133      0.2618
     86  O         16.8490  -24.4950   24.9330 O.2   133  SER133     -0.2717
     87  CB        15.7290  -22.0960   26.5040 C.3   133  SER133      0.2103
     88  OG        15.2400  -21.1650   25.5560 O.3   133  SER133     -0.2182
     89  N         17.7540  -22.7440   23.8520 N.am  134  ASN134     -0.1974
     90  CA        17.8820  -23.4580   22.5820 C.3   134  ASN134      0.1688
     91  C         19.2740  -24.0460   22.3490 C.2   134  ASN134      0.2292
     92  O         19.5070  -24.7210   21.3470 O.2   134  ASN134     -0.2864
     93  CB        17.5030  -22.5430   21.4170 C.3   134  ASN134      0.1181
     94  CG        16.0260  -22.2030   21.4010 C.2   134  ASN134      0.2629
     95  OD1       15.1870  -23.0040   21.8160 O.2   134  ASN134     -0.2716
     96  ND2       15.6980  -21.0090   20.9190 N.am  134  ASN134     -0.0877
     97  N         21.7400  -26.7090   23.8410 N.3   136  LEU136     -0.1245
     98  CA        21.6630  -27.8380   24.7600 C.3   136  LEU136      0.1561
     99  C         22.8270  -28.8050   24.5860 C.2   136  LEU136      0.2260
    100  O         23.5280  -28.7780   23.5750 O.2   136  LEU136     -0.2867
    101  CB        20.3490  -28.5890   24.5400 C.3   136  LEU136      0.0270
    102  CG        19.1120  -27.7030   24.3760 C.3   136  LEU136      0.0019
    103  CD1       17.9000  -28.5350   23.9860 C.3   136  LEU136      0.0001
    104  CD2       18.8420  -26.9150   25.6480 C.3   136  LEU136      0.0001
    105  N         19.6820  -25.6550   18.6500 N.3   150  CYS150     -0.1221
    106  CA        18.3950  -26.2840   18.3690 C.3   150  CYS150      0.1808
    107  C         17.2830  -25.2690   18.1020 C.2   150  CYS150      0.2601
    108  O         17.4570  -24.0700   18.3160 O.2   150  CYS150     -0.2717
    109  CB        17.9970  -27.1850   19.5390 C.3   150  CYS150      0.0970
    110  SG        19.3350  -28.2490   20.1300 S.3   150  CYS150     -0.0800
    111  N         16.1450  -25.7690   17.6250 N.am  151  ASP151     -0.1973
    112  CA        14.9590  -24.9460   17.3910 C.3   151  ASP151      0.1709
    113  C         15.2130  -23.8110   16.4060 C.2   151  ASP151      0.2293
    114  O         15.2970  -22.6430   16.7860 O.2   151  ASP151     -0.2864
    115  CB        14.4140  -24.3860   18.7040 C.3   151  ASP151      0.1436
    116  CG        12.9980  -23.8580   18.5630 C.2   151  ASP151      0.3671
    117  OD1       12.1860  -24.0750   19.4880 O.co2 151  ASP151     -0.2456
    118  OD2       12.6940  -23.2320   17.5250 O.co2 151  ASP151     -0.2456
@<TRIPOS>BOND
     1    50    48    1
     2    49    48    1
     3    45    48    1
     4    45    44    1
     5    45    46    1
     6    46    47    2
     7    39    38    2
     8    30    29    2
     9    38    37    1
    10    57    55    1
    11    51    52    1
    12    52    55    1
    13    52    53    1
    14    35    34    1
    15    42    40    1
    16    36    37    1
    17    55    56    1
    18    29    28    1
    19    33    34    1
    20    33    32    1
    21    37    40    1
    22    26    24    1
    23   113   114    2
    24   113   112    1
    25    31    32    1
    26    31    28    1
    27    40    41    1
    28    53    58   am
    29    53    54    2
    30    27    28    1
    31    27    22   am
    32    58    59    1
    33    41    43    1
    34    66    64   ar
    35    24    21    1
    36    24    25    1
    37    18    17    2
    38   112   111    1
    39   112   115    1
    40    64    65   ar
    41    64    63    1
    42    21    22    1
    43    21    20    1
    44   118   116   ar
    45   111   107   am
    46    63    62    1
    47    22    23    2
    48    62    59    1
    49    59    60    1
    50   107   108    2
    51   107   106    1
    52   106   105    1
    53   106   109    1
    54    17    20   am
    55    17    16    1
    56   116   115    1
    57   116   117   ar
    58    60    61    2
    59    60    67   am
    60    15    16    1
    61   109   110    1
    62    16    19    1
    63    67    68    1
    64    14    13    1
    65    96    94   am
    66    82    81    1
    67    10     9    1
    68    10    13    1
    69    10    11    1
    70    92    91    2
    71    94    93    1
    72    94    95    2
    73    93    90    1
    74    68    71    1
    75    68    69    1
    76    81    80    1
    77    11    12    2
    78    71    72    1
    79    91    90    1
    80    69    70    2
    81    69    75   am
    82    90    89    1
    83    80    79    1
    84    75    76    1
    85     8     6    1
    86   100    99    2
    87    73    72    1
    88    72    74    1
    89    97    98    1
    90    89    85   am
    91     6     5    1
    92    76    79    1
    93    76    77    1
    94   103   102    1
    95   102   101    1
    96   102   104    1
    97   101    98    1
    98    99    98    1
    99    86    85    2
   100    85    84    1
   101    77    78    2
   102     3     2    1
   103     3     4    2
   104     5     2    1
   105     5     7    1
   106    88    87    1
   107     1     2    1
   108    83    84    1
   109    84    87    1
