@<TRIPOS>MOLECULE
tmp/4jg7A00.pdb
 150 138 0 0 0
SMALL
GASTEIGER

@<TRIPOS>ATOM
      1  N          7.5620   15.0890  -25.7850 N.3    24  ILE24      -0.1231
      2  CA         7.0710   13.7290  -25.9700 C.3    24  ILE24       0.1692
      3  C          5.5890   13.6420  -25.6210 C.2    24  ILE24       0.2593
      4  O          5.1060   14.3560  -24.7430 O.2    24  ILE24      -0.2718
      5  CB         7.8500   12.7280  -25.0940 C.3    24  ILE24       0.0266
      6  CG1        9.2590   12.5190  -25.6520 C.3    24  ILE24       0.0019
      7  CG2        7.1140   11.3960  -25.0180 C.3    24  ILE24       0.0020
      8  CD1       10.0720   11.4890  -24.8940 C.3    24  ILE24       0.0001
      9  N          4.8720   12.7630  -26.3150 N.am   25  GLY25      -0.1942
     10  CA         3.4610   12.5500  -26.0480 C.3    25  GLY25       0.2014
     11  C          2.5590   13.4010  -26.9220 C.2    25  GLY25       0.2638
     12  O          2.9220   13.7640  -28.0410 O.2    25  GLY25      -0.2714
     13  N          1.3750   13.7170  -26.4070 N.am   26  VAL26      -0.1977
     14  CA         0.4070   14.5200  -27.1440 C.3    26  VAL26       0.1596
     15  C         -0.5800   15.1890  -26.1920 C.2    26  VAL26       0.2287
     16  O         -1.1090   14.5530  -25.2800 O.2    26  VAL26      -0.2864
     17  CB        -0.3770   13.6630  -28.1530 C.3    26  VAL26       0.0276
     18  CG1       -1.2530   12.6030  -27.5370 C.3    26  VAL26       0.0022
     19  CG2       -1.1370   14.5270  -29.1460 C.3    26  VAL26       0.0022
     20  N         -0.4850   16.2040  -20.5920 N.3    28  SER28      -0.1217
     21  CA         0.5890   16.3710  -19.6210 C.3    28  SER28       0.1889
     22  C          1.9050   16.6810  -20.3250 C.2    28  SER28       0.2288
     23  O          2.2650   16.0280  -21.3060 O.2    28  SER28      -0.2866
     24  CB         0.7380   15.1090  -18.7690 C.3    28  SER28       0.2089
     25  OG         0.9690   13.9700  -19.5760 O.3    28  SER28      -0.2183
     26  N          5.6110   16.5800  -21.2230 N.3    30  CYS30      -0.1235
     27  CA         6.6380   15.5510  -21.1290 C.3    30  CYS30       0.1677
     28  C          7.8050   15.8690  -22.0590 C.2    30  CYS30       0.2270
     29  O          7.6350   16.5390  -23.0780 O.2    30  CYS30      -0.2867
     30  CB         6.0480   14.1850  -21.4810 C.3    30  CYS30       0.0956
     31  SG         4.5410   13.7920  -20.5860 S.3    30  CYS30      -0.0801
     32  N         12.6110    9.4900  -19.6980 N.3    43  ALA43      -0.1231
     33  CA        11.4760   10.3690  -19.9340 C.3    43  ALA43       0.1694
     34  C         11.1550   11.1220  -18.6510 C.2    43  ALA43       0.2592
     35  O         11.1680   10.5450  -17.5640 O.2    43  ALA43      -0.2718
     36  CB        10.2760    9.5700  -20.3920 C.3    43  ALA43       0.0304
     37  N         10.8750   12.4140  -18.7780 N.am   44  VAL44      -0.1966
     38  CA        10.5490   13.2360  -17.6200 C.3    44  VAL44       0.1727
     39  C          9.2030   13.9220  -17.8140 C.2    44  VAL44       0.2616
     40  O          8.8780   14.3800  -18.9100 O.2    44  VAL44      -0.2715
     41  CB        11.6310   14.3010  -17.3580 C.3    44  VAL44       0.0290
     42  CG1       11.7320   15.2630  -18.5320 C.3    44  VAL44       0.0023
     43  CG2       11.3350   15.0540  -16.0700 C.3    44  VAL44       0.0023
     44  N          8.4220   13.9820  -16.7410 N.am   45  LYS45      -0.1977
     45  CA         7.1230   14.6380  -16.7680 C.3    45  LYS45       0.1596
     46  C          7.1360   15.8520  -15.8490 C.2    45  LYS45       0.2287
     47  O          7.2200   15.7170  -14.6290 O.2    45  LYS45      -0.2864
     48  CB         6.0300   13.6600  -16.3330 C.3    45  LYS45       0.0298
     49  CG         4.6450   14.2740  -16.2280 C.3    45  LYS45       0.0038
     50  CD         3.6080   13.2270  -15.8580 C.3    45  LYS45       0.0206
     51  CE         2.2290   13.8410  -15.6900 C.3    45  LYS45       0.1093
     52  NZ         1.1880   12.8120  -15.4130 N.3    45  LYS45      -0.1314
     53  N         -0.2510   10.8890   -7.7420 N.3    57  GLU57      -0.1245
     54  CA         0.3350   10.0910   -8.8130 C.3    57  GLU57       0.1567
     55  C          1.7030    9.5480   -8.4180 C.2    57  GLU57       0.2260
     56  O          1.9700    8.3530   -8.5540 O.2    57  GLU57      -0.2867
     57  CB         0.4630   10.9230  -10.0910 C.3    57  GLU57       0.0388
     58  CG         1.0880   10.1650  -11.2550 C.3    57  GLU57       0.1160
     59  CD         1.2580   11.0240  -12.4940 C.2    57  GLU57       0.3649
     60  OE1        1.2100   12.2660  -12.3740 O.co2  57  GLU57      -0.2457
     61  OE2        1.4410   10.4540  -13.5910 O.co2  57  GLU57      -0.2457
     62  N          4.9060    1.5700  -15.9580 N.3    71  ILE71      -0.1245
     63  CA         6.0120    2.4940  -16.1830 C.3    71  ILE71       0.1561
     64  C          6.7530    2.7580  -14.8760 C.2    71  ILE71       0.2260
     65  O          6.1530    3.1470  -13.8750 O.2    71  ILE71      -0.2867
     66  CB         5.5300    3.8240  -16.7980 C.3    71  ILE71       0.0252
     67  CG1        6.7270    4.6980  -17.1760 C.3    71  ILE71       0.0019
     68  CG2        4.6060    4.5620  -15.8390 C.3    71  ILE71       0.0019
     69  CD1        6.3560    5.9180  -17.9930 C.3    71  ILE71       0.0001
     70  N         10.8440    9.0760  -15.3180 N.3    87  THR87      -0.1218
     71  CA        10.5440    7.6640  -15.5210 C.3    87  THR87       0.1862
     72  C         11.3150    7.1240  -16.7190 C.2    87  THR87       0.2287
     73  O         12.0310    7.8650  -17.3910 O.2    87  THR87      -0.2866
     74  CB         9.0440    7.4430  -15.7660 C.3    87  THR87       0.1770
     75  OG1        8.6550    8.0970  -16.9800 O.3    87  THR87      -0.2211
     76  CG2        8.2260    7.9920  -14.6070 C.3    87  THR87       0.0375
     77  N         12.0160    5.7710  -20.4670 N.3    89  LEU89      -0.1231
     78  CA        11.5440    6.2320  -21.7690 C.3    89  LEU89       0.1693
     79  C         10.9320    5.0890  -22.5760 C.2    89  LEU89       0.2592
     80  O         11.3400    3.9350  -22.4450 O.2    89  LEU89      -0.2718
     81  CB        12.6970    6.8610  -22.5520 C.3    89  LEU89       0.0284
     82  CG        12.3310    7.4870  -23.8980 C.3    89  LEU89       0.0019
     83  CD1       11.2820    8.5730  -23.7230 C.3    89  LEU89       0.0001
     84  CD2       13.5720    8.0440  -24.5770 C.3    89  LEU89       0.0001
     85  N          9.9530    5.4210  -23.4120 N.am   90  MET90      -0.1965
     86  CA         9.2650    4.4260  -24.2270 C.3    90  MET90       0.1736
     87  C          9.7270    4.5020  -25.6770 C.2    90  MET90       0.2616
     88  O          9.2560    5.3410  -26.4460 O.2    90  MET90      -0.2715
     89  CB         7.7540    4.6410  -24.1510 C.3    90  MET90       0.0427
     90  CG         7.1970    4.5450  -22.7420 C.3    90  MET90       0.0599
     91  SD         7.3560    2.8910  -22.0450 S.3    90  MET90      -0.1393
     92  CE         6.9840    3.2200  -20.3240 C.3    90  MET90       0.0692
     93  N         10.6470    3.6180  -26.0460 N.am   91  LYS91      -0.1977
     94  CA        11.2090    3.6100  -27.3920 C.3    91  LYS91       0.1596
     95  C         10.4370    2.6770  -28.3220 C.2    91  LYS91       0.2287
     96  O         10.7200    2.6110  -29.5180 O.2    91  LYS91      -0.2864
     97  CB        12.6800    3.1930  -27.3440 C.3    91  LYS91       0.0298
     98  CG        13.5450    4.1250  -26.4670 C.3    91  LYS91       0.0038
     99  CD        15.0090    3.7390  -26.4600 C.3    91  LYS91       0.0206
    100  CE        15.2490    2.4060  -25.7630 C.3    91  LYS91       0.1093
    101  NZ        14.7450    2.3230  -24.4020 N.3    91  LYS91      -0.1314
    102  N          7.2450    2.9300  -28.9370 N.3    93  GLY93      -0.1210
    103  CA         6.0780    3.6260  -29.4470 C.3    93  GLY93       0.1956
    104  C          4.7960    3.1040  -28.8300 C.2    93  GLY93       0.2611
    105  O          4.8300    2.2900  -27.9080 O.2    93  GLY93      -0.2717
    106  N          3.6600    3.5730  -29.3380 N.am   94  GLU94      -0.1979
    107  CA         2.3620    3.1410  -28.8340 C.3    94  GLU94       0.1602
    108  C          2.0660    1.7080  -29.2630 C.2    94  GLU94       0.2287
    109  O          2.2190    1.3550  -30.4310 O.2    94  GLU94      -0.2864
    110  CB         1.2560    4.0730  -29.3310 C.3    94  GLU94       0.0415
    111  CG        -0.1480    3.6210  -28.9570 C.3    94  GLU94       0.1163
    112  CD        -1.2220    4.5570  -29.4760 C.2    94  GLU94       0.3649
    113  OE1       -0.8770    5.6740  -29.9160 O.co2  94  GLU94      -0.2457
    114  OE2       -2.4110    4.1760  -29.4460 O.co2  94  GLU94      -0.2457
    115  N         -3.4720    5.3070  -26.1490 N.3   137  SER137     -0.1202
    116  CA        -2.2840    6.1410  -26.2980 C.3   137  SER137      0.2020
    117  C         -1.4450    6.1620  -25.0220 C.2   137  SER137      0.2618
    118  O         -0.3300    6.6840  -25.0150 O.2   137  SER137     -0.2717
    119  CB        -2.6800    7.5660  -26.6900 C.3   137  SER137      0.2103
    120  OG        -3.5470    8.1400  -25.7280 O.3   137  SER137     -0.2182
    121  N         -1.9840    5.5980  -23.9460 N.am  138  ASN138     -0.1974
    122  CA        -1.2550    5.5050  -22.6850 C.3   138  ASN138      0.1688
    123  C         -0.7420    4.0940  -22.4220 C.2   138  ASN138      0.2292
    124  O         -0.2190    3.8040  -21.3460 O.2   138  ASN138     -0.2864
    125  CB        -2.1310    5.9730  -21.5220 C.3   138  ASN138      0.1181
    126  CG        -2.2880    7.4800  -21.4830 C.2   138  ASN138      0.2629
    127  OD1       -1.4180    8.2170  -21.9510 O.2   138  ASN138     -0.2716
    128  ND2       -3.3980    7.9460  -20.9210 N.am  138  ASN138     -0.0877
    129  N          1.9910    1.6090  -24.0220 N.3   140  LEU140     -0.1245
    130  CA         3.1120    1.6690  -24.9510 C.3   140  LEU140      0.1561
    131  C          4.0590    0.4900  -24.7720 C.2   140  LEU140      0.2260
    132  O          3.9190   -0.3000  -23.8380 O.2   140  LEU140     -0.2867
    133  CB         3.8840    2.9710  -24.7380 C.3   140  LEU140      0.0270
    134  CG         3.0180    4.2080  -24.4920 C.3   140  LEU140      0.0019
    135  CD1        3.8710    5.3880  -24.0680 C.3   140  LEU140      0.0001
    136  CD2        2.2070    4.5520  -25.7270 C.3   140  LEU140      0.0001
    137  N          0.9870    3.7130  -18.7400 N.3   154  CYS154     -0.1221
    138  CA         1.6440    4.9720  -18.4070 C.3   154  CYS154      0.1808
    139  C          0.6670    6.0630  -17.9790 C.2   154  CYS154      0.2601
    140  O         -0.5460    5.8590  -17.9580 O.2   154  CYS154     -0.2717
    141  CB         2.4560    5.4600  -19.6080 C.3   154  CYS154      0.0970
    142  SG         3.4570    4.1730  -20.3880 S.3   154  CYS154     -0.0800
    143  N          1.2240    7.2220  -17.6370 N.am  155  ASP155     -0.1973
    144  CA         0.4450    8.3970  -17.2540 C.3   155  ASP155      0.1709
    145  C         -0.6360    8.0750  -16.2260 C.2   155  ASP155      0.2293
    146  O         -1.7960    7.8570  -16.5770 O.2   155  ASP155     -0.2864
    147  CB        -0.1900    9.0450  -18.4860 C.3   155  ASP155      0.1436
    148  CG        -0.6150   10.4800  -18.2350 C.2   155  ASP155      0.3671
    149  OD1       -0.7880   10.8540  -17.0560 O.co2 155  ASP155     -0.2456
    150  OD2       -0.7710   11.2350  -19.2190 O.co2 155  ASP155     -0.2456
@<TRIPOS>BOND
     1   109   108    2
     2   113   112   ar
     3    96    95    2
     4   112   114   ar
     5   112   111    1
     6   103   102    1
     7   103   104    1
     8   106   107    1
     9   106   104   am
    10   110   111    1
    11   110   107    1
    12   108   107    1
    13    19    17    1
    14   104   105    2
    15    95    94    1
    16    17    18    1
    17    17    14    1
    18    12    11    2
    19    94    97    1
    20    94    93    1
    21    97    98    1
    22    14    13    1
    23    14    15    1
    24    11    13   am
    25    11    10    1
    26   119   116    1
    27   119   120    1
    28    98    99    1
    29    99   100    1
    30    88    87    2
    31     9    10    1
    32     9     3   am
    33   116   115    1
    34   116   117    1
    35    15    16    2
    36    93    87   am
    37     2     1    1
    38     2     3    1
    39     2     5    1
    40   100   101    1
    41   136   134    1
    42    87    86    1
    43     6     5    1
    44     6     8    1
    45     3     4    2
    46     5     7    1
    47   117   118    2
    48   117   121   am
    49   130   131    1
    50   130   133    1
    51   130   129    1
    52   131   132    2
    53   133   134    1
    54    84    82    1
    55   134   135    1
    56    86    89    1
    57    86    85    1
    58    89    90    1
    59   121   122    1
    60    82    83    1
    61    82    81    1
    62    85    79   am
    63    29    28    2
    64    90    91    1
    65   122   123    1
    66   122   125    1
    67    79    80    2
    68    79    78    1
    69    81    78    1
    70   123   124    2
    71    28    27    1
    72    91    92    1
    73   127   126    2
    74    78    77    1
    75   125   126    1
    76   126   128   am
    77    30    27    1
    78    30    31    1
    79    23    22    2
    80    26    27    1
    81    20    21    1
    82    36    33    1
    83   142   141    1
    84    22    21    1
    85    33    32    1
    86    33    34    1
    87    21    24    1
    88   141   138    1
    89    25    24    1
    90   150   148   ar
    91    40    39    2
    92    37    34   am
    93    37    38    1
    94   137   138    1
    95    34    35    2
    96    42    41    1
    97   147   148    1
    98   147   144    1
    99   138   139    1
   100   148   149   ar
   101    69    67    1
   102   139   140    2
   103   139   143   am
   104    39    38    1
   105    39    44   am
   106   143   144    1
   107    38    41    1
   108    73    72    2
   109    41    43    1
   110   144   145    1
   111    67    66    1
   112    75    74    1
   113    66    63    1
   114    66    68    1
   115    45    44    1
   116    45    48    1
   117    45    46    1
   118    72    71    1
   119   146   145    2
   120    48    49    1
   121    49    50    1
   122    63    62    1
   123    63    64    1
   124    50    51    1
   125    46    47    2
   126    74    71    1
   127    74    76    1
   128    51    52    1
   129    71    70    1
   130    64    65    2
   131    61    59   ar
   132    59    60   ar
   133    59    58    1
   134    58    57    1
   135    57    54    1
   136    54    55    1
   137    54    53    1
   138    56    55    2
