@<TRIPOS>MOLECULE
tmp/4jg8A00.pdb
 172 160 0 0 0
SMALL
GASTEIGER

@<TRIPOS>ATOM
      1  N         15.9750   10.1360   25.5390 N.3    14  ILE14      -0.1231
      2  CA        14.7080    9.5150   25.9010 C.3    14  ILE14       0.1692
      3  C         14.8830    8.0060   26.0280 C.2    14  ILE14       0.2593
      4  O         14.3760    7.3880   26.9640 O.2    14  ILE14      -0.2718
      5  CB        13.6210    9.8060   24.8520 C.3    14  ILE14       0.0266
      6  CG1       13.5080   11.3120   24.6100 C.3    14  ILE14       0.0019
      7  CG2       12.2860    9.2360   25.3040 C.3    14  ILE14       0.0020
      8  CD1       12.5170   11.6850   23.5310 C.3    14  ILE14       0.0001
      9  N         15.6050    7.4200   25.0780 N.am   15  GLY15      -0.1942
     10  CA        15.8780    5.9950   25.0910 C.3    15  GLY15       0.2014
     11  C         17.0580    5.6530   24.2040 C.2    15  GLY15       0.2639
     12  O         17.0200    5.8770   22.9940 O.2    15  GLY15      -0.2714
     13  N         18.1110    5.1100   24.8070 N.am   16  VAL16      -0.1963
     14  CA        19.3260    4.7730   24.0730 C.3    16  VAL16       0.1727
     15  C         19.3630    3.2920   23.7120 C.2    16  VAL16       0.2616
     16  O         19.4030    2.4300   24.5890 O.2    16  VAL16      -0.2715
     17  CB        20.5870    5.1230   24.8900 C.3    16  VAL16       0.0290
     18  CG1       21.8380    4.5890   24.2040 C.3    16  VAL16       0.0023
     19  CG2       20.6830    6.6280   25.0980 C.3    16  VAL16       0.0023
     20  N         19.3490    3.0070   22.4140 N.am   17  GLY17      -0.1955
     21  CA        19.4170    1.6410   21.9290 C.3    17  GLY17       0.1869
     22  C         20.8050    1.3060   21.4220 C.2    17  GLY17       0.2309
     23  O         21.6620    2.1820   21.3170 O.2    17  GLY17      -0.2863
     24  N         20.1740    2.5410   17.5700 N.3    20  SER20      -0.1217
     25  CA        19.5990    3.8720   17.4340 C.3    20  SER20       0.1889
     26  C         19.6030    4.6140   18.7640 C.2    20  SER20       0.2288
     27  O         19.9850    4.0620   19.7970 O.2    20  SER20      -0.2866
     28  CB        18.1680    3.7760   16.9070 C.3    20  SER20       0.2089
     29  OG        18.1040    2.9440   15.7630 O.3    20  SER20      -0.2183
     30  N         17.2600    8.0230   20.8330 N.3    22  CYS22      -0.1235
     31  CA        16.1620    8.9830   20.7830 C.3    22  CYS22       0.1677
     32  C         16.3680   10.1020   21.7980 C.2    22  CYS22       0.2270
     33  O         16.5530    9.8480   22.9870 O.2    22  CYS22      -0.2867
     34  CB        14.8260    8.2840   21.0390 C.3    22  CYS22       0.0956
     35  SG        14.3040    7.1540   19.7190 S.3    22  CYS22      -0.0801
     36  N         10.5690   14.8030   19.1010 N.3    35  ALA35      -0.1245
     37  CA        11.4830   13.7100   19.3960 C.3    35  ALA35       0.1562
     38  C         12.2490   13.3540   18.1290 C.2    35  ALA35       0.2260
     39  O         11.6590   13.2170   17.0570 O.2    35  ALA35      -0.2867
     40  CB        10.7190   12.5040   19.9140 C.3    35  ALA35       0.0290
     41  N         15.0090   10.6570   16.3870 N.3    37  LYS37      -0.1245
     42  CA        15.6930    9.3750   16.4730 C.3    37  LYS37       0.1561
     43  C         16.9360    9.3830   15.5950 C.2    37  LYS37       0.2260
     44  O         16.8540    9.6010   14.3860 O.2    37  LYS37      -0.2867
     45  CB        14.7620    8.2350   16.0560 C.3    37  LYS37       0.0271
     46  CG        15.3930    6.8560   16.1800 C.3    37  LYS37       0.0035
     47  CD        14.3960    5.7500   15.8790 C.3    37  LYS37       0.0206
     48  CE        14.9980    4.3780   16.1500 C.3    37  LYS37       0.1093
     49  NZ        14.0220    3.2750   15.9270 N.3    37  LYS37      -0.1314
     50  N         12.1890    1.2530    7.9790 N.3    49  GLU49      -0.1245
     51  CA        11.4590    1.9210    9.0500 C.3    49  GLU49       0.1567
     52  C         10.8700    3.2550    8.6000 C.2    49  GLU49       0.2260
     53  O          9.6920    3.5300    8.8300 O.2    49  GLU49      -0.2867
     54  CB        12.3770    2.1340   10.2550 C.3    49  GLU49       0.0388
     55  CG        11.6960    2.7680   11.4570 C.3    49  GLU49       0.1160
     56  CD        12.6070    2.8410   12.6680 C.2    49  GLU49       0.3649
     57  OE1       13.7430    2.3250   12.5900 O.co2  49  GLU49      -0.2457
     58  OE2       12.1890    3.4130   13.6980 O.co2  49  GLU49      -0.2457
     59  N          2.6220    7.2740   15.6190 N.3    63  ILE63      -0.1245
     60  CA         3.5630    8.3740   15.7760 C.3    63  ILE63       0.1561
     61  C          3.8750    8.9750   14.4110 C.2    63  ILE63       0.2260
     62  O          4.2230    8.2620   13.4720 O.2    63  ILE63      -0.2867
     63  CB         4.8630    7.9170   16.4640 C.3    63  ILE63       0.0252
     64  CG1        5.7990    9.1100   16.6690 C.3    63  ILE63       0.0019
     65  CG2        5.5450    6.8290   15.6500 C.3    63  ILE63       0.0019
     66  CD1        7.0070    8.8000   17.5260 C.3    63  ILE63       0.0001
     67  N         10.2990   12.9190   14.8580 N.3    79  MET79      -0.1230
     68  CA         8.9210   12.4910   15.0550 C.3    79  MET79       0.1702
     69  C          8.2850   13.2940   16.1810 C.2    79  MET79       0.2592
     70  O          8.9550   14.0910   16.8370 O.2    79  MET79      -0.2718
     71  CB         8.8800   11.0010   15.3860 C.3    79  MET79       0.0401
     72  CG         9.4470   10.1220   14.2850 C.3    79  MET79       0.0596
     73  SD        10.0180    8.5210   14.8830 S.3    79  MET79      -0.1393
     74  CE        11.4260    9.0110   15.8760 C.3    79  MET79       0.0692
     75  N          6.9920   13.0830   16.4020 N.am   80  GLU80      -0.1966
     76  CA         6.2720   13.8000   17.4480 C.3    80  GLU80       0.1733
     77  C          6.6060   13.2420   18.8290 C.2    80  GLU80       0.2616
     78  O          6.7100   12.0290   19.0120 O.2    80  GLU80      -0.2715
     79  CB         4.7630   13.7310   17.2030 C.3    80  GLU80       0.0429
     80  CG         4.1990   12.3210   17.1890 C.3    80  GLU80       0.1163
     81  CD         2.7080   12.2970   16.9110 C.2    80  GLU80       0.3649
     82  OE1        2.1080   13.3860   16.7920 O.co2  80  GLU80      -0.2457
     83  OE2        2.1360   11.1900   16.8100 O.co2  80  GLU80      -0.2457
     84  N          6.7750   14.1390   19.7950 N.am   81  LEU81      -0.1963
     85  CA         7.0970   13.7470   21.1620 C.3    81  LEU81       0.1728
     86  C          5.8440   13.2710   21.8910 C.2    81  LEU81       0.2616
     87  O          4.7330   13.6830   21.5590 O.2    81  LEU81      -0.2715
     88  CB         7.7210   14.9240   21.9120 C.3    81  LEU81       0.0311
     89  CG         8.2000   14.6320   23.3350 C.3    81  LEU81       0.0022
     90  CD1        9.2870   13.5680   23.3260 C.3    81  LEU81       0.0001
     91  CD2        8.6990   15.9050   23.9990 C.3    81  LEU81       0.0001
     92  N          6.0260   12.4060   22.8830 N.am   82  MET82      -0.1963
     93  CA         4.9020   11.8560   23.6340 C.3    82  MET82       0.1736
     94  C          4.8640   12.4120   25.0520 C.2    82  MET82       0.2616
     95  O          5.6030   11.9590   25.9240 O.2    82  MET82      -0.2715
     96  CB         4.9980   10.3310   23.6840 C.3    82  MET82       0.0427
     97  CG         4.9790    9.6740   22.3170 C.3    82  MET82       0.0599
     98  SD         3.4360    9.9630   21.4290 S.3    82  MET82      -0.1393
     99  CE         3.9030    9.4500   19.7760 C.3    82  MET82       0.0692
    100  N          3.9920   13.3890   25.2800 N.am   83  LYS83      -0.1977
    101  CA         3.8640   14.0050   26.5960 C.3    83  LYS83       0.1596
    102  C          2.8230   13.2900   27.4520 C.2    83  LYS83       0.2287
    103  O          2.0900   13.9280   28.2070 O.2    83  LYS83      -0.2864
    104  CB         3.4810   15.4790   26.4610 C.3    83  LYS83       0.0298
    105  CG         4.5830   16.3650   25.9120 C.3    83  LYS83       0.0038
    106  CD         4.6020   17.7010   26.6330 C.3    83  LYS83       0.0206
    107  CE         5.6890   18.6140   26.1020 C.3    83  LYS83       0.1093
    108  NZ         5.7830   19.8700   26.8970 N.3    83  LYS83      -0.1314
    109  N          3.6530    9.6680   28.4470 N.3    85  GLY85      -0.1210
    110  CA         4.3070    8.4830   28.9700 C.3    85  GLY85       0.1956
    111  C          3.7270    7.1880   28.4270 C.2    85  GLY85       0.2611
    112  O          2.8860    7.1950   27.5280 O.2    85  GLY85      -0.2717
    113  N          4.1850    6.0710   28.9840 N.am   86  GLU86      -0.1979
    114  CA         3.7320    4.7510   28.5630 C.3    86  GLU86       0.1602
    115  C          2.2460    4.5650   28.8460 C.2    86  GLU86       0.2287
    116  O          1.7680    4.8720   29.9370 O.2    86  GLU86      -0.2864
    117  CB         4.5450    3.6680   29.2740 C.3    86  GLU86       0.0415
    118  CG         4.0790    2.2500   28.9950 C.3    86  GLU86       0.1163
    119  CD         4.9600    1.2090   29.6600 C.2    86  GLU86       0.3649
    120  OE1        6.1590    1.4900   29.8680 O.co2  86  GLU86      -0.2457
    121  OE2        4.4540    0.1120   29.9790 O.co2  86  GLU86      -0.2457
    122  N          5.9560   -0.8680   26.1890 N.3   129  SER129     -0.1202
    123  CA         6.8150    0.3090   26.2540 C.3   129  SER129      0.2020
    124  C          6.7630    1.1230   24.9620 C.2   129  SER129      0.2618
    125  O          7.1300    2.2970   24.9490 O.2   129  SER129     -0.2717
    126  CB         8.2590   -0.1020   26.5520 C.3   129  SER129      0.2103
    127  OG         8.7530   -0.9900   25.5650 O.3   129  SER129     -0.2182
    128  N          6.3070    0.4970   23.8800 N.am  130  ASN130     -0.1974
    129  CA         6.2220    1.1670   22.5850 C.3   130  ASN130      0.1688
    130  C          4.8230    1.6910   22.2760 C.2   130  ASN130      0.2292
    131  O          4.4940    1.9560   21.1210 O.2   130  ASN130     -0.2864
    132  CB         6.6760    0.2270   21.4670 C.3   130  ASN130      0.1181
    133  CG         8.1840    0.0810   21.4050 C.2   130  ASN130      0.2629
    134  OD1        8.9220    1.0090   21.7350 O.2   130  ASN130     -0.2716
    135  ND2        8.6490   -1.0860   20.9760 N.am  130  ASN130     -0.0877
    136  N          2.6130    4.7630   23.6880 N.3   132  LEU132     -0.1245
    137  CA         2.6150    5.9230   24.5690 C.3   132  LEU132      0.1561
    138  C          1.4230    6.8330   24.3020 C.2   132  LEU132      0.2260
    139  O          0.7320    6.6930   23.2920 O.2   132  LEU132     -0.2867
    140  CB         3.9080    6.7260   24.3830 C.3   132  LEU132      0.0270
    141  CG         5.2400    5.9700   24.4370 C.3   132  LEU132      0.0019
    142  CD1        5.2980    5.0640   25.6520 C.3   132  LEU132      0.0001
    143  CD2        5.4800    5.1690   23.1650 C.3   132  LEU132      0.0001
    144  N          4.5530    3.4220   18.4590 N.3   146  CYS146     -0.1221
    145  CA         5.8470    4.0020   18.1190 C.3   146  CYS146      0.1808
    146  C          6.9290    2.9550   17.8750 C.2   146  CYS146      0.2601
    147  O          6.6810    1.7520   17.9550 O.2   146  CYS146     -0.2717
    148  CB         6.2910    4.9420   19.2380 C.3   146  CYS146      0.0970
    149  SG         4.9800    6.0360   19.8250 S.3   146  CYS146     -0.0800
    150  N          8.1320    3.4370   17.5760 N.am  147  ASP147     -0.1973
    151  CA         9.2880    2.5800   17.3410 C.3   147  ASP147      0.1709
    152  C          8.9720    1.4420   16.3770 C.2   147  ASP147      0.2293
    153  O          8.6560    0.3300   16.7960 O.2   147  ASP147     -0.2864
    154  CB         9.8110    2.0130   18.6610 C.3   147  ASP147      0.1436
    155  CG        11.0800    1.2040   18.4850 C.2   147  ASP147      0.3671
    156  OD1       11.7950    1.4270   17.4840 O.co2 147  ASP147     -0.2456
    157  OD2       11.3660    0.3480   19.3480 O.co2 147  ASP147     -0.2456
    158  N         11.1690    0.1170   14.4710 N.3   149  GLY149     -0.1210
    159  CA        12.5060   -0.3310   14.1310 C.3   149  GLY149      0.1956
    160  C         12.5610   -1.8030   13.7740 C.2   149  GLY149      0.2611
    161  O         13.5890   -2.2960   13.3120 O.2   149  GLY149     -0.2717
    162  N         11.4560   -2.5090   13.9910 N.am  150  PHE150     -0.1976
    163  CA        11.3810   -3.9270   13.6610 C.3   150  PHE150      0.1639
    164  C         10.1890   -4.2300   12.7570 C.2   150  PHE150      0.2290
    165  O          9.8730   -5.3920   12.5060 O.2   150  PHE150     -0.2864
    166  CB        11.3020   -4.7680   14.9380 C.3   150  PHE150      0.0560
    167  CG        12.6030   -4.8550   15.6900 C.ar  150  PHE150     -0.0200
    168  CD1       12.6160   -4.8970   17.0750 C.ar  150  PHE150     -0.0042
    169  CD2       13.8110   -4.9050   15.0120 C.ar  150  PHE150     -0.0042
    170  CE1       13.8090   -4.9800   17.7700 C.ar  150  PHE150     -0.0003
    171  CE2       15.0080   -4.9880   15.7020 C.ar  150  PHE150     -0.0003
    172  CZ        15.0060   -5.0260   17.0820 C.ar  150  PHE150     -0.0000
@<TRIPOS>BOND
     1    50    51    1
     2    52    53    2
     3    52    51    1
     4    51    54    1
     5    54    55    1
     6    55    56    1
     7   165   164    2
     8    57    56   ar
     9    56    58   ar
    10   164   163    1
    11   161   160    2
    12    62    61    2
    13   163   162    1
    14   163   166    1
    15   160   162   am
    16   160   159    1
    17   159   158    1
    18    72    73    1
    19    72    71    1
    20    44    43    2
    21    61    60    1
    22    67    68    1
    23    73    74    1
    24   166   167    1
    25   169   167   ar
    26   169   171   ar
    27    68    71    1
    28    68    69    1
    29    43    42    1
    30    59    60    1
    31    65    63    1
    32   167   168   ar
    33   171   172   ar
    34    29    28    1
    35    60    63    1
    36    47    48    1
    37    47    46    1
    38    49    48    1
    39    45    46    1
    40    45    42    1
    41    69    75   am
    42    69    70    2
    43   152   153    2
    44   152   151    1
    45    41    42    1
    46    75    76    1
    47    63    64    1
    48    64    66    1
    49    82    81   ar
    50    83    81   ar
    51    28    25    1
    52    81    80    1
    53    39    38    2
    54   168   170   ar
    55   172   170   ar
    56    80    79    1
    57    79    76    1
    58   151   150    1
    59   151   154    1
    60    25    24    1
    61    25    26    1
    62    76    77    1
    63   156   155   ar
    64   150   146   am
    65   146   147    2
    66   146   145    1
    67   145   144    1
    68   145   148    1
    69    38    37    1
    70   155   154    1
    71   155   157   ar
    72    26    27    2
    73    77    78    2
    74    77    84   am
    75    36    37    1
    76   148   149    1
    77    37    40    1
    78    35    34    1
    79    99    98    1
    80    84    85    1
    81    31    30    1
    82    31    34    1
    83    31    32    1
    84   135   133   am
    85   131   130    2
    86    85    86    1
    87    85    88    1
    88    23    22    2
    89   133   132    1
    90   133   134    2
    91    22    21    1
    92    98    97    1
    93   132   129    1
    94    87    86    2
    95    32    33    2
    96    86    92   am
    97    88    89    1
    98    21    20    1
    99   130   129    1
   100    97    96    1
   101    20    15   am
   102   129   128    1
   103    92    93    1
   104    12    11    2
   105   143   141    1
   106   139   138    2
   107    90    89    1
   108    89    91    1
   109     8     6    1
   110    93    96    1
   111    93    94    1
   112   136   137    1
   113    15    14    1
   114    15    16    2
   115   128   124   am
   116    14    13    1
   117    14    17    1
   118    11    13   am
   119    11    10    1
   120    18    17    1
   121   138   137    1
   122   140   141    1
   123   140   137    1
   124   141   142    1
   125     6     5    1
   126     5     7    1
   127     5     2    1
   128    17    19    1
   129   125   124    2
   130   124   123    1
   131    94   100   am
   132    94    95    2
   133     9    10    1
   134     9     3   am
   135   100   101    1
   136     1     2    1
   137   127   126    1
   138     2     3    1
   139   105   104    1
   140   105   106    1
   141     3     4    2
   142   107   106    1
   143   107   108    1
   144   122   123    1
   145   123   126    1
   146   104   101    1
   147   101   102    1
   148   102   103    2
   149   112   111    2
   150   111   110    1
   151   111   113   am
   152   109   110    1
   153   114   115    1
   154   114   113    1
   155   114   117    1
   156   115   116    2
   157   118   117    1
   158   118   119    1
   159   119   120   ar
   160   119   121   ar
