@<TRIPOS>MOLECULE
tmp/4jgcA00.pdb
 95 89 0 0 0
SMALL
GASTEIGER

@<TRIPOS>ATOM
      1  N        345.1010  -81.1570  433.3600 N.3    15  LEU15      -0.1245
      2  CA       343.9690  -80.6230  434.1060 C.3    15  LEU15       0.1561
      3  C        342.7020  -80.7050  433.2650 C.2    15  LEU15       0.2260
      4  O        342.5480  -79.9650  432.2920 O.2    15  LEU15      -0.2867
      5  CB       344.2360  -79.1750  434.5180 C.3    15  LEU15       0.0270
      6  CG       343.1100  -78.4680  435.2740 C.3    15  LEU15       0.0019
      7  CD1      342.7730  -79.2200  436.5500 C.3    15  LEU15       0.0001
      8  CD2      343.4890  -77.0270  435.5800 C.3    15  LEU15       0.0001
      9  N        341.3230  -70.2970  430.2890 N.3    29  GLY29      -0.1210
     10  CA       342.6680  -70.0090  430.7430 C.3    29  GLY29       0.1956
     11  C        343.6770  -70.0720  429.6150 C.2    29  GLY29       0.2612
     12  O        343.3400  -70.4140  428.4820 O.2    29  GLY29      -0.2717
     13  N        344.9220  -69.7380  429.9320 N.am   30  ILE30      -0.1965
     14  CA       346.0120  -69.8230  428.9710 C.3    30  ILE30       0.1727
     15  C        346.3960  -71.2850  428.8030 C.2    30  ILE30       0.2616
     16  O        346.2690  -71.8510  427.7170 O.2    30  ILE30      -0.2715
     17  CB       347.2320  -69.0050  429.4220 C.3    30  ILE30       0.0290
     18  CG1      346.8260  -67.5510  429.6650 C.3    30  ILE30       0.0022
     19  CG2      348.3420  -69.0850  428.3840 C.3    30  ILE30       0.0023
     20  CD1      347.9670  -66.6630  430.0960 C.3    30  ILE30       0.0001
     21  N        346.8510  -71.8840  429.8980 N.am   31  ALA31      -0.1964
     22  CA       347.2090  -73.2950  429.9490 C.3    31  ALA31       0.1713
     23  C        347.5870  -73.5970  431.3850 C.2    31  ALA31       0.2458
     24  O        348.3020  -72.8200  432.0080 O.2    31  ALA31      -0.2730
     25  CB       348.3890  -73.5790  429.0330 C.3    31  ALA31       0.0333
     26  N        347.1290  -74.7490  431.9030 N.am   32  PRO32      -0.2716
     27  CA       347.2250  -75.1030  433.3260 C.3    32  PRO32       0.1536
     28  C        348.6470  -75.0980  433.8730 C.2    32  PRO32       0.2599
     29  O        349.5650  -75.6010  433.2270 O.2    32  PRO32      -0.2715
     30  CB       346.6330  -76.5170  433.3810 C.3    32  PRO32       0.0310
     31  CG       346.6630  -77.0120  431.9730 C.3    32  PRO32       0.0237
     32  CD       346.4660  -75.8050  431.1220 C.3    32  PRO32       0.0939
     33  N        348.8130  -74.5190  435.0580 N.am   33  GLY33      -0.1955
     34  CA       350.1140  -74.4190  435.6910 C.3    33  GLY33       0.1869
     35  C        350.4750  -75.6500  436.4910 C.2    33  GLY33       0.2309
     36  O        349.7150  -76.6170  436.5390 O.2    33  GLY33      -0.2863
     37  N        348.2100  -76.0260  439.4600 N.3    36  ALA36      -0.1245
     38  CA       346.8950  -76.3910  438.9480 C.3    36  ALA36       0.1562
     39  C        346.8350  -77.8670  438.5710 C.2    36  ALA36       0.2260
     40  O        345.8410  -78.5440  438.8330 O.2    36  ALA36      -0.2867
     41  CB       346.5310  -75.5220  437.7560 C.3    36  ALA36       0.0290
     42  N        342.8100  -72.8660  439.0230 N.3    43  TYR43      -0.1241
     43  CA       343.1340  -71.6610  439.7770 C.3    43  TYR43       0.1605
     44  C        343.2750  -71.9640  441.2650 C.2    43  TYR43       0.2264
     45  O        342.6080  -71.3500  442.0990 O.2    43  TYR43      -0.2867
     46  CB       342.0670  -70.5870  439.5570 C.3    43  TYR43       0.0534
     47  CG       341.9040  -70.1720  438.1120 C.ar   43  TYR43      -0.0201
     48  CD1      342.6530  -69.1310  437.5800 C.ar   43  TYR43      -0.0009
     49  CD2      341.0010  -70.8220  437.2810 C.ar   43  TYR43      -0.0009
     50  CE1      342.5070  -68.7490  436.2600 C.ar   43  TYR43       0.0417
     51  CE2      340.8490  -70.4460  435.9590 C.ar   43  TYR43       0.0417
     52  CZ       341.6040  -69.4090  435.4550 C.ar   43  TYR43       0.1957
     53  OH       341.4560  -69.0320  434.1400 O.3    43  TYR43      -0.2866
     54  N        347.0080  -66.2700  442.4960 N.3    48  ASN48      -0.1240
     55  CA       346.3070  -65.9520  441.4910 C.3    48  ASN48       0.1653
     56  C        345.1640  -65.3470  442.0930 C.2    48  ASN48       0.2266
     57  O        344.8660  -65.6650  443.1510 O.2    48  ASN48      -0.2867
     58  CB       345.9480  -67.2610  440.9640 C.3    48  ASN48       0.1155
     59  CG       345.7360  -67.2950  439.4930 C.2    48  ASN48       0.2627
     60  OD1      344.7730  -67.0660  439.0680 O.2    48  ASN48      -0.2716
     61  ND2      346.5890  -67.7580  438.8410 N.am   48  ASN48      -0.0877
     62  N        340.8370  -74.2630  428.8630 N.3    82  ASN82      -0.1240
     63  CA       342.0890  -73.5720  428.5830 C.3    82  ASN82       0.1653
     64  C        342.3590  -73.4280  427.0910 C.2    82  ASN82       0.2266
     65  O        341.8650  -74.2150  426.2830 O.2    82  ASN82      -0.2867
     66  CB       343.2610  -74.2910  429.2560 C.3    82  ASN82       0.1155
     67  CG       343.1300  -74.3340  430.7650 C.2    82  ASN82       0.2627
     68  OD1      342.5670  -75.2740  431.3240 O.2    82  ASN82      -0.2716
     69  ND2      343.6480  -73.3100  431.4340 N.am   82  ASN82      -0.0877
     70  N        340.8860  -65.3700  429.7470 N.3   121  ASN121     -0.1240
     71  CA       341.5310  -64.9230  430.9750 C.3   121  ASN121      0.1653
     72  C        342.9970  -64.5610  430.7570 C.2   121  ASN121      0.2266
     73  O        343.8920  -65.1890  431.3220 O.2   121  ASN121     -0.2867
     74  CB       341.4100  -65.9910  432.0630 C.3   121  ASN121      0.1155
     75  CG       342.0680  -65.5750  433.3640 C.2   121  ASN121      0.2627
     76  OD1      342.6240  -64.4820  433.4700 O.2   121  ASN121     -0.2716
     77  ND2      342.0070  -66.4470  434.3640 N.am  121  ASN121     -0.0877
     78  N        344.9070  -61.3740  432.8790 N.3   162  SER162     -0.1202
     79  CA       345.1550  -62.6760  433.4890 C.3   162  SER162      0.2020
     80  C        345.0890  -62.6090  435.0100 C.2   162  SER162      0.2619
     81  O        345.6340  -61.6940  435.6250 O.2   162  SER162     -0.2717
     82  CB       346.5100  -63.2280  433.0490 C.3   162  SER162      0.2103
     83  OG       347.0620  -64.0740  434.0430 O.3   162  SER162     -0.2182
     84  N        344.4250  -63.5910  435.6120 N.am  163  SER163     -0.1937
     85  CA       344.2590  -63.6360  437.0590 C.3   163  SER163      0.2055
     86  C        345.5720  -63.9850  437.7530 C.2   163  SER163      0.2643
     87  O        345.6720  -63.9320  438.9790 O.2   163  SER163     -0.2714
     88  CB       343.1740  -64.6430  437.4410 C.3   163  SER163      0.2130
     89  OG       343.5350  -65.9550  437.0460 O.3   163  SER163     -0.2179
     90  N        346.5720  -64.3490  436.9580 N.am  164  SER164     -0.1949
     91  CA       347.9090  -64.6080  437.4700 C.3   164  SER164      0.1924
     92  C        348.5090  -63.3330  438.0510 C.2   164  SER164      0.2314
     93  O        348.1790  -62.2300  437.6170 O.2   164  SER164     -0.2863
     94  CB       348.8040  -65.1490  436.3560 C.3   164  SER164      0.2116
     95  OG       350.1520  -65.2440  436.7820 O.3   164  SER164     -0.2180
@<TRIPOS>BOND
     1    65    64    2
     2    64    63    1
     3    16    15    2
     4    19    17    1
     5    12    11    2
     6    63    62    1
     7    63    66    1
     8    15    14    1
     9    15    21   am
    10    14    17    1
    11    14    13    1
    12    25    22    1
    13    66    67    1
    14    17    18    1
    15    11    13   am
    16    11    10    1
    17    18    20    1
    18    70    71    1
    19    21    22    1
    20    22    23    1
    21     9    10    1
    22    72    71    1
    23    72    73    2
    24    67    68    2
    25    67    69   am
    26    71    74    1
    27    32    26    1
    28    32    31    1
    29    23    26   am
    30    23    24    2
    31    26    27    1
    32    31    30    1
    33    74    75    1
    34     4     3    2
    35    78    79    1
    36    82    79    1
    37    82    83    1
    38    29    28    2
    39     3     2    1
    40    27    30    1
    41    27    28    1
    42     1     2    1
    43    75    76    2
    44    75    77   am
    45    79    80    1
    46    28    33   am
    47     2     5    1
    48    53    52    1
    49     5     6    1
    50    80    84   am
    51    80    81    2
    52    33    34    1
    53     6     8    1
    54     6     7    1
    55    52    51   ar
    56    52    50   ar
    57    84    85    1
    58    34    35    1
    59    51    49   ar
    60    50    48   ar
    61    94    95    1
    62    94    91    1
    63    35    36    2
    64    90    91    1
    65    90    86   am
    66    89    88    1
    67    85    88    1
    68    85    86    1
    69    49    47   ar
    70    91    92    1
    71    48    47   ar
    72    93    92    2
    73    86    87    2
    74    41    38    1
    75    47    46    1
    76    39    40    2
    77    39    38    1
    78    61    59   am
    79    38    37    1
    80    42    43    1
    81    60    59    2
    82    59    58    1
    83    46    43    1
    84    43    44    1
    85    58    55    1
    86    44    45    2
    87    55    56    1
    88    55    54    1
    89    56    57    2
