@<TRIPOS>MOLECULE
tmp/4jgdA03.pdb
 188 179 0 0 0
SMALL
GASTEIGER

@<TRIPOS>ATOM
      1  N         -5.4000   23.9890   -7.4040 N.3     6  TYR6       -0.1241
      2  CA        -5.2430   25.3780   -6.9730 C.3     6  TYR6        0.1605
      3  C         -3.9690   26.0050   -7.5380 C.2     6  TYR6        0.2264
      4  O         -4.0100   27.1040   -8.0860 O.2     6  TYR6       -0.2867
      5  CB        -5.2510   25.4780   -5.4440 C.3     6  TYR6        0.0534
      6  CG        -6.6300   25.5500   -4.8190 C.ar    6  TYR6       -0.0201
      7  CD1       -7.4540   24.4180   -4.7550 C.ar    6  TYR6       -0.0009
      8  CD2       -7.1060   26.7460   -4.2720 C.ar    6  TYR6       -0.0009
      9  CE1       -8.7120   24.4800   -4.1720 C.ar    6  TYR6        0.0417
     10  CE2       -8.3610   26.8170   -3.6860 C.ar    6  TYR6        0.0417
     11  CZ        -9.1570   25.6830   -3.6390 C.ar    6  TYR6        0.1957
     12  OH       -10.4010   25.7480   -3.0650 O.3     6  TYR6       -0.2866
     13  N         -5.7750   29.3160   -8.8990 N.3    11  MET11      -0.1245
     14  CA        -5.0360   30.5150   -8.4720 C.3    11  MET11       0.1570
     15  C         -4.5320   31.3870   -9.6350 C.2    11  MET11       0.2261
     16  O         -4.7060   32.6100   -9.5850 O.2    11  MET11      -0.2867
     17  CB        -3.9070   30.1860   -7.4780 C.3    11  MET11       0.0387
     18  CG        -4.3710   29.6230   -6.1340 C.3    11  MET11       0.0595
     19  SD        -5.6030   30.5870   -5.2210 S.3    11  MET11      -0.1393
     20  CE        -4.7240   32.1330   -4.9830 C.3    11  MET11       0.0692
     21  N         -7.6280   33.3500  -10.8330 N.3    14  LEU14      -0.1231
     22  CA        -7.8920   34.4960   -9.9650 C.3    14  LEU14       0.1693
     23  C         -6.8720   35.6250  -10.1830 C.2    14  LEU14       0.2591
     24  O         -7.2450   36.8030  -10.2150 O.2    14  LEU14      -0.2718
     25  CB        -7.9260   34.0570   -8.4960 C.3    14  LEU14       0.0284
     26  CG        -7.7570   35.1380   -7.4230 C.3    14  LEU14       0.0019
     27  CD1       -8.8260   35.0150   -6.3450 C.3    14  LEU14       0.0001
     28  CD2       -6.3460   35.1130   -6.8390 C.3    14  LEU14       0.0001
     29  N         -5.5980   35.2500  -10.3270 N.am   15  GLN15      -0.1979
     30  CA        -4.5110   36.2030  -10.6010 C.3    15  GLN15       0.1601
     31  C         -4.7290   36.9610  -11.9080 C.2    15  GLN15       0.2287
     32  O         -4.5380   38.1750  -11.9670 O.2    15  GLN15      -0.2864
     33  CB        -3.1440   35.5020  -10.6420 C.3    15  GLN15       0.0394
     34  CG        -2.6230   35.0430   -9.2880 C.3    15  GLN15       0.0908
     35  CD        -1.1080   35.1480   -9.1510 C.2    15  GLN15       0.2608
     36  OE1       -0.3600   35.0930  -10.1380 O.2    15  GLN15      -0.2717
     37  NE2       -0.6490   35.3060   -7.9110 N.am   15  GLN15      -0.0878
     38  N         -4.1130   42.7170   -7.3860 N.3    20  PRO20      -0.2116
     39  CA        -3.7400   42.0610   -6.1160 C.3    20  PRO20       0.1372
     40  C         -4.5370   42.5310   -4.8880 C.2    20  PRO20       0.2244
     41  O         -4.9050   41.7060   -4.0590 O.2    20  PRO20      -0.2868
     42  CB        -2.2490   42.3890   -5.9670 C.3    20  PRO20       0.0268
     43  CG        -1.7870   42.7050   -7.3530 C.3    20  PRO20       0.0207
     44  CD        -2.9520   43.3570   -8.0330 C.3    20  PRO20       0.0892
     45  N         -8.0150   40.9480   -5.1270 N.3    23  ALA23      -0.1231
     46  CA        -7.8520   39.5450   -4.7920 C.3    23  ALA23       0.1694
     47  C         -7.7500   39.3580   -3.2640 C.2    23  ALA23       0.2592
     48  O         -8.3700   38.4540   -2.7030 O.2    23  ALA23      -0.2718
     49  CB        -6.6320   38.9580   -5.5010 C.3    23  ALA23       0.0304
     50  N         -6.9580   40.2110   -2.6090 N.am   24  HIS24      -0.1976
     51  CA        -6.7990   40.1770   -1.1470 C.3    24  HIS24       0.1656
     52  C         -8.1320   40.3470   -0.4380 C.2    24  HIS24       0.2291
     53  O         -8.5150   39.5300    0.4180 O.2    24  HIS24      -0.2864
     54  CB        -5.7870   41.2560   -0.7310 C.3    24  HIS24       0.0771
     55  CG        -5.4630   41.2750    0.7400 C.ar   24  HIS24       0.0820
     56  ND1       -4.7060   42.2520    1.2990 N.ar   24  HIS24      -0.2267
     57  CD2       -5.8130   40.4010    1.7730 C.ar   24  HIS24       0.1154
     58  CE1       -4.5830   42.0100    2.6250 C.ar   24  HIS24       0.1986
     59  NE2       -5.2830   40.8860    2.9120 N.ar   24  HIS24      -0.2212
     60  N        -11.1160   39.8770   -1.6110 N.3    26  LEU26      -0.1231
     61  CA       -11.9910   38.7320   -1.8820 C.3    26  LEU26       0.1693
     62  C        -11.5970   37.5150   -1.0490 C.2    26  LEU26       0.2591
     63  O        -12.4570   36.7890   -0.5380 O.2    26  LEU26      -0.2718
     64  CB       -11.9660   38.3770   -3.3750 C.3    26  LEU26       0.0284
     65  CG       -12.9660   37.3410   -3.9090 C.3    26  LEU26       0.0019
     66  CD1      -14.3990   37.8360   -3.7370 C.3    26  LEU26       0.0001
     67  CD2      -12.6830   37.0510   -5.3790 C.3    26  LEU26       0.0001
     68  N        -10.2870   37.3000   -0.9240 N.am   27  ALA27      -0.1980
     69  CA        -9.7420   36.2200   -0.0950 C.3    27  ALA27       0.1597
     70  C        -10.1780   36.3550    1.3660 C.2    27  ALA27       0.2287
     71  O        -10.5440   35.3750    1.9900 O.2    27  ALA27      -0.2864
     72  CB        -8.2190   36.1920   -0.1890 C.3    27  ALA27       0.0319
     73  N        -14.0670   35.5640    1.4450 N.3    30  PHE30      -0.1227
     74  CA       -14.2890   34.1240    1.3160 C.3    30  PHE30       0.1736
     75  C        -13.8970   33.3660    2.5760 C.2    30  PHE30       0.2596
     76  O        -14.6180   32.4640    3.0200 O.2    30  PHE30      -0.2718
     77  CB       -13.5090   33.5470    0.1300 C.3    30  PHE30       0.0547
     78  CG       -14.3160   33.4410   -1.1400 C.ar   30  PHE30      -0.0202
     79  CD1      -14.8470   34.5820   -1.7510 C.ar   30  PHE30      -0.0042
     80  CD2      -14.5370   32.1990   -1.7380 C.ar   30  PHE30      -0.0042
     81  CE1      -15.5900   34.4840   -2.9290 C.ar   30  PHE30      -0.0003
     82  CE2      -15.2780   32.0960   -2.9150 C.ar   30  PHE30      -0.0003
     83  CZ       -15.8030   33.2400   -3.5100 C.ar   30  PHE30      -0.0000
     84  N        -12.7420   33.7190    3.1320 N.am   31  THR31      -0.1953
     85  CA       -12.2310   33.0520    4.3240 C.3    31  THR31       0.1897
     86  C        -13.1510   33.3270    5.5110 C.2    31  THR31       0.2313
     87  O        -13.4820   32.4120    6.2590 O.2    31  THR31      -0.2863
     88  CB       -10.7980   33.5180    4.6430 C.3    31  THR31       0.1794
     89  OG1       -9.9530   33.2520    3.5140 O.3    31  THR31      -0.2208
     90  CG2      -10.2480   32.7970    5.8850 C.3    31  THR31       0.0378
     91  N        -14.4590   27.5820    2.1520 N.3    36  LEU36      -0.1245
     92  CA       -13.2330   26.8650    1.8760 C.3    36  LEU36       0.1561
     93  C        -13.5750   25.4630    2.3300 C.2    36  LEU36       0.2260
     94  O        -14.3380   25.3020    3.2920 O.2    36  LEU36      -0.2867
     95  CB       -12.0700   27.3630    2.7500 C.3    36  LEU36       0.0270
     96  CG       -11.9670   28.7890    3.3060 C.3    36  LEU36       0.0019
     97  CD1      -11.6130   28.7900    4.7930 C.3    36  LEU36       0.0001
     98  CD2      -10.9810   29.6100    2.4850 C.3    36  LEU36       0.0001
     99  N         -2.4210   39.6570    6.4200 N.3    66  PHE66      -0.1241
    100  CA        -3.5050   39.0460    5.6670 C.3    66  PHE66       0.1605
    101  C         -4.8510   39.4700    6.2510 C.2    66  PHE66       0.2264
    102  O         -5.7350   39.9430    5.5300 O.2    66  PHE66      -0.2867
    103  CB        -3.4150   37.5210    5.6100 C.3    66  PHE66       0.0534
    104  CG        -4.5890   36.8950    4.9000 C.ar   66  PHE66      -0.0203
    105  CD1       -4.6970   36.9600    3.5090 C.ar   66  PHE66      -0.0042
    106  CD2       -5.6400   36.3280    5.6250 C.ar   66  PHE66      -0.0042
    107  CE1       -5.8070   36.4200    2.8480 C.ar   66  PHE66      -0.0003
    108  CE2       -6.7490   35.7930    4.9770 C.ar   66  PHE66      -0.0003
    109  CZ        -6.8300   35.8360    3.5910 C.ar   66  PHE66      -0.0000
    110  N         -8.7640   26.7800    7.8930 N.3    79  MET79      -0.1245
    111  CA        -7.7930   26.5570    6.8230 C.3    79  MET79       0.1570
    112  C         -6.6390   25.6760    7.3110 C.2    79  MET79       0.2261
    113  O         -5.8680   25.1200    6.5100 O.2    79  MET79      -0.2867
    114  CB        -7.2630   27.9050    6.3460 C.3    79  MET79       0.0387
    115  CG        -6.7700   27.9140    4.9190 C.3    79  MET79       0.0595
    116  SD        -6.3580   29.5740    4.3660 S.3    79  MET79      -0.1393
    117  CE        -7.9300   30.3990    4.4910 C.3    79  MET79       0.0692
    118  N         -0.0920   47.2940   -3.8800 N.3   102  VAL102     -0.1245
    119  CA         0.3100   45.8730   -3.7980 C.3   102  VAL102      0.1561
    120  C          0.6090   45.3780   -5.2080 C.2   102  VAL102      0.2260
    121  O         -0.1410   45.6890   -6.1370 O.2   102  VAL102     -0.2867
    122  CB        -0.7950   44.9510   -3.2130 C.3   102  VAL102      0.0252
    123  CG1       -0.1890   43.6130   -2.7660 C.3   102  VAL102      0.0019
    124  CG2       -1.4960   45.6180   -2.0510 C.3   102  VAL102      0.0019
    125  N          2.2470   41.9780   -7.6300 N.3   104  ARG104     -0.1245
    126  CA         2.6870   40.5930   -7.6980 C.3   104  ARG104      0.1563
    127  C          3.9210   40.5310   -8.5640 C.2   104  ARG104      0.2260
    128  O          4.0040   41.2450   -9.5730 O.2   104  ARG104     -0.2867
    129  CB         1.6450   39.7140   -8.3840 C.3   104  ARG104      0.0307
    130  CG         0.3750   39.4270   -7.6290 C.3   104  ARG104      0.0489
    131  CD        -0.4930   38.6290   -8.6000 C.3   104  ARG104      0.2205
    132  NE        -1.8590   38.5010   -8.1440 N.pl3 104  ARG104     -0.0865
    133  CZ        -2.9020   39.1410   -8.6640 C.cat 104  ARG104      0.5346
    134  NH1       -2.7640   39.9730   -9.6860 N.pl3 104  ARG104      0.1354
    135  NH2       -4.0920   38.9340   -8.1460 N.pl3 104  ARG104      0.1354
    136  N          5.9530   39.2860   -3.6460 N.3   111  VAL111     -0.1245
    137  CA         4.9950   40.3570   -3.6350 C.3   111  VAL111      0.1561
    138  C          5.7460   41.5820   -3.1310 C.2   111  VAL111      0.2260
    139  O          6.6650   41.4590   -2.3170 O.2   111  VAL111     -0.2867
    140  CB         3.7490   40.0130   -2.7490 C.3   111  VAL111      0.0252
    141  CG1        2.9500   41.2610   -2.3860 C.3   111  VAL111      0.0019
    142  CG2        2.8310   39.0110   -3.4700 C.3   111  VAL111      0.0019
    143  N          1.1940   49.1160    1.6880 N.3   115  TYR115     -0.1241
    144  CA        -0.1120   49.4680    2.2550 C.3   115  TYR115      0.1605
    145  C         -0.0520   50.6960    3.1430 C.2   115  TYR115      0.2264
    146  O         -0.9250   51.5630    3.0480 O.2   115  TYR115     -0.2867
    147  CB        -0.7040   48.3190    3.0560 C.3   115  TYR115      0.0534
    148  CG        -1.5880   47.4020    2.2680 C.ar  115  TYR115     -0.0201
    149  CD1       -2.8420   47.8300    1.8000 C.ar  115  TYR115     -0.0009
    150  CD2       -1.2070   46.1030    2.0190 C.ar  115  TYR115     -0.0009
    151  CE1       -3.6730   46.9730    1.0820 C.ar  115  TYR115      0.0417
    152  CE2       -2.0380   45.2320    1.3230 C.ar  115  TYR115      0.0417
    153  CZ        -3.2630   45.6740    0.8520 C.ar  115  TYR115      0.1957
    154  OH        -4.0730   44.7980    0.1450 O.3   115  TYR115     -0.2866
    155  N          2.6120   34.0270    4.5170 N.3   324  TYR324     -0.1241
    156  CA         1.5530   34.8190    3.9300 C.3   324  TYR324      0.1605
    157  C          1.6540   34.7150    2.4120 C.2   324  TYR324      0.2264
    158  O          0.7830   34.1160    1.7740 O.2   324  TYR324     -0.2867
    159  CB         1.6090   36.2660    4.4500 C.3   324  TYR324      0.0534
    160  CG         0.5840   37.2360    3.8770 C.ar  324  TYR324     -0.0201
    161  CD1       -0.4210   36.8210    2.9870 C.ar  324  TYR324     -0.0009
    162  CD2        0.6040   38.5770    4.2650 C.ar  324  TYR324     -0.0009
    163  CE1       -1.3370   37.7340    2.4630 C.ar  324  TYR324      0.0417
    164  CE2       -0.3110   39.4850    3.7690 C.ar  324  TYR324      0.0417
    165  CZ        -1.2630   39.0680    2.8660 C.ar  324  TYR324      0.1957
    166  OH        -2.1500   40.0010    2.4080 O.3   324  TYR324     -0.2866
    167  N          0.4580   31.8150    0.1730 N.3   327  LEU327     -0.1231
    168  CA        -0.9980   31.6840    0.0660 C.3   327  LEU327      0.1693
    169  C         -1.5160   32.4000   -1.1730 C.2   327  LEU327      0.2592
    170  O         -2.4630   31.9530   -1.8320 O.2   327  LEU327     -0.2718
    171  CB        -1.6290   32.2490    1.3460 C.3   327  LEU327      0.0284
    172  CG        -2.9880   31.8510    1.8930 C.3   327  LEU327      0.0019
    173  CD1       -3.0340   30.3610    2.2090 C.3   327  LEU327      0.0001
    174  CD2       -3.2370   32.7060    3.1390 C.3   327  LEU327      0.0001
    175  N         -0.8500   33.4860   -1.5360 N.am  328  THR328     -0.1953
    176  CA        -1.2900   34.2890   -2.6610 C.3   328  THR328      0.1897
    177  C         -0.9470   33.6030   -3.9900 C.2   328  THR328      0.2313
    178  O         -1.5730   33.8770   -5.0120 O.2   328  THR328     -0.2863
    179  CB        -0.7770   35.7520   -2.5630 C.3   328  THR328      0.1794
    180  OG1        0.5910   35.8040   -2.9520 O.3   328  THR328     -0.2208
    181  CG2       -0.9100   36.2960   -1.1170 C.3   328  THR328      0.0378
    182  N         -5.0960   28.2390   -0.3210 N.3   332  PRO332     -0.2116
    183  CA        -5.3100   27.4860    0.9140 C.3   332  PRO332      0.1372
    184  C         -4.6390   26.1100    1.0070 C.2   332  PRO332      0.2244
    185  O         -4.2040   25.7650    2.0920 O.2   332  PRO332     -0.2868
    186  CB        -6.8350   27.3360    0.9770 C.3   332  PRO332      0.0268
    187  CG        -7.3270   28.5760    0.3090 C.3   332  PRO332      0.0207
    188  CD        -6.3440   28.8780   -0.7930 C.3   332  PRO332      0.0892
@<TRIPOS>BOND
     1    32    31    2
     2    31    30    1
     3    21    22    1
     4    33    30    1
     5    33    34    1
     6    30    29    1
     7    29    23   am
     8    24    23    2
     9    23    22    1
    10    36    35    2
    11    22    25    1
    12   134   133    1
    13    15    16    2
    14    15    14    1
    15   128   127    2
    16    34    35    1
    17    35    37   am
    18    13    14    1
    19   133   135    1
    20   133   132    2
    21   131   132    1
    22   131   130    1
    23   127   126    1
    24    25    26    1
    25    14    17    1
    26   129   126    1
    27   129   130    1
    28     4     3    2
    29    44    38    1
    30    44    43    1
    31   126   125    1
    32     3     2    1
    33    17    18    1
    34    26    28    1
    35    26    27    1
    36     1     2    1
    37    38    39    1
    38    43    42    1
    39     2     5    1
    40   121   120    2
    41    18    19    1
    42    39    42    1
    43    39    40    1
    44    49    46    1
    45     5     6    1
    46    67    65    1
    47    19    20    1
    48   120   119    1
    49    45    46    1
    50   178   177    2
    51    40    41    2
    52     6     7   ar
    53     6     8   ar
    54    46    47    1
    55     7     9   ar
    56     8    10   ar
    57     9    11   ar
    58   177   176    1
    59    65    66    1
    60    65    64    1
    61   118   119    1
    62   119   122    1
    63    10    11   ar
    64   136   137    1
    65    11    12    1
    66   137   138    1
    67   137   140    1
    68    83    81   ar
    69    83    82   ar
    70   142   140    1
    71    64    61    1
    72    47    48    2
    73    47    50   am
    74   122   123    1
    75   122   124    1
    76   138   139    2
    77   180   179    1
    78    81    79   ar
    79    82    80   ar
    80   140   141    1
    81   176   179    1
    82   176   175    1
    83    50    51    1
    84   179   181    1
    85    61    60    1
    86    61    62    1
    87   170   169    2
    88    79    78   ar
    89    80    78   ar
    90   175   169   am
    91   169   168    1
    92    51    54    1
    93    51    52    1
    94    78    77    1
    95    62    68   am
    96    62    63    2
    97    68    69    1
    98   188   182    1
    99   188   187    1
   100    54    55    1
   101    52    53    2
   102   182   183    1
   103    72    69    1
   104    69    70    1
   105   168   167    1
   106   168   171    1
   107    77    74    1
   108   154   153    1
   109   187   186    1
   110    55    56   ar
   111    55    57   ar
   112   153   151   ar
   113   153   152   ar
   114   183   186    1
   115   183   184    1
   116   184   185    2
   117   151   149   ar
   118    56    58   ar
   119    74    73    1
   120    74    75    1
   121   152   150   ar
   122   171   172    1
   123    70    71    2
   124   143   144    1
   125    57    59   ar
   126   158   157    2
   127   149   148   ar
   128    92    91    1
   129    92    93    1
   130    92    95    1
   131   172   173    1
   132   172   174    1
   133   150   148   ar
   134   144   147    1
   135   144   145    1
   136   148   147    1
   137    93    94    2
   138   166   165    1
   139   157   156    1
   140   163   165   ar
   141   163   161   ar
   142    98    96    1
   143    75    76    2
   144    75    84   am
   145    58    59   ar
   146    95    96    1
   147   107   105   ar
   148   107   109   ar
   149   165   164   ar
   150   161   160   ar
   151   146   145    2
   152    84    85    1
   153    96    97    1
   154   105   104   ar
   155    89    88    1
   156   109   108   ar
   157   164   162   ar
   158   160   162   ar
   159   160   159    1
   160   156   159    1
   161   156   155    1
   162    85    88    1
   163    85    86    1
   164   116   117    1
   165   116   115    1
   166    88    90    1
   167   104   103    1
   168   104   106   ar
   169   115   114    1
   170   108   106   ar
   171    86    87    2
   172   102   101    2
   173   103   100    1
   174   100   101    1
   175   100    99    1
   176   114   111    1
   177   113   112    2
   178   111   112    1
   179   111   110    1
