@<TRIPOS>MOLECULE
tmp/4jgxB00.pdb
 162 151 0 0 0
SMALL
GASTEIGER

@<TRIPOS>ATOM
      1  N         39.6530  -25.5800   35.2150 N.3    16  ILE16      -0.1245
      2  CA        39.8110  -25.5430   36.6590 C.3    16  ILE16       0.1561
      3  C         41.1210  -26.2150   37.0700 C.2    16  ILE16       0.2260
      4  O         41.8550  -25.7040   37.9330 O.2    16  ILE16      -0.2867
      5  CB        38.6120  -26.2100   37.3920 C.3    16  ILE16       0.0252
      6  CG1       37.3610  -25.2980   37.3720 C.3    16  ILE16       0.0019
      7  CG2       38.9850  -26.5580   38.8320 C.3    16  ILE16       0.0019
      8  CD1       36.0700  -26.0330   37.7350 C.3    16  ILE16       0.0001
      9  N         31.8100  -34.3120   41.7290 N.3    42  PHE42      -0.1241
     10  CA        30.7260  -33.7860   40.9090 C.3    42  PHE42       0.1605
     11  C         30.2140  -34.9440   40.0750 C.2    42  PHE42       0.2264
     12  O         30.9790  -35.5360   39.3050 O.2    42  PHE42      -0.2867
     13  CB        31.2230  -32.6820   39.9570 C.3    42  PHE42       0.0534
     14  CG        31.7110  -31.4420   40.6510 C.ar   42  PHE42      -0.0203
     15  CD1       30.8920  -30.3360   40.7620 C.ar   42  PHE42      -0.0042
     16  CD2       32.9980  -31.3810   41.1820 C.ar   42  PHE42      -0.0042
     17  CE1       31.3390  -29.1830   41.4060 C.ar   42  PHE42      -0.0003
     18  CE2       33.4520  -30.2420   41.8350 C.ar   42  PHE42      -0.0003
     19  CZ        32.6230  -29.1370   41.9390 C.ar   42  PHE42      -0.0000
     20  N         28.2100  -33.7430   44.7700 N.3    79  LEU79      -0.1245
     21  CA        27.2720  -32.8230   44.1540 C.3    79  LEU79       0.1561
     22  C         26.7490  -33.4730   42.8760 C.2    79  LEU79       0.2260
     23  O         27.5380  -33.8100   41.9770 O.2    79  LEU79      -0.2867
     24  CB        27.9530  -31.4820   43.8550 C.3    79  LEU79       0.0270
     25  CG        28.6050  -30.7390   45.0480 C.3    79  LEU79       0.0019
     26  CD1       29.4860  -29.5870   44.5910 C.3    79  LEU79       0.0001
     27  CD2       27.5700  -30.2040   46.0240 C.3    79  LEU79       0.0001
     28  N         25.0020  -27.5390   35.6300 N.3    86  PHE86      -0.1241
     29  CA        26.3970  -27.2780   36.0020 C.3    86  PHE86       0.1605
     30  C         26.9680  -26.1240   35.1600 C.2    86  PHE86       0.2264
     31  O         27.6060  -25.2140   35.6860 O.2    86  PHE86      -0.2867
     32  CB        27.2660  -28.5370   35.8990 C.3    86  PHE86       0.0534
     33  CG        28.7020  -28.3170   36.3080 C.ar   86  PHE86      -0.0203
     34  CD1       29.7270  -28.4280   35.3760 C.ar   86  PHE86      -0.0042
     35  CD2       29.0260  -27.9730   37.6250 C.ar   86  PHE86      -0.0042
     36  CE1       31.0570  -28.2220   35.7450 C.ar   86  PHE86      -0.0003
     37  CE2       30.3530  -27.7660   38.0090 C.ar   86  PHE86      -0.0003
     38  CZ        31.3690  -27.8830   37.0600 C.ar   86  PHE86      -0.0000
     39  N         25.5100  -22.9070   36.4170 N.3    89  LEU89      -0.1231
     40  CA        26.1120  -22.5960   37.7110 C.3    89  LEU89       0.1693
     41  C         27.5120  -21.9900   37.5800 C.2    89  LEU89       0.2592
     42  O         27.8550  -21.0500   38.3040 O.2    89  LEU89      -0.2718
     43  CB        26.1390  -23.8390   38.6040 C.3    89  LEU89       0.0284
     44  CG        26.8990  -23.8140   39.9340 C.3    89  LEU89       0.0019
     45  CD1       26.3160  -22.8250   40.9350 C.3    89  LEU89       0.0001
     46  CD2       26.9680  -25.2020   40.5540 C.3    89  LEU89       0.0001
     47  N         28.3060  -22.5090   36.6520 N.am   90  VAL90      -0.1966
     48  CA        29.6750  -22.0120   36.4780 C.3    90  VAL90       0.1727
     49  C         29.6310  -20.6160   35.8330 C.2    90  VAL90       0.2616
     50  O         30.3890  -19.7220   36.2150 O.2    90  VAL90      -0.2715
     51  CB        30.5790  -23.0150   35.7080 C.3    90  VAL90       0.0290
     52  CG1       31.9880  -22.4510   35.5310 C.3    90  VAL90       0.0023
     53  CG2       30.6510  -24.3370   36.4580 C.3    90  VAL90       0.0023
     54  N         28.7010  -20.4320   34.8970 N.am   91  GLU91      -0.1963
     55  CA        28.4540  -19.1280   34.2900 C.3    91  GLU91       0.1733
     56  C         27.9260  -18.0390   35.2390 C.2    91  GLU91       0.2616
     57  O         28.1220  -16.8530   34.9820 O.2    91  GLU91      -0.2715
     58  CB        27.4480  -19.2800   33.1670 C.3    91  GLU91       0.0429
     59  CG        27.9940  -19.9900   31.9560 C.3    91  GLU91       0.1163
     60  CD        27.0550  -19.8420   30.7880 C.2    91  GLU91       0.3649
     61  OE1       26.5150  -18.7260   30.6110 O.co2  91  GLU91      -0.2457
     62  OE2       26.8480  -20.8360   30.0620 O.co2  91  GLU91      -0.2457
     63  N         27.2430  -18.4440   36.3100 N.am   92  GLY92      -0.1955
     64  CA        26.5440  -17.5190   37.1940 C.3    92  GLY92       0.1869
     65  C         25.0980  -17.2650   36.7890 C.2    92  GLY92       0.2309
     66  O         24.4500  -16.3900   37.3360 O.2    92  GLY92      -0.2863
     67  N         22.7910  -19.6080   37.2300 N.3    94  ALA94      -0.1245
     68  CA        22.0240  -20.2190   38.3130 C.3    94  ALA94       0.1562
     69  C         22.7960  -20.1500   39.6150 C.2    94  ALA94       0.2260
     70  O         24.0090  -20.1770   39.6230 O.2    94  ALA94      -0.2867
     71  CB        21.6430  -21.6590   37.9860 C.3    94  ALA94       0.0290
     72  N         23.6410  -21.8630   43.2550 N.3    96  ALA96      -0.1231
     73  CA        23.7070  -23.2040   43.8270 C.3    96  ALA96       0.1694
     74  C         22.6640  -23.4390   44.9380 C.2    96  ALA96       0.2591
     75  O         22.0860  -24.5200   45.0410 O.2    96  ALA96      -0.2718
     76  CB        25.1140  -23.5030   44.3230 C.3    96  ALA96       0.0304
     77  N         22.4120  -22.4340   45.7590 N.am   97  GLN97      -0.1979
     78  CA        21.3710  -22.5610   46.7620 C.3    97  GLN97       0.1601
     79  C         19.9490  -22.6930   46.1950 C.2    97  GLN97       0.2287
     80  O         19.1590  -23.4680   46.7190 O.2    97  GLN97      -0.2864
     81  CB        21.4730  -21.4360   47.7650 C.3    97  GLN97       0.0394
     82  CG        22.8440  -21.4490   48.4180 C.3    97  GLN97       0.0908
     83  CD        23.1430  -20.1510   49.1070 C.2    97  GLN97       0.2608
     84  OE1       22.3630  -19.6890   49.9450 O.2    97  GLN97      -0.2717
     85  NE2       24.2650  -19.5390   48.7560 N.am   97  GLN97      -0.0878
     86  N         19.6450  -26.1690   44.7860 N.3   100  PHE100     -0.1241
     87  CA        19.4940  -27.1220   45.8600 C.3   100  PHE100      0.1605
     88  C         18.0520  -27.1190   46.3310 C.2   100  PHE100      0.2264
     89  O         17.4180  -28.1650   46.3700 O.2   100  PHE100     -0.2867
     90  CB        20.4540  -26.8050   47.0170 C.3   100  PHE100      0.0534
     91  CG        20.2990  -27.7260   48.1900 C.ar  100  PHE100     -0.0203
     92  CD1       20.9020  -28.9850   48.1890 C.ar  100  PHE100     -0.0042
     93  CD2       19.5270  -27.3530   49.2830 C.ar  100  PHE100     -0.0042
     94  CE1       20.7390  -29.8490   49.2710 C.ar  100  PHE100     -0.0003
     95  CE2       19.3690  -28.2110   50.3670 C.ar  100  PHE100     -0.0003
     96  CZ        19.9800  -29.4570   50.3620 C.ar  100  PHE100     -0.0000
     97  N         19.8590  -29.7550   42.3780 N.3   105  LEU105     -0.1245
     98  CA        21.1890  -30.0890   42.8610 C.3   105  LEU105      0.1561
     99  C         21.0570  -30.9280   44.1060 C.2   105  LEU105      0.2260
    100  O         20.4520  -30.4930   45.0770 O.2   105  LEU105     -0.2867
    101  CB        21.9680  -28.8100   43.2040 C.3   105  LEU105      0.0270
    102  CG        23.2670  -28.9420   44.0410 C.3   105  LEU105      0.0019
    103  CD1       24.3310  -29.8050   43.3670 C.3   105  LEU105      0.0001
    104  CD2       23.8380  -27.5610   44.3470 C.3   105  LEU105      0.0001
    105  N         22.9630  -32.9400   47.2230 N.3   107  VAL107     -0.1245
    106  CA        24.2130  -32.9480   47.9750 C.3   107  VAL107      0.1561
    107  C         24.2650  -34.1290   48.9290 C.2   107  VAL107      0.2260
    108  O         23.3190  -34.3510   49.6780 O.2   107  VAL107     -0.2867
    109  CB        24.3710  -31.6560   48.8050 C.3   107  VAL107      0.0252
    110  CG1       25.6880  -31.6530   49.5820 C.3   107  VAL107      0.0019
    111  CG2       24.2770  -30.4410   47.8990 C.3   107  VAL107      0.0019
    112  N         26.2890  -29.5980   53.8190 N.3   111  VAL111     -0.1245
    113  CA        25.7010  -28.5770   52.9410 C.3   111  VAL111      0.1561
    114  C         26.2880  -27.1770   53.1820 C.2   111  VAL111      0.2260
    115  O         26.4060  -26.3620   52.2500 O.2   111  VAL111     -0.2867
    116  CB        24.1440  -28.5560   53.0590 C.3   111  VAL111      0.0252
    117  CG1       23.6750  -27.8720   54.3490 C.3   111  VAL111      0.0019
    118  CG2       23.5250  -27.9010   51.8390 C.3   111  VAL111      0.0019
    119  N         29.5630  -27.3810   51.6190 N.3   114  ALA114     -0.1231
    120  CA        29.3010  -27.3970   50.1800 C.3   114  ALA114      0.1694
    121  C         29.1540  -25.9850   49.6140 C.2   114  ALA114      0.2591
    122  O         29.7630  -25.6480   48.5760 O.2   114  ALA114     -0.2718
    123  CB        28.0820  -28.2440   49.8620 C.3   114  ALA114      0.0304
    124  N         28.3760  -25.1510   50.3110 N.am  115  ALA115     -0.1980
    125  CA        28.1550  -23.7540   49.9060 C.3   115  ALA115      0.1597
    126  C         29.4740  -22.9680   49.8350 C.2   115  ALA115      0.2287
    127  O         29.7430  -22.2670   48.8550 O.2   115  ALA115     -0.2864
    128  CB        27.1560  -23.0860   50.8370 C.3   115  ALA115      0.0319
    129  N         32.4100  -23.9860   49.2240 N.3   117  ILE117     -0.1231
    130  CA        33.2950  -24.4750   48.1560 C.3   117  ILE117      0.1692
    131  C         33.4150  -23.5250   46.9580 C.2   117  ILE117      0.2591
    132  O         34.5310  -23.2660   46.4670 O.2   117  ILE117     -0.2718
    133  CB        32.8540  -25.8780   47.6650 C.3   117  ILE117      0.0266
    134  CG1       33.1780  -26.9440   48.7260 C.3   117  ILE117      0.0019
    135  CG2       33.4670  -26.2120   46.3000 C.3   117  ILE117      0.0020
    136  CD1       34.5480  -26.7960   49.3660 C.3   117  ILE117      0.0001
    137  N         32.2660  -23.0210   46.5000 N.am  118  GLU118     -0.1979
    138  CA        32.2040  -22.0720   45.3900 C.3   118  GLU118      0.1602
    139  C         33.2710  -20.9570   45.4960 C.2   118  GLU118      0.2287
    140  O         34.1410  -20.8080   44.6100 O.2   118  GLU118     -0.2864
    141  CB        30.7960  -21.4790   45.2970 C.3   118  GLU118      0.0415
    142  CG        30.7230  -20.2820   44.3710 C.3   118  GLU118      0.1163
    143  CD        29.3090  -19.8140   44.1050 C.2   118  GLU118      0.3649
    144  OE1       28.3410  -20.5020   44.5200 O.co2 118  GLU118     -0.2457
    145  OE2       29.1770  -18.7500   43.4640 O.co2 118  GLU118     -0.2457
    146  N         36.9270  -22.3620   45.8590 N.3   121  LEU121     -0.1231
    147  CA        37.4080  -22.8070   44.5550 C.3   121  LEU121      0.1693
    148  C         37.8150  -21.6170   43.6880 C.2   121  LEU121      0.2591
    149  O         38.9640  -21.5490   43.2180 O.2   121  LEU121     -0.2718
    150  CB        36.3640  -23.6660   43.8380 C.3   121  LEU121      0.0284
    151  CG        36.7990  -24.2440   42.4770 C.3   121  LEU121      0.0019
    152  CD1       38.1460  -24.9580   42.5320 C.3   121  LEU121      0.0001
    153  CD2       35.7130  -25.1380   41.8810 C.3   121  LEU121      0.0001
    154  N         36.8740  -20.6840   43.5070 N.am  122  LYS122     -0.1980
    155  CA        37.1320  -19.4190   42.8220 C.3   122  LYS122      0.1596
    156  C         38.5080  -18.8320   43.1300 C.2   122  LYS122      0.2287
    157  O         39.2480  -18.4850   42.2100 O.2   122  LYS122     -0.2864
    158  CB        36.0310  -18.4020   43.1280 C.3   122  LYS122      0.0298
    159  CG        34.9090  -18.3910   42.1060 C.3   122  LYS122      0.0038
    160  CD        33.9010  -17.2940   42.4170 C.3   122  LYS122      0.0206
    161  CE        32.9920  -17.0150   41.2310 C.3   122  LYS122      0.1093
    162  NZ        31.6440  -16.5750   41.6890 N.3   122  LYS122     -0.1314
@<TRIPOS>BOND
     1    62    60   ar
     2    61    60   ar
     3    60    59    1
     4    59    58    1
     5    58    55    1
     6    55    54    1
     7    55    56    1
     8    54    49   am
     9    57    56    2
    10    30    31    2
    11    30    29    1
    12     1     2    1
    13    56    63   am
    14    34    36   ar
    15    34    33   ar
    16    52    51    1
    17    28    29    1
    18    51    53    1
    19    51    48    1
    20    36    38   ar
    21    49    50    2
    22    49    48    1
    23    32    29    1
    24    32    33    1
    25    33    35   ar
    26    63    64    1
    27    39    40    1
    28    48    47    1
    29    47    41   am
    30     2     3    1
    31     2     5    1
    32    65    64    1
    33    65    66    2
    34    38    37   ar
    35     3     4    2
    36    67    68    1
    37     6     5    1
    38     6     8    1
    39     5     7    1
    40    41    40    1
    41    41    42    2
    42    35    37   ar
    43    40    43    1
    44    71    68    1
    45    68    69    1
    46    43    44    1
    47    12    11    2
    48    69    70    2
    49    44    46    1
    50    44    45    1
    51    13    14    1
    52    13    10    1
    53    11    10    1
    54    14    15   ar
    55    14    16   ar
    56    15    17   ar
    57    10     9    1
    58    16    18   ar
    59   161   162    1
    60   161   160    1
    61    17    19   ar
    62    18    19   ar
    63   153   151    1
    64    23    22    2
    65   159   160    1
    66   159   158    1
    67   157   156    2
    68    97    98    1
    69   151   152    1
    70   151   150    1
    71   155   158    1
    72   155   156    1
    73   155   154    1
    74    98   101    1
    75    98    99    1
    76    22    21    1
    77   101   102    1
    78   149   148    2
    79    72    73    1
    80   103   102    1
    81   145   143   ar
    82   154   148   am
    83   148   147    1
    84    73    76    1
    85    73    74    1
    86   150   147    1
    87    24    21    1
    88    24    25    1
    89   102   104    1
    90   143   142    1
    91   143   144   ar
    92    99   100    2
    93    21    20    1
    94   142   141    1
    95   147   146    1
    96    26    25    1
    97   140   139    2
    98    86    87    1
    99    74    75    2
   100    74    77   am
   101    25    27    1
   102   141   138    1
   103   138   139    1
   104   138   137    1
   105    77    78    1
   106    87    88    1
   107    87    90    1
   108    79    80    2
   109    79    78    1
   110   135   133    1
   111    88    89    2
   112   132   131    2
   113   137   131   am
   114    78    81    1
   115   131   130    1
   116    90    91    1
   117   105   106    1
   118   133   130    1
   119   133   134    1
   120    81    82    1
   121   111   109    1
   122   106   109    1
   123   106   107    1
   124   130   129    1
   125    92    91   ar
   126    92    94   ar
   127    91    93   ar
   128    82    83    1
   129   122   121    2
   130   134   136    1
   131    85    83   am
   132   109   110    1
   133   127   126    2
   134   107   108    2
   135    83    84    2
   136    94    96   ar
   137    93    95   ar
   138   121   120    1
   139   121   124   am
   140   126   125    1
   141   123   120    1
   142   125   124    1
   143   125   128    1
   144   120   119    1
   145    96    95   ar
   146   118   116    1
   147   115   114    2
   148   113   116    1
   149   113   114    1
   150   113   112    1
   151   116   117    1
