@<TRIPOS>MOLECULE
tmp/4jh0B00.pdb
 194 191 0 0 0
SMALL
GASTEIGER

@<TRIPOS>ATOM
      1  N         56.1150   68.1760   72.3640 N.3    87  ARG87      -0.1231
      2  CA        57.0060   67.7080   73.4170 C.3    87  ARG87       0.1694
      3  C         56.4290   67.9270   74.7980 C.2    87  ARG87       0.2592
      4  O         56.6770   67.1280   75.6950 O.2    87  ARG87      -0.2718
      5  CB        58.3760   68.3900   73.3390 C.3    87  ARG87       0.0321
      6  CG        59.4400   67.7200   74.2250 C.3    87  ARG87       0.0489
      7  CD        60.7580   68.4960   74.2330 C.3    87  ARG87       0.2205
      8  NE        61.2700   68.7310   72.8820 N.pl3  87  ARG87      -0.0865
      9  CZ        62.2290   68.0130   72.3000 C.cat  87  ARG87       0.5346
     10  NH1       62.7930   67.0030   72.9500 N.pl3  87  ARG87       0.1354
     11  NH2       62.6260   68.3050   71.0640 N.pl3  87  ARG87       0.1354
     12  N         55.6650   69.0040   74.9840 N.am   88  HIS88      -0.1976
     13  CA        55.0840   69.2890   76.3000 C.3    88  HIS88       0.1656
     14  C         53.5790   69.2680   76.2820 C.2    88  HIS88       0.2291
     15  O         52.9470   68.7810   77.2150 O.2    88  HIS88      -0.2864
     16  CB        55.5470   70.6530   76.8100 C.3    88  HIS88       0.0771
     17  CG        57.0330   70.8030   76.8420 C.ar   88  HIS88       0.0820
     18  ND1       57.8320   70.0910   77.7120 N.ar   88  HIS88      -0.2267
     19  CD2       57.8680   71.5720   76.1020 C.ar   88  HIS88       0.1154
     20  CE1       59.0970   70.4190   77.5080 C.ar   88  HIS88       0.1986
     21  NE2       59.1450   71.3150   76.5370 N.ar   88  HIS88      -0.2212
     22  N         58.2050   74.7350   72.2570 N.3   167  GLU167     -0.1231
     23  CA        59.4580   74.0160   72.0200 C.3   167  GLU167      0.1699
     24  C         60.6990   74.8390   72.3720 C.2   167  GLU167      0.2592
     25  O         61.5720   74.3700   73.0990 O.2   167  GLU167     -0.2718
     26  CB        59.5560   73.5700   70.5520 C.3   167  GLU167      0.0402
     27  CG        60.9230   73.0530   70.1480 C.3   167  GLU167      0.1161
     28  CD        61.2130   71.6800   70.7220 C.2   167  GLU167      0.3649
     29  OE1       60.4460   71.2130   71.5890 O.co2 167  GLU167     -0.2457
     30  OE2       62.2100   71.0610   70.3090 O.co2 167  GLU167     -0.2457
     31  N         60.7890   76.0590   71.8550 N.am  168  GLU168     -0.1979
     32  CA        62.0540   76.7700   71.9150 C.3   168  GLU168      0.1602
     33  C         62.1610   77.7680   73.0600 C.2   168  GLU168      0.2287
     34  O         63.2700   78.1230   73.4580 O.2   168  GLU168     -0.2864
     35  CB        62.3290   77.4790   70.5830 C.3   168  GLU168      0.0415
     36  CG        62.4020   76.5460   69.3650 C.3   168  GLU168      0.1163
     37  CD        63.5230   75.5330   69.4700 C.2   168  GLU168      0.3649
     38  OE1       64.2670   75.5630   70.4700 O.co2 168  GLU168     -0.2457
     39  OE2       63.6710   74.7060   68.5480 O.co2 168  GLU168     -0.2457
     40  N         59.6020   75.8380   77.1130 N.3   171  SER171     -0.1217
     41  CA        59.7270   74.3990   77.3960 C.3   171  SER171      0.1889
     42  C         58.5320   73.9080   78.2000 C.2   171  SER171      0.2288
     43  O         58.6780   73.2060   79.2060 O.2   171  SER171     -0.2866
     44  CB        60.9980   74.1120   78.1910 C.3   171  SER171      0.2089
     45  OG        62.1100   74.7330   77.5910 O.3   171  SER171     -0.2183
     46  N         68.7830   81.2700   76.3290 N.3   320  ARG320     -0.1245
     47  CA        67.8850   82.3910   76.5550 C.3   320  ARG320      0.1563
     48  C         68.3500   83.0770   77.8490 C.2   320  ARG320      0.2260
     49  O         69.0810   82.4680   78.6550 O.2   320  ARG320     -0.2867
     50  CB        66.4510   81.8810   76.7130 C.3   320  ARG320      0.0307
     51  CG        66.2550   80.9980   77.9350 C.3   320  ARG320      0.0489
     52  CD        64.8740   80.3570   77.9420 C.3   320  ARG320      0.2205
     53  NE        64.6950   79.4970   76.7770 N.pl3 320  ARG320     -0.0865
     54  CZ        64.8110   78.1740   76.8030 C.cat 320  ARG320      0.5346
     55  NH1       64.6370   77.4730   75.6920 N.pl3 320  ARG320      0.1354
     56  NH2       65.0980   77.5530   77.9390 N.pl3 320  ARG320      0.1354
     57  N         76.7890   65.0980   68.9640 N.3   509  TYR509     -0.1241
     58  CA        75.6660   66.0070   69.0000 C.3   509  TYR509      0.1605
     59  C         76.1400   67.3910   68.5440 C.2   509  TYR509      0.2264
     60  O         75.8230   67.8320   67.4500 O.2   509  TYR509     -0.2867
     61  CB        75.0770   66.0890   70.4170 C.3   509  TYR509      0.0534
     62  CG        73.8200   66.9120   70.4130 C.ar  509  TYR509     -0.0201
     63  CD1       72.6760   66.4460   69.7720 C.ar  509  TYR509     -0.0009
     64  CD2       73.8150   68.2130   70.9000 C.ar  509  TYR509     -0.0009
     65  CE1       71.5780   67.2580   69.6040 C.ar  509  TYR509      0.0417
     66  CE2       72.7240   69.0260   70.7360 C.ar  509  TYR509      0.0417
     67  CZ        71.6180   68.5460   70.0850 C.ar  509  TYR509      0.1957
     68  OH        70.5510   69.3660   69.8760 O.3   509  TYR509     -0.2866
     69  N         76.1670   72.2930   73.8760 N.3   514  SER514     -0.1202
     70  CA        75.9060   70.8880   74.1590 C.3   514  SER514      0.2020
     71  C         77.0300   70.3320   75.0190 C.2   514  SER514      0.2619
     72  O         78.0140   71.0170   75.2610 O.2   514  SER514     -0.2717
     73  CB        75.8390   70.0990   72.8530 C.3   514  SER514      0.2103
     74  OG        77.0180   70.2900   72.0950 O.3   514  SER514     -0.2182
     75  N         76.8850   69.0890   75.4640 N.am  515  GLN515     -0.1965
     76  CA        77.9440   68.4180   76.2050 C.3   515  GLN515      0.1733
     77  C         77.7760   66.9030   76.1860 C.2   515  GLN515      0.2616
     78  O         76.8030   66.3580   76.7080 O.2   515  GLN515     -0.2715
     79  CB        77.9860   68.9070   77.6570 C.3   515  GLN515      0.0408
     80  CG        78.9810   68.1490   78.5200 C.3   515  GLN515      0.0908
     81  CD        79.2920   68.8410   79.8370 C.2   515  GLN515      0.2608
     82  OE1       78.5540   68.7060   80.8200 O.2   515  GLN515     -0.2717
     83  NE2       80.4020   69.5780   79.8660 N.am  515  GLN515     -0.0878
     84  N         78.7480   66.2260   75.5910 N.am  516  LYS516     -0.1977
     85  CA        78.6800   64.7880   75.4150 C.3   516  LYS516      0.1596
     86  C         79.7920   64.0890   76.1840 C.2   516  LYS516      0.2287
     87  O         79.8510   62.8650   76.2470 O.2   516  LYS516     -0.2864
     88  CB        78.7730   64.4560   73.9320 C.3   516  LYS516      0.0298
     89  CG        77.6790   65.1030   73.1070 C.3   516  LYS516      0.0038
     90  CD        76.3690   64.4050   73.3700 C.3   516  LYS516      0.0206
     91  CE        76.5240   62.8990   73.2510 C.3   516  LYS516      0.1093
     92  NZ        75.2060   62.2170   73.2780 N.3   516  LYS516     -0.1314
     93  N         71.7500   61.9180   66.1350 N.3   591  TRP591     -0.1227
     94  CA        70.3420   62.2440   65.9560 C.3   591  TRP591      0.1737
     95  C         70.2030   63.7780   65.8850 C.2   591  TRP591      0.2596
     96  O         70.9800   64.5080   66.4920 O.2   591  TRP591     -0.2718
     97  CB        69.5620   61.6760   67.1550 C.3   591  TRP591      0.0564
     98  CG        68.1200   61.2810   66.9120 C.ar  591  TRP591      0.0003
     99  CD1       67.0810   62.1100   66.6160 C.ar  591  TRP591      0.0946
    100  CD2       67.5450   59.9830   67.1170 C.ar  591  TRP591      0.0152
    101  NE1       65.8930   61.4150   66.6430 N.ar  591  TRP591     -0.2442
    102  CE2       66.1550   60.1060   66.9460 C.ar  591  TRP591      0.0810
    103  CE3       68.0750   58.7290   67.4360 C.ar  591  TRP591      0.0012
    104  CZ2       65.2830   59.0250   67.0840 C.ar  591  TRP591      0.0191
    105  CZ3       67.2050   57.6470   67.5740 C.ar  591  TRP591      0.0001
    106  CH2       65.8250   57.8050   67.3980 C.ar  591  TRP591      0.0015
    107  N         69.2280   64.2650   65.1340 N.am  592  SER592     -0.1938
    108  CA        68.8580   65.6640   65.2400 C.3   592  SER592      0.2055
    109  C         70.0520   66.5290   64.8690 C.2   592  SER592      0.2643
    110  O         70.6270   66.3330   63.8060 O.2   592  SER592     -0.2714
    111  CB        68.4080   65.9580   66.6670 C.3   592  SER592      0.2130
    112  OG        68.1490   67.3270   66.8190 O.3   592  SER592     -0.2179
    113  N         70.4420   67.4760   65.7200 N.am  593  TYR593     -0.1973
    114  CA        71.6080   68.2910   65.3890 C.3   593  TYR593      0.1639
    115  C         72.7680   67.3510   65.1440 C.2   593  TYR593      0.2290
    116  O         73.5860   67.5690   64.2510 O.2   593  TYR593     -0.2864
    117  CB        71.9820   69.2430   66.5240 C.3   593  TYR593      0.0560
    118  CG        72.9320   70.3500   66.0900 C.ar  593  TYR593     -0.0198
    119  CD1       74.2830   70.0960   65.8830 C.ar  593  TYR593     -0.0009
    120  CD2       72.4680   71.6390   65.8520 C.ar  593  TYR593     -0.0009
    121  CE1       75.1470   71.0900   65.4440 C.ar  593  TYR593      0.0417
    122  CE2       73.3190   72.6370   65.4160 C.ar  593  TYR593      0.0417
    123  CZ        74.6580   72.3540   65.2100 C.ar  593  TYR593      0.1957
    124  OH        75.5010   73.3280   64.7380 O.3   593  TYR593     -0.2866
    125  N         68.7700   67.8390   60.5390 N.3   618  VAL618     -0.1245
    126  CA        68.6080   69.0880   59.8110 C.3   618  VAL618      0.1561
    127  C         69.5700   69.0780   58.6180 C.2   618  VAL618      0.2260
    128  O         70.7090   68.6310   58.7440 O.2   618  VAL618     -0.2867
    129  CB        68.9420   70.2870   60.7140 C.3   618  VAL618      0.0252
    130  CG1       69.2560   71.5160   59.8670 C.3   618  VAL618      0.0019
    131  CG2       67.7720   70.5800   61.6290 C.3   618  VAL618      0.0019
    132  N         69.3200   75.1770   57.1060 N.3   621  TRP621     -0.1241
    133  CA        68.8490   75.8830   58.2960 C.3   621  TRP621      0.1605
    134  C         67.6210   76.7440   58.0560 C.2   621  TRP621      0.2264
    135  O         66.9120   77.1160   58.9910 O.2   621  TRP621     -0.2867
    136  CB        69.9790   76.7150   58.9020 C.3   621  TRP621      0.0550
    137  CG        70.9920   75.8460   59.5690 C.ar  621  TRP621      0.0003
    138  CD1       72.2550   75.5610   59.1240 C.ar  621  TRP621      0.0946
    139  CD2       70.7930   75.0610   60.7470 C.ar  621  TRP621      0.0152
    140  NE1       72.8470   74.6370   59.9500 N.ar  621  TRP621     -0.2442
    141  CE2       71.9720   74.3140   60.9550 C.ar  621  TRP621      0.0810
    142  CE3       69.7290   74.9120   61.6440 C.ar  621  TRP621      0.0012
    143  CZ2       72.1180   73.4310   62.0230 C.ar  621  TRP621      0.0191
    144  CZ3       69.8710   74.0350   62.7000 C.ar  621  TRP621      0.0001
    145  CH2       71.0600   73.3030   62.8830 C.ar  621  TRP621      0.0015
    146  N         64.6300   74.6440   59.5740 N.3   624  TYR624     -0.1241
    147  CA        64.3440   74.6730   61.0200 C.3   624  TYR624      0.1605
    148  C         63.6640   75.9490   61.5200 C.2   624  TYR624      0.2264
    149  O         63.4820   76.9130   60.7690 O.2   624  TYR624     -0.2867
    150  CB        65.6160   74.4460   61.8390 C.3   624  TYR624      0.0534
    151  CG        65.3320   73.7460   63.1490 C.ar  624  TYR624     -0.0201
    152  CD1       64.5180   72.6190   63.1830 C.ar  624  TYR624     -0.0009
    153  CD2       65.8320   74.2300   64.3480 C.ar  624  TYR624     -0.0009
    154  CE1       64.2060   72.0030   64.3630 C.ar  624  TYR624      0.0417
    155  CE2       65.5280   73.6190   65.5390 C.ar  624  TYR624      0.0417
    156  CZ        64.7110   72.5040   65.5450 C.ar  624  TYR624      0.1957
    157  OH        64.3880   71.8820   66.7330 O.3   624  TYR624     -0.2866
    158  N         65.2050   78.9970   67.3560 N.3   628  TYR628     -0.1241
    159  CA        66.4420   78.2780   67.5620 C.3   628  TYR628      0.1605
    160  C         67.4920   78.7200   66.5490 C.2   628  TYR628      0.2264
    161  O         68.6240   79.0430   66.9100 O.2   628  TYR628     -0.2867
    162  CB        66.2110   76.7750   67.4440 C.3   628  TYR628      0.0534
    163  CG        67.4620   75.9490   67.6650 C.ar  628  TYR628     -0.0201
    164  CD1       68.3170   75.6640   66.6110 C.ar  628  TYR628     -0.0009
    165  CD2       67.7930   75.4630   68.9250 C.ar  628  TYR628     -0.0009
    166  CE1       69.4780   74.9150   66.7950 C.ar  628  TYR628      0.0417
    167  CE2       68.9580   74.7080   69.1260 C.ar  628  TYR628      0.0417
    168  CZ        69.7970   74.4360   68.0490 C.ar  628  TYR628      0.1957
    169  OH        70.9330   73.6690   68.2020 O.3   628  TYR628     -0.2866
    170  N         58.8670   68.5030   63.9620 N.3   672  ASN672     -0.1225
    171  CA        59.9100   69.3250   64.5800 C.3   672  ASN672      0.1785
    172  C         61.0300   69.6150   63.5720 C.2   672  ASN672      0.2597
    173  O         61.1720   70.7400   63.0740 O.2   672  ASN672     -0.2718
    174  CB        60.4630   68.5750   65.8030 C.3   672  ASN672      0.1169
    175  CG        61.4050   69.4200   66.6490 C.2   672  ASN672      0.2627
    176  OD1       62.2450   70.1680   66.1250 O.2   672  ASN672     -0.2716
    177  ND2       61.2770   69.2950   67.9730 N.am  672  ASN672     -0.0877
    178  N         61.8220   68.5910   63.2750 N.am  673  VAL673     -0.1980
    179  CA        62.6860   68.6250   62.1020 C.3   673  VAL673      0.1595
    180  C         61.9400   67.9030   60.9690 C.2   673  VAL673      0.2287
    181  O         61.9470   66.6680   60.8800 O.2   673  VAL673     -0.2864
    182  CB        64.0280   67.9030   62.3680 C.3   673  VAL673      0.0276
    183  CG1       64.8950   67.9550   61.1130 C.3   673  VAL673      0.0022
    184  CG2       64.7430   68.5220   63.5530 C.3   673  VAL673      0.0022
    185  N         59.8150   63.1900   65.7360 N.3   702  HIS702     -0.1241
    186  CA        61.2240   63.3360   66.0530 C.3   702  HIS702      0.1621
    187  C         61.7650   62.2880   67.0240 C.2   702  HIS702      0.2264
    188  O         62.9190   61.8730   66.9110 O.2   702  HIS702     -0.2867
    189  CB        61.5010   64.7130   66.6280 C.3   702  HIS702      0.0745
    190  CG        62.9360   65.0990   66.5460 C.ar  702  HIS702      0.0817
    191  ND1       63.5640   65.3420   65.3440 N.ar  702  HIS702     -0.2268
    192  CD2       63.8690   65.2850   67.5100 C.ar  702  HIS702      0.1154
    193  CE1       64.8270   65.6670   65.5720 C.ar  702  HIS702      0.1986
    194  NE2       65.0360   65.6390   66.8780 N.ar  702  HIS702     -0.2212
@<TRIPOS>BOND
     1   132   133    1
     2   134   133    1
     3   134   135    2
     4   133   136    1
     5   127   128    2
     6   127   126    1
     7   136   137    1
     8   138   137   ar
     9   138   140   ar
    10   137   139   ar
    11   146   147    1
    12   126   125    1
    13   126   129    1
    14   130   129    1
    15   140   141   ar
    16   129   131    1
    17   139   141   ar
    18   139   142   ar
    19   149   148    2
    20   181   180    2
    21   141   143   ar
    22   180   179    1
    23   147   148    1
    24   147   150    1
    25   183   182    1
    26   142   144   ar
    27   150   151    1
    28   143   145   ar
    29   179   182    1
    30   179   178    1
    31   182   184    1
    32   144   145   ar
    33   173   172    2
    34   151   152   ar
    35   151   153   ar
    36   152   154   ar
    37   178   172   am
    38   172   171    1
    39   110   109    2
    40   170   171    1
    41   116   115    2
    42   153   155   ar
    43   154   156   ar
    44   171   174    1
    45   124   123    1
    46   109   108    1
    47   109   113   am
    48   107   108    1
    49   107    95   am
    50   115   114    1
    51   123   122   ar
    52   123   121   ar
    53   108   111    1
    54   191   193   ar
    55   191   190   ar
    56   114   113    1
    57   114   117    1
    58   122   120   ar
    59   121   119   ar
    60   155   156   ar
    61   156   157    1
    62   193   194   ar
    63   185   186    1
    64   174   175    1
    65   120   118   ar
    66   119   118   ar
    67    95    94    1
    68    95    96    2
    69    94    93    1
    70    94    97    1
    71   186   189    1
    72   186   187    1
    73   118   117    1
    74   176   175    2
    75   190   189    1
    76   190   192   ar
    77   160   161    2
    78   160   159    1
    79   164   166   ar
    80   164   163   ar
    81    99   101   ar
    82    99    98   ar
    83   101   102   ar
    84   175   177   am
    85   111   112    1
    86   166   168   ar
    87   194   192   ar
    88   188   187    2
    89    98   100   ar
    90    98    97    1
    91   102   104   ar
    92   102   100   ar
    93   104   106   ar
    94   100   103   ar
    95   158   159    1
    96   106   105   ar
    97   103   105   ar
    98   162   159    1
    99   162   163    1
   100    60    59    2
   101   163   165   ar
   102   168   169    1
   103   168   167   ar
   104    59    58    1
   105    39    37   ar
   106   165   167   ar
   107    57    58    1
   108    58    61    1
   109    36    37    1
   110    36    35    1
   111    37    38   ar
   112    65    63   ar
   113    65    67   ar
   114    63    62   ar
   115    68    67    1
   116    67    66   ar
   117    27    26    1
   118    27    28    1
   119    30    28   ar
   120    62    61    1
   121    62    64   ar
   122    26    23    1
   123    35    32    1
   124    28    29   ar
   125    66    64   ar
   126    11     9    1
   127    31    32    1
   128    31    24   am
   129    32    33    1
   130    23    22    1
   131    23    24    1
   132    74    73    1
   133     9     8    2
   134     9    10    1
   135     1     2    1
   136    24    25    2
   137    73    70    1
   138     8     7    1
   139    33    34    2
   140    89    90    1
   141    89    88    1
   142    91    92    1
   143    91    90    1
   144     5     2    1
   145     5     6    1
   146     2     3    1
   147    69    70    1
   148    88    85    1
   149    70    71    1
   150     6     7    1
   151     3    12   am
   152     3     4    2
   153    12    13    1
   154    71    72    2
   155    71    75   am
   156    85    84    1
   157    85    86    1
   158    75    76    1
   159    84    77   am
   160    55    54    1
   161    19    21   ar
   162    19    17   ar
   163    86    87    2
   164    77    76    1
   165    77    78    2
   166    76    79    1
   167    14    13    1
   168    14    15    2
   169    13    16    1
   170    46    47    1
   171    21    20   ar
   172    47    50    1
   173    47    48    1
   174    50    51    1
   175    53    54    2
   176    53    52    1
   177    54    56    1
   178    16    17    1
   179    17    18   ar
   180    40    41    1
   181    41    44    1
   182    41    42    1
   183    20    18   ar
   184    45    44    1
   185    79    80    1
   186    48    49    2
   187    51    52    1
   188    42    43    2
   189    80    81    1
   190    81    83   am
   191    81    82    2
