@<TRIPOS>MOLECULE
tmp/4jhdB00.pdb
 193 182 0 0 0
SMALL
GASTEIGER

@<TRIPOS>ATOM
      1  N         15.5780   19.1200   47.6230 N.3     7  ASP7       -0.1225
      2  CA        14.2770   18.5300   47.2720 C.3     7  ASP7        0.1805
      3  C         13.6770   17.7470   48.4440 C.2     7  ASP7        0.2598
      4  O         14.0380   16.5980   48.6830 O.2     7  ASP7       -0.2718
      5  CB        14.4140   17.6260   46.0290 C.3     7  ASP7        0.1424
      6  CG        13.1090   16.8960   45.6620 C.2     7  ASP7        0.3668
      7  OD1       12.0080   17.3560   46.0470 O.co2   7  ASP7       -0.2456
      8  OD2       13.1860   15.8570   44.9630 O.co2   7  ASP7       -0.2456
      9  N         12.7490   18.3650   49.1610 N.am    8  ASN8       -0.1960
     10  CA        12.1470   17.7330   50.3260 C.3     8  ASN8        0.1819
     11  C         11.0150   16.7990   49.9600 C.2     8  ASN8        0.2622
     12  O          9.8930   17.2480   49.7520 O.2     8  ASN8       -0.2715
     13  CB        11.6090   18.7970   51.2810 C.3     8  ASN8        0.1195
     14  CG        12.6490   19.8160   51.6520 C.2     8  ASN8        0.2630
     15  OD1       13.5220   19.5520   52.4750 O.2     8  ASN8       -0.2716
     16  ND2       12.5690   20.9910   51.0410 N.am    8  ASN8       -0.0877
     17  N         11.2930   15.5040   49.8950 N.am    9  GLY9       -0.1940
     18  CA        10.2370   14.5290   49.6400 C.3     9  GLY9        0.2014
     19  C          9.5090   14.0910   50.9000 C.2     9  GLY9        0.2640
     20  O         10.0300   14.2330   52.0000 O.2     9  GLY9       -0.2714
     21  N          8.3020   13.5560   50.7370 N.am   10  SER10      -0.1935
     22  CA         7.5490   12.9660   51.8420 C.3    10  SER10       0.2055
     23  C          8.2700   11.7530   52.4270 C.2    10  SER10       0.2644
     24  O          8.1400   11.4540   53.6150 O.2    10  SER10      -0.2714
     25  CB         6.1590   12.5430   51.3720 C.3    10  SER10       0.2130
     26  OG         5.4720   13.6210   50.7740 O.3    10  SER10      -0.2179
     27  N          9.0140   11.0470   51.5820 N.am   11  GLY11      -0.1939
     28  CA         9.8460    9.9440   52.0370 C.3    11  GLY11       0.2014
     29  C         11.2930   10.3730   52.1850 C.2    11  GLY11       0.2638
     30  O         11.8100   10.4650   53.2980 O.2    11  GLY11      -0.2714
     31  N         11.9360   10.6500   51.0540 N.am   12  MET12      -0.1976
     32  CA        13.3640   10.9350   51.0170 C.3    12  MET12       0.1605
     33  C         13.6960   12.3850   50.7010 C.2    12  MET12       0.2287
     34  O         13.1950   12.9710   49.7310 O.2    12  MET12      -0.2864
     35  CB        14.0590   10.0440   49.9900 C.3    12  MET12       0.0413
     36  CG        13.9890    8.5760   50.2990 C.3    12  MET12       0.0598
     37  SD        14.9980    8.1080   51.7040 S.3    12  MET12      -0.1393
     38  CE        16.6210    8.0960   50.9460 C.3    12  MET12       0.0692
     39  N         16.5240   15.0090   49.4520 N.3    14  LYS14      -0.1245
     40  CA        17.7270   15.0170   48.5940 C.3    14  LYS14       0.1561
     41  C         18.3910   16.3940   48.5650 C.2    14  LYS14       0.2260
     42  O         17.7360   17.3980   48.2760 O.2    14  LYS14      -0.2867
     43  CB        17.4230   14.5840   47.1440 C.3    14  LYS14       0.0271
     44  CG        16.6790   13.2590   46.9500 C.3    14  LYS14       0.0035
     45  CD        15.1780   13.4700   46.8500 C.3    14  LYS14       0.0206
     46  CE        14.4430   12.1470   46.6680 C.3    14  LYS14       0.1093
     47  NZ        13.0080   12.2610   47.0860 N.3    14  LYS14      -0.1314
     48  N          3.6010   15.3630   50.4230 N.3    70  GLY70      -0.1225
     49  CA         4.3510   16.4290   49.7630 C.3    70  GLY70       0.1811
     50  C          4.2240   17.7880   50.4220 C.2    70  GLY70       0.2280
     51  O          4.9110   18.7260   50.0300 O.2    70  GLY70      -0.2866
     52  N          8.1440   20.9240   42.1210 N.3   133  GLN133     -0.1245
     53  CA         8.9530   19.7440   41.8180 C.3   133  GLN133      0.1566
     54  C          8.7560   19.2760   40.3940 C.2   133  GLN133      0.2260
     55  O          9.7270   19.0440   39.6580 O.2   133  GLN133     -0.2867
     56  CB         8.5910   18.5970   42.7490 C.3   133  GLN133      0.0367
     57  CG         8.9480   18.8180   44.1910 C.3   133  GLN133      0.0905
     58  CD         8.0190   18.0870   45.1360 C.2   133  GLN133      0.2608
     59  OE1        7.2260   17.2310   44.7250 O.2   133  GLN133     -0.2717
     60  NE2        8.1090   18.4220   46.4160 N.am  133  GLN133     -0.0878
     61  N          4.1860   12.8460   38.1520 N.3   150  ASP150     -0.1239
     62  CA         5.1310   12.7280   39.2500 C.3   150  ASP150      0.1674
     63  C          4.5210   11.8080   40.2680 C.2   150  ASP150      0.2266
     64  O          3.4650   12.1050   40.8140 O.2   150  ASP150     -0.2867
     65  CB         5.3980   14.0910   39.8930 C.3   150  ASP150      0.1410
     66  CG         6.6340   14.0930   40.8080 C.2   150  ASP150      0.3668
     67  OD1        7.4960   13.1820   40.6960 O.co2 150  ASP150     -0.2456
     68  OD2        6.7490   15.0270   41.6370 O.co2 150  ASP150     -0.2456
     69  N          5.5180    9.6650   43.6970 N.3   152  GLY152     -0.1210
     70  CA         6.5380    9.4500   44.6930 C.3   152  GLY152      0.1956
     71  C          6.0910    8.4890   45.7560 C.2   152  GLY152      0.2612
     72  O          5.6600    7.3740   45.4710 O.2   152  GLY152     -0.2717
     73  N          6.1920    8.9430   46.9930 N.am  153  ASP153     -0.1959
     74  CA         5.8960    8.1230   48.1380 C.3   153  ASP153      0.1840
     75  C          4.3940    8.0940   48.3760 C.2   153  ASP153      0.2623
     76  O          3.7500    7.0560   48.2090 O.2   153  ASP153     -0.2715
     77  CB         6.6310    8.6850   49.3550 C.3   153  ASP153      0.1450
     78  CG         7.1460    7.6080   50.2770 C.2   153  ASP153      0.3671
     79  OD1        7.3610    6.4680   49.8080 O.co2 153  ASP153     -0.2456
     80  OD2        7.3440    7.9070   51.4750 O.co2 153  ASP153     -0.2456
     81  N          3.8370    9.2480   48.7350 N.am  154  GLY154     -0.1940
     82  CA         2.4640    9.3170   49.2130 C.3   154  GLY154      0.2014
     83  C          1.4410    9.7250   48.1800 C.2   154  GLY154      0.2638
     84  O          0.2510    9.4490   48.3380 O.2   154  GLY154     -0.2714
     85  N          1.9050   10.3700   47.1140 N.am  155  VAL155     -0.1977
     86  CA         1.0020   11.0310   46.1760 C.3   155  VAL155      0.1596
     87  C          1.4970   11.0030   44.7220 C.2   155  VAL155      0.2287
     88  O          2.7100   11.0080   44.4560 O.2   155  VAL155     -0.2864
     89  CB         0.7190   12.4920   46.6440 C.3   155  VAL155      0.0276
     90  CG1        2.0120   13.3390   46.6550 C.3   155  VAL155      0.0022
     91  CG2       -0.3730   13.1420   45.8110 C.3   155  VAL155      0.0022
     92  N          3.7750    5.0590   45.7330 N.3   178  GLY178     -0.1210
     93  CA         4.7110    4.0530   46.2570 C.3   178  GLY178      0.1956
     94  C          4.2560    3.1950   47.4250 C.2   178  GLY178      0.2611
     95  O          4.1180    1.9760   47.2850 O.2   178  GLY178     -0.2717
     96  N          4.0180    3.8240   48.5760 N.am  179  ARG179     -0.1979
     97  CA         3.6920    3.0750   49.7900 C.3   179  ARG179      0.1597
     98  C          2.3560    2.3370   49.7060 C.2   179  ARG179      0.2287
     99  O          2.1860    1.3100   50.3570 O.2   179  ARG179     -0.2864
    100  CB         3.7740    3.9520   51.0460 C.3   179  ARG179      0.0334
    101  CG         2.6620    4.9770   51.2040 C.3   179  ARG179      0.0492
    102  CD         2.6950    5.6050   52.5910 C.3   179  ARG179      0.2205
    103  NE         3.9150    6.3830   52.8240 N.pl3 179  ARG179     -0.0865
    104  CZ         3.9850    7.7120   52.7880 C.cat 179  ARG179      0.5346
    105  NH1        2.9010    8.4380   52.5370 N.pl3 179  ARG179      0.1354
    106  NH2        5.1440    8.3190   53.0130 N.pl3 179  ARG179      0.1354
    107  N          3.5220   -0.8060   47.9630 N.3   182  THR182     -0.1218
    108  CA         4.1680   -1.6430   48.9710 C.3   182  THR182      0.1862
    109  C          3.1120   -2.3720   49.8300 C.2   182  THR182      0.2287
    110  O          3.1400   -3.5970   49.9410 O.2   182  THR182     -0.2866
    111  CB         5.1620   -0.8400   49.8330 C.3   182  THR182      0.1770
    112  OG1        6.1800   -0.2820   48.9900 O.3   182  THR182     -0.2211
    113  CG2        5.8270   -1.7350   50.8590 C.3   182  THR182      0.0375
    114  N          9.3310   -3.9330   50.3730 N.3   206  ARG206     -0.1245
    115  CA         9.6410   -2.7510   49.6070 C.3   206  ARG206      0.1563
    116  C         10.8440   -3.0190   48.7210 C.2   206  ARG206      0.2260
    117  O         10.8950   -2.5550   47.5870 O.2   206  ARG206     -0.2867
    118  CB         9.9010   -1.5660   50.5320 C.3   206  ARG206      0.0307
    119  CG         9.8960   -0.2200   49.8180 C.3   206  ARG206      0.0489
    120  CD         9.9940    0.9340   50.8010 C.3   206  ARG206      0.2205
    121  NE        11.2080    0.8710   51.6150 N.pl3 206  ARG206     -0.0865
    122  CZ        12.4220    1.1910   51.1780 C.cat 206  ARG206      0.5346
    123  NH1       12.5950    1.5920   49.9250 N.pl3 206  ARG206      0.1354
    124  NH2       13.4650    1.1050   51.9940 N.pl3 206  ARG206      0.1354
    125  N          9.5930   -5.1960   45.6840 N.3   209  LYS209     -0.1231
    126  CA         8.9020   -4.2890   44.7680 C.3   209  LYS209      0.1693
    127  C          9.8630   -3.5670   43.8310 C.2   209  LYS209      0.2591
    128  O          9.6640   -3.5600   42.6190 O.2   209  LYS209     -0.2718
    129  CB         8.0870   -3.2650   45.5680 C.3   209  LYS209      0.0285
    130  CG         7.1970   -2.3440   44.7250 C.3   209  LYS209      0.0035
    131  CD         6.5750   -1.2240   45.5650 C.3   209  LYS209      0.0206
    132  CE         7.5930   -0.1450   45.9380 C.3   209  LYS209      0.1093
    133  NZ         7.0090    0.9370   46.7900 N.3   209  LYS209     -0.1314
    134  N         10.9100   -2.9800   44.3970 N.am  210  GLU210     -0.1979
    135  CA        11.8570   -2.1730   43.6320 C.3   210  GLU210      0.1602
    136  C         12.7900   -3.0040   42.7620 C.2   210  GLU210      0.2287
    137  O         13.4460   -2.4690   41.8780 O.2   210  GLU210     -0.2864
    138  CB        12.6740   -1.2850   44.5720 C.3   210  GLU210      0.0415
    139  CG        11.8020   -0.4120   45.4770 C.3   210  GLU210      0.1163
    140  CD        12.5970    0.4600   46.4330 C.2   210  GLU210      0.3649
    141  OE1       13.8250    0.6120   46.2290 O.co2 210  GLU210     -0.2457
    142  OE2       11.9840    0.9960   47.3870 O.co2 210  GLU210     -0.2457
    143  N          9.7580   10.5370   39.3790 N.3   297  GLY297     -0.1210
    144  CA         9.4840   10.0180   40.7160 C.3   297  GLY297      0.1956
    145  C          9.8220    8.5460   40.8290 C.2   297  GLY297      0.2612
    146  O          9.9070    7.8410   39.8180 O.2   297  GLY297     -0.2717
    147  N         10.0060    8.0810   42.0600 N.am  298  GLY298     -0.1942
    148  CA        10.4210    6.6990   42.3030 C.3   298  GLY298      0.2014
    149  C          9.4510    5.6460   41.7980 C.2   298  GLY298      0.2639
    150  O          9.8590    4.5740   41.3480 O.2   298  GLY298     -0.2714
    151  N          8.1640    5.9680   41.8590 N.am  299  THR299     -0.1950
    152  CA         7.1030    5.0480   41.4910 C.3   299  THR299      0.1897
    153  C          6.9400    4.9100   39.9740 C.2   299  THR299      0.2313
    154  O          6.1970    4.0580   39.4990 O.2   299  THR299     -0.2863
    155  CB         5.7900    5.4690   42.1710 C.3   299  THR299      0.1794
    156  OG1        5.9940    5.4890   43.5870 O.3   299  THR299     -0.2208
    157  CG2        4.6470    4.5100   41.8500 C.3   299  THR299      0.0378
    158  N          9.4980    4.0940   38.2130 N.3   301  MET301     -0.1230
    159  CA        10.7210    3.3730   37.8750 C.3   301  MET301      0.1702
    160  C         10.5050    1.9520   37.3540 C.2   301  MET301      0.2592
    161  O         11.4500    1.3280   36.8750 O.2   301  MET301     -0.2718
    162  CB        11.7030    3.3800   39.0470 C.3   301  MET301      0.0401
    163  CG        12.5070    4.6670   39.1870 C.3   301  MET301      0.0596
    164  SD        13.4380    5.1360   37.7090 S.3   301  MET301     -0.1393
    165  CE        14.5410    3.7280   37.4940 C.3   301  MET301      0.0692
    166  N          9.2730    1.4550   37.4290 N.am  302  TYR302     -0.1963
    167  CA         8.9480    0.1040   36.9680 C.3   302  TYR302      0.1756
    168  C          9.3210   -0.1350   35.5200 C.2   302  TYR302      0.2461
    169  O          9.0140    0.6900   34.6580 O.2   302  TYR302     -0.2730
    170  CB         7.4610   -0.1870   37.1630 C.3   302  TYR302      0.0574
    171  CG         7.0680   -0.1270   38.6030 C.ar  302  TYR302     -0.0198
    172  CD1        7.2920   -1.2050   39.4470 C.ar  302  TYR302     -0.0009
    173  CD2        6.5180    1.0280   39.1370 C.ar  302  TYR302     -0.0009
    174  CE1        6.9570   -1.1390   40.7890 C.ar  302  TYR302      0.0417
    175  CE2        6.1730    1.1040   40.4740 C.ar  302  TYR302      0.0417
    176  CZ         6.3920    0.0180   41.2920 C.ar  302  TYR302      0.1957
    177  OH         6.0490    0.0940   42.6170 O.3   302  TYR302     -0.2866
    178  N         10.0090   -1.2590   35.2430 N.am  303  PRO303     -0.2727
    179  CA        10.2170   -1.6510   33.8410 C.3   303  PRO303      0.1402
    180  C          8.8730   -1.8070   33.1360 C.2   303  PRO303      0.2269
    181  O          7.9160   -2.3050   33.7300 O.2   303  PRO303     -0.2865
    182  CB        10.9230   -3.0020   33.9600 C.3   303  PRO303      0.0296
    183  CG        11.5830   -2.9590   35.3090 C.3   303  PRO303      0.0237
    184  CD        10.6450   -2.2010   36.1820 C.3   303  PRO303      0.0939
    185  N         14.3020    8.9690   38.7100 N.3   332  LYS332     -0.1245
    186  CA        14.0870    8.9120   40.1510 C.3   332  LYS332      0.1561
    187  C         14.5510   10.2010   40.8040 C.2   332  LYS332      0.2260
    188  O         14.0310   10.5900   41.8460 O.2   332  LYS332     -0.2867
    189  CB        14.7970    7.7210   40.7960 C.3   332  LYS332      0.0271
    190  CG        14.2380    7.4360   42.1880 C.3   332  LYS332      0.0035
    191  CD        15.1560    6.6190   43.0590 C.3   332  LYS332      0.0206
    192  CE        14.4890    6.3430   44.3960 C.3   332  LYS332      0.1093
    193  NZ        15.0430    5.1250   45.0460 N.3   332  LYS332     -0.1314
@<TRIPOS>BOND
     1   180   181    2
     2   180   179    1
     3   179   182    1
     4   179   178    1
     5   182   183    1
     6   169   168    2
     7   178   168   am
     8   178   184    1
     9   183   184    1
    10   168   167    1
    11   161   160    2
    12   167   170    1
    13   167   166    1
    14   170   171    1
    15   160   166   am
    16   160   159    1
    17   165   164    1
    18   164   163    1
    19   159   158    1
    20   159   162    1
    21    61    62    1
    22   171   173   ar
    23   171   172   ar
    24   185   186    1
    25   162   163    1
    26   173   175   ar
    27    62    65    1
    28    62    63    1
    29   143   144    1
    30   172   174   ar
    31   154   153    2
    32    55    54    2
    33   146   145    2
    34    65    66    1
    35   153   152    1
    36   186   189    1
    37   186   187    1
    38    63    64    2
    39    54    53    1
    40   175   176   ar
    41    67    66   ar
    42   144   145    1
    43   174   176   ar
    44   189   190    1
    45   187   188    2
    46    66    68   ar
    47   145   147   am
    48   176   177    1
    49   150   149    2
    50   152   151    1
    51   152   155    1
    52   149   151   am
    53   149   148    1
    54    53    52    1
    55    53    56    1
    56   157   155    1
    57   137   136    2
    58   147   148    1
    59   155   156    1
    60   190   191    1
    61   128   127    2
    62    56    57    1
    63   136   135    1
    64   191   192    1
    65   135   134    1
    66   135   138    1
    67    69    70    1
    68   127   134   am
    69   127   126    1
    70    57    58    1
    71   192   193    1
    72    88    87    2
    73   138   139    1
    74    70    71    1
    75    87    86    1
    76    59    58    2
    77   130   131    1
    78   130   129    1
    79   126   129    1
    80   126   125    1
    81     8     6   ar
    82    58    60   am
    83    72    71    2
    84   139   140    1
    85   131   132    1
    86     6     5    1
    87     6     7   ar
    88    92    93    1
    89    71    73   am
    90    91    89    1
    91   132   133    1
    92     5     2    1
    93    86    89    1
    94    86    85    1
    95   141   140   ar
    96    93    94    1
    97   140   142   ar
    98    89    90    1
    99    46    45    1
   100    46    47    1
   101    45    44    1
   102    44    43    1
   103    73    74    1
   104    85    83   am
   105    43    40    1
   106     2     1    1
   107     2     3    1
   108    95    94    2
   109    94    96   am
   110   117   116    2
   111   107   108    1
   112    74    75    1
   113    74    77    1
   114    83    84    2
   115    83    82    1
   116    76    75    2
   117    42    41    2
   118    75    81   am
   119     3     4    2
   120     3     9   am
   121    41    40    1
   122    96    97    1
   123    40    39    1
   124   116   115    1
   125    81    82    1
   126   108   109    1
   127   108   111    1
   128   112   111    1
   129     9    10    1
   130    77    78    1
   131   115   114    1
   132   115   118    1
   133    18    17    1
   134    18    19    1
   135    98    97    1
   136    98    99    2
   137    34    33    2
   138    12    11    2
   139    49    50    1
   140    49    48    1
   141    97   100    1
   142    79    78   ar
   143   119   118    1
   144   119   120    1
   145   109   110    2
   146   111   113    1
   147    17    11   am
   148   123   122    1
   149    11    10    1
   150    35    36    1
   151    35    32    1
   152    51    50    2
   153    78    80   ar
   154    36    37    1
   155    10    13    1
   156    33    32    1
   157    21    19   am
   158    21    22    1
   159    26    25    1
   160   120   121    1
   161    19    20    2
   162    38    37    1
   163    32    31    1
   164    16    14   am
   165   100   101    1
   166    31    29   am
   167   122   121    2
   168   122   124    1
   169   101   102    1
   170    13    14    1
   171    25    22    1
   172    27    28    1
   173    27    23   am
   174    14    15    2
   175    22    23    1
   176    28    29    1
   177    29    30    2
   178    23    24    2
   179   105   104    1
   180   102   103    1
   181   104   103    2
   182   104   106    1
