@<TRIPOS>MOLECULE
tmp/4jhhA00.pdb
 147 140 0 0 0
SMALL
GASTEIGER

@<TRIPOS>ATOM
      1  N         37.9340   24.8300    8.2200 N.3    62  LEU62      -0.1245
      2  CA        36.7420   24.8670    9.0100 C.3    62  LEU62       0.1561
      3  C         37.0690   25.5090   10.3570 C.2    62  LEU62       0.2260
      4  O         37.9570   25.0580   11.0790 O.2    62  LEU62      -0.2867
      5  CB        36.2220   23.4490    9.2710 C.3    62  LEU62       0.0270
      6  CG        35.8990   22.6030    8.0620 C.3    62  LEU62       0.0019
      7  CD1       35.4970   21.2730    8.5830 C.3    62  LEU62       0.0001
      8  CD2       34.7990   23.2140    7.2420 C.3    62  LEU62       0.0001
      9  N         35.1960   26.0540   13.9650 N.3    64  PHE64      -0.1241
     10  CA        34.1040   25.4430   14.7250 C.3    64  PHE64       0.1605
     11  C         33.4960   26.3980   15.7030 C.2    64  PHE64       0.2264
     12  O         34.1420   27.3260   16.1390 O.2    64  PHE64      -0.2867
     13  CB        34.5990   24.2130   15.4690 C.3    64  PHE64       0.0534
     14  CG        35.2300   23.2070   14.5650 C.ar   64  PHE64      -0.0203
     15  CD1       34.4720   22.5320   13.6240 C.ar   64  PHE64      -0.0042
     16  CD2       36.5920   22.9550   14.6250 C.ar   64  PHE64      -0.0042
     17  CE1       35.0750   21.5830   12.7590 C.ar   64  PHE64      -0.0003
     18  CE2       37.1790   22.0180   13.7930 C.ar   64  PHE64      -0.0003
     19  CZ        36.4100   21.3440   12.8430 C.ar   64  PHE64      -0.0000
     20  N         40.3580   23.8840   11.7680 N.3    71  THR71      -0.1218
     21  CA        41.2210   22.8910   11.1880 C.3    71  THR71       0.1862
     22  C         41.2570   22.9940    9.6570 C.2    71  THR71       0.2287
     23  O         40.2720   23.3760    9.0230 O.2    71  THR71      -0.2866
     24  CB        40.8420   21.4400   11.7100 C.3    71  THR71       0.1770
     25  OG1       41.7130   20.4820   11.1250 O.3    71  THR71      -0.2211
     26  CG2       39.4830   21.0780   11.2820 C.3    71  THR71       0.0375
     27  N         41.6410   21.3780    5.8880 N.3    73  GLN73      -0.1245
     28  CA        41.5290   20.2400    4.9760 C.3    73  GLN73       0.1566
     29  C         42.4020   20.4720    3.7470 C.2    73  GLN73       0.2260
     30  O         42.3100   21.5080    3.0650 O.2    73  GLN73      -0.2867
     31  CB        40.0890   20.0380    4.5210 C.3    73  GLN73       0.0367
     32  CG        39.0520   20.0020    5.6540 C.3    73  GLN73       0.0905
     33  CD        37.6260   19.8920    5.1440 C.2    73  GLN73       0.2608
     34  OE1       37.2640   20.5040    4.1520 O.2    73  GLN73      -0.2717
     35  NE2       36.8090   19.0930    5.8250 N.am   73  GLN73      -0.0878
     36  N         40.5870   13.9850    1.2230 N.3    87  TYR87      -0.1241
     37  CA        41.3380   15.1090    1.7580 C.3    87  TYR87       0.1605
     38  C         42.1060   14.6690    3.0020 C.2    87  TYR87       0.2264
     39  O         41.7600   13.6540    3.5910 O.2    87  TYR87      -0.2867
     40  CB        40.4000   16.2880    2.0550 C.3    87  TYR87       0.0534
     41  CG        39.2810   16.0800    3.1090 C.ar   87  TYR87      -0.0201
     42  CD1       39.5060   16.2870    4.4600 C.ar   87  TYR87      -0.0009
     43  CD2       37.9830   15.7440    2.7200 C.ar   87  TYR87      -0.0009
     44  CE1       38.4680   16.1120    5.4080 C.ar   87  TYR87       0.0417
     45  CE2       36.9770   15.5990    3.6250 C.ar   87  TYR87       0.0417
     46  CZ        37.2180   15.7720    4.9750 C.ar   87  TYR87       0.1957
     47  OH        36.1870   15.6260    5.8580 O.3    87  TYR87      -0.2866
     48  N         44.0540   15.7580    6.8570 N.3    89  VAL89      -0.1245
     49  CA        44.2640   16.6770    7.9430 C.3    89  VAL89       0.1561
     50  C         45.6120   16.3250    8.5320 C.2    89  VAL89       0.2260
     51  O         45.9210   15.1300    8.7470 O.2    89  VAL89      -0.2867
     52  CB        43.1490   16.5410    9.0270 C.3    89  VAL89       0.0252
     53  CG1       43.4880   17.3950   10.2250 C.3    89  VAL89       0.0019
     54  CG2       41.8070   16.9240    8.4650 C.3    89  VAL89       0.0019
     55  N         46.1700   16.4720   15.4380 N.3    93  ILE93      -0.1245
     56  CA        45.6030   15.1340   15.2960 C.3    93  ILE93       0.1561
     57  C         46.1690   14.0530   16.2820 C.2    93  ILE93       0.2260
     58  O         45.6530   12.9540   16.3260 O.2    93  ILE93      -0.2867
     59  CB        45.7190   14.6410   13.8660 C.3    93  ILE93       0.0252
     60  CG1       47.1470   14.7970   13.3300 C.3    93  ILE93       0.0019
     61  CG2       44.6670   15.3280   12.9450 C.3    93  ILE93       0.0019
     62  CD1       47.3550   14.0730   12.0080 C.3    93  ILE93       0.0001
     63  N         45.7110   12.1590    9.0190 N.3   103  ILE103     -0.1245
     64  CA        44.4550   11.4640    8.8710 C.3   103  ILE103      0.1561
     65  C         43.9500   11.7690    7.4570 C.2   103  ILE103      0.2260
     66  O         43.9340   12.9410    7.0300 O.2   103  ILE103     -0.2867
     67  CB        43.3690   11.9120    9.8810 C.3   103  ILE103      0.0252
     68  CG1       43.9090   11.7800   11.3010 C.3   103  ILE103      0.0019
     69  CG2       42.1240   11.0350    9.7080 C.3   103  ILE103      0.0019
     70  CD1       42.9290   12.2420   12.4460 C.3   103  ILE103      0.0001
     71  N         40.6930   11.3000    4.9130 N.3   105  PHE105     -0.1241
     72  CA        39.2610   11.0910    4.8220 C.3   105  PHE105      0.1605
     73  C         38.8810   10.9270    3.3740 C.2   105  PHE105      0.2264
     74  O         39.2480   11.7510    2.5290 O.2   105  PHE105     -0.2867
     75  CB        38.5140   12.3150    5.3560 C.3   105  PHE105      0.0534
     76  CG        38.7530   12.5720    6.8400 C.ar  105  PHE105     -0.0203
     77  CD1       37.9380   11.9770    7.7970 C.ar  105  PHE105     -0.0042
     78  CD2       39.7940   13.4070    7.2690 C.ar  105  PHE105     -0.0042
     79  CE1       38.1390   12.2040    9.1670 C.ar  105  PHE105     -0.0003
     80  CE2       39.9860   13.6460    8.6200 C.ar  105  PHE105     -0.0003
     81  CZ        39.1740   13.0400    9.5800 C.ar  105  PHE105     -0.0000
     82  N         44.2660    6.4840    9.4420 N.3   125  TYR125     -0.1241
     83  CA        45.1750    7.1270   10.3730 C.3   125  TYR125      0.1605
     84  C         46.5710    6.5960   10.1150 C.2   125  TYR125      0.2264
     85  O         46.8040    5.3830   10.0840 O.2   125  TYR125     -0.2867
     86  CB        44.7530    6.8240   11.8100 C.3   125  TYR125      0.0534
     87  CG        43.2760    7.0580   12.0800 C.ar  125  TYR125     -0.0201
     88  CD1       42.8410    8.2160   12.6850 C.ar  125  TYR125     -0.0009
     89  CD2       42.3070    6.1160   11.7100 C.ar  125  TYR125     -0.0009
     90  CE1       41.5040    8.4590   12.9210 C.ar  125  TYR125      0.0417
     91  CE2       40.9440    6.3480   11.9620 C.ar  125  TYR125      0.0417
     92  CZ        40.5670    7.5420   12.5480 C.ar  125  TYR125      0.1957
     93  OH        39.2560    7.8390   12.8260 O.3   125  TYR125     -0.2866
     94  N         38.5010    6.0300   20.0080 N.3   138  TYR138     -0.1241
     95  CA        39.0690    7.0500   19.1510 C.3   138  TYR138      0.1605
     96  C         38.7810    6.7310   17.6750 C.2   138  TYR138      0.2264
     97  O         38.1870    7.5660   16.9620 O.2   138  TYR138     -0.2867
     98  CB        40.5540    7.2200   19.4170 C.3   138  TYR138      0.0534
     99  CG        41.1940    8.1530   18.4130 C.ar  138  TYR138     -0.0201
    100  CD1       41.4400    9.4940   18.7180 C.ar  138  TYR138     -0.0009
    101  CD2       41.5470    7.6970   17.1520 C.ar  138  TYR138     -0.0009
    102  CE1       42.0410   10.3450   17.8000 C.ar  138  TYR138      0.0417
    103  CE2       42.1340    8.5380   16.2390 C.ar  138  TYR138      0.0417
    104  CZ        42.3770    9.8510   16.5610 C.ar  138  TYR138      0.1957
    105  OH        42.9650   10.6530   15.6200 O.3   138  TYR138     -0.2866
    106  N         35.5140    7.4880   16.6610 N.3   141  ALA141     -0.1231
    107  CA        35.1330    8.8850   16.7470 C.3   141  ALA141      0.1694
    108  C         35.3640    9.5720   15.4100 C.2   141  ALA141      0.2592
    109  O         34.5350   10.3790   14.9880 O.2   141  ALA141     -0.2718
    110  CB        35.8960    9.6190   17.8830 C.3   141  ALA141      0.0304
    111  N         36.4890    9.2430   14.7540 N.am  142  GLY142     -0.1957
    112  CA        36.8810    9.9090   13.5370 C.3   142  GLY142      0.1869
    113  C         35.8960    9.5950   12.4150 C.2   142  GLY142      0.2309
    114  O         35.3590   10.4960   11.8070 O.2   142  GLY142     -0.2863
    115  N         32.2670   11.0670   13.1420 N.3   145  ARG145     -0.1231
    116  CA        32.2500   12.4880   12.8330 C.3   145  ARG145      0.1694
    117  C         32.1560   12.6940   11.3090 C.2   145  ARG145      0.2592
    118  O         31.4070   13.5270   10.7940 O.2   145  ARG145     -0.2718
    119  CB        33.5130   13.1540   13.3750 C.3   145  ARG145      0.0321
    120  CG        33.5500   14.6780   13.1760 C.3   145  ARG145      0.0489
    121  CD        32.5190   15.4360   14.0430 C.3   145  ARG145      0.2205
    122  NE        32.9380   15.5020   15.4430 N.pl3 145  ARG145     -0.0865
    123  CZ        32.2470   16.0810   16.4270 C.cat 145  ARG145      0.5346
    124  NH1       31.0640   16.6340   16.1880 N.pl3 145  ARG145      0.1354
    125  NH2       32.7580   16.1060   17.6550 N.pl3 145  ARG145      0.1354
    126  N         32.9310   11.9250   10.5800 N.am  146  PHE146     -0.1976
    127  CA        32.9720   12.1010    9.1570 C.3   146  PHE146      0.1639
    128  C         31.6360   11.7420    8.5140 C.2   146  PHE146      0.2290
    129  O         31.0650   12.5230    7.7310 O.2   146  PHE146     -0.2864
    130  CB        34.0590   11.2020    8.6150 C.3   146  PHE146      0.0560
    131  CG        34.2960   11.3310    7.1470 C.ar  146  PHE146     -0.0200
    132  CD1       34.1650   12.5560    6.4860 C.ar  146  PHE146     -0.0042
    133  CD2       34.6940   10.2030    6.4080 C.ar  146  PHE146     -0.0042
    134  CE1       34.4380   12.6380    5.1150 C.ar  146  PHE146     -0.0003
    135  CE2       34.9800   10.2830    5.0390 C.ar  146  PHE146     -0.0003
    136  CZ        34.8390   11.4780    4.3860 C.ar  146  PHE146     -0.0000
    137  N         29.1230   14.3800    9.2620 N.3   149  PHE149     -0.1241
    138  CA        29.0940   15.5910    8.4460 C.3   149  PHE149      0.1605
    139  C         28.2510   15.2890    7.1850 C.2   149  PHE149      0.2264
    140  O         27.4260   16.0750    6.7390 O.2   149  PHE149     -0.2867
    141  CB        30.5020   16.0410    8.0070 C.3   149  PHE149      0.0534
    142  CG        31.3240   16.7190    9.0590 C.ar  149  PHE149     -0.0203
    143  CD1       30.8020   17.0560   10.3210 C.ar  149  PHE149     -0.0042
    144  CD2       32.6610   17.0290    8.7940 C.ar  149  PHE149     -0.0042
    145  CE1       31.6190   17.6960   11.3230 C.ar  149  PHE149     -0.0003
    146  CE2       33.4940   17.6800    9.7930 C.ar  149  PHE149     -0.0003
    147  CZ        32.9570   18.0060   11.0450 C.ar  149  PHE149     -0.0000
@<TRIPOS>BOND
     1    36    37    1
     2    37    40    1
     3    37    38    1
     4    40    41    1
     5    74    73    2
     6    43    41   ar
     7    43    45   ar
     8    38    39    2
     9    30    29    2
    10    41    42   ar
    11    73    72    1
    12    45    46   ar
    13    29    28    1
    14    34    33    2
    15   136   135   ar
    16   136   134   ar
    17    42    44   ar
    18    31    28    1
    19    31    32    1
    20    72    71    1
    21    72    75    1
    22    46    44   ar
    23    46    47    1
    24    28    27    1
    25   135   133   ar
    26   134   132   ar
    27    33    32    1
    28    33    35   am
    29    75    76    1
    30   133   131   ar
    31   132   131   ar
    32   140   139    2
    33    76    78   ar
    34    76    77   ar
    35    48    49    1
    36    66    65    2
    37   131   130    1
    38   139   138    1
    39     8     6    1
    40    78    80   ar
    41    65    64    1
    42   129   128    2
    43    77    79   ar
    44    49    50    1
    45    49    52    1
    46   141   138    1
    47   141   142    1
    48     6     7    1
    49     6     5    1
    50     1     2    1
    51   138   137    1
    52    54    52    1
    53   128   127    1
    54    50    51    2
    55   130   127    1
    56    80    81   ar
    57   144   142   ar
    58   144   146   ar
    59    64    63    1
    60    64    67    1
    61     2     5    1
    62     2     3    1
    63    23    22    2
    64    52    53    1
    65   142   143   ar
    66   127   126    1
    67    79    81   ar
    68    82    83    1
    69    22    21    1
    70    69    67    1
    71   146   147   ar
    72    67    68    1
    73    85    84    2
    74    84    83    1
    75   143   145   ar
    76     3     4    2
    77    83    86    1
    78   126   117   am
    79   118   117    2
    80   147   145   ar
    81    25    24    1
    82    21    24    1
    83    21    20    1
    84    26    24    1
    85    68    70    1
    86   117   116    1
    87    89    91   ar
    88    89    87   ar
    89   114   113    2
    90    86    87    1
    91    91    92   ar
    92    62    60    1
    93    87    88   ar
    94   113   112    1
    95    92    93    1
    96    92    90   ar
    97    88    90   ar
    98    17    19   ar
    99    17    15   ar
   100   116   115    1
   101   116   119    1
   102    19    18   ar
   103    61    59    1
   104   120   119    1
   105   120   121    1
   106    60    59    1
   107   112   111    1
   108    15    14   ar
   109    18    16   ar
   110    59    56    1
   111     9    10    1
   112   121   122    1
   113    14    16   ar
   114    14    13    1
   115    10    13    1
   116    10    11    1
   117   111   108   am
   118   109   108    2
   119    56    55    1
   120    56    57    1
   121   108   107    1
   122   122   123    2
   123   105   104    1
   124    11    12    2
   125   124   123    1
   126   103   104   ar
   127   103   101   ar
   128    57    58    2
   129   123   125    1
   130   104   102   ar
   131   106   107    1
   132   107   110    1
   133    97    96    2
   134   101    99   ar
   135    96    95    1
   136   102   100   ar
   137    99   100   ar
   138    99    98    1
   139    95    98    1
   140    95    94    1
