@<TRIPOS>MOLECULE
tmp/4jhiA00.pdb
 139 133 0 0 0
SMALL
GASTEIGER

@<TRIPOS>ATOM
      1  N         37.7030   24.5880    8.1720 N.3    61  LEU61      -0.1245
      2  CA        36.5140   24.5900    9.0060 C.3    61  LEU61       0.1561
      3  C         36.8580   25.3100   10.2910 C.2    61  LEU61       0.2260
      4  O         37.8930   25.0550   10.9190 O.2    61  LEU61      -0.2867
      5  CB        36.0350   23.1840    9.3140 C.3    61  LEU61       0.0270
      6  CG        35.6900   22.3180    8.1100 C.3    61  LEU61       0.0019
      7  CD1       35.2870   20.9020    8.5630 C.3    61  LEU61       0.0001
      8  CD2       34.5990   22.9800    7.2820 C.3    61  LEU61       0.0001
      9  N         35.0500   25.8730   13.9440 N.3    63  PHE63      -0.1241
     10  CA        33.9890   25.3020   14.7560 C.3    63  PHE63       0.1605
     11  C         33.3050   26.3090   15.6810 C.2    63  PHE63       0.2264
     12  O         33.9170   27.2890   16.1470 O.2    63  PHE63      -0.2867
     13  CB        34.5420   24.0980   15.5100 C.3    63  PHE63       0.0534
     14  CG        35.1090   23.0650   14.5900 C.ar   63  PHE63      -0.0203
     15  CD1       34.2690   22.3400   13.7480 C.ar   63  PHE63      -0.0042
     16  CD2       36.4820   22.8550   14.5060 C.ar   63  PHE63      -0.0042
     17  CE1       34.7840   21.3980   12.8640 C.ar   63  PHE63      -0.0003
     18  CE2       36.9970   21.9000   13.6410 C.ar   63  PHE63      -0.0003
     19  CZ        36.1430   21.1880   12.8010 C.ar   63  PHE63      -0.0000
     20  N         40.1560   23.7600   11.8530 N.3    70  THR70      -0.1218
     21  CA        41.0140   22.7460   11.2540 C.3    70  THR70       0.1862
     22  C         41.0690   22.8910    9.7170 C.2    70  THR70       0.2287
     23  O         40.0750   23.2920    9.0670 O.2    70  THR70      -0.2866
     24  CB        40.5670   21.3200   11.7090 C.3    70  THR70       0.1770
     25  OG1       41.4420   20.3280   11.1660 O.3    70  THR70      -0.2211
     26  CG2       39.1960   21.0370   11.2330 C.3    70  THR70       0.0375
     27  N         41.5450   21.3350    5.8290 N.3    72  GLN72      -0.1245
     28  CA        41.4320   20.1590    4.9690 C.3    72  GLN72       0.1566
     29  C         42.2890   20.3780    3.7280 C.2    72  GLN72       0.2260
     30  O         42.1820   21.3980    3.0560 O.2    72  GLN72      -0.2867
     31  CB        39.9770   19.9310    4.5460 C.3    72  GLN72       0.0367
     32  CG        38.9620   19.9300    5.6850 C.3    72  GLN72       0.0905
     33  CD        37.5350   19.8100    5.1720 C.2    72  GLN72       0.2608
     34  OE1       37.2120   20.2720    4.0740 O.2    72  GLN72      -0.2717
     35  NE2       36.6670   19.2010    5.9700 N.am   72  GLN72      -0.0878
     36  N         40.3530   14.0460    1.2680 N.3    86  TYR86      -0.1241
     37  CA        41.2150   15.1150    1.7940 C.3    86  TYR86       0.1605
     38  C         41.9530   14.6520    3.0330 C.2    86  TYR86       0.2264
     39  O         41.6330   13.5950    3.5960 O.2    86  TYR86      -0.2867
     40  CB        40.4300   16.3910    2.1210 C.3    86  TYR86       0.0534
     41  CG        39.2780   16.1900    3.0740 C.ar   86  TYR86      -0.0201
     42  CD1       39.4500   16.3700    4.4500 C.ar   86  TYR86      -0.0009
     43  CD2       38.0080   15.8220    2.6040 C.ar   86  TYR86      -0.0009
     44  CE1       38.3890   16.1960    5.3410 C.ar   86  TYR86       0.0417
     45  CE2       36.9450   15.6450    3.4910 C.ar   86  TYR86       0.0417
     46  CZ        37.1460   15.8350    4.8550 C.ar   86  TYR86       0.1957
     47  OH        36.1120   15.6570    5.7310 O.3    86  TYR86      -0.2866
     48  N         43.8550   15.8580    6.8490 N.3    88  VAL88      -0.1245
     49  CA        44.0880   16.7750    7.9430 C.3    88  VAL88       0.1561
     50  C         45.4510   16.4110    8.5170 C.2    88  VAL88       0.2260
     51  O         45.7460   15.2190    8.7410 O.2    88  VAL88      -0.2867
     52  CB        43.0710   16.5570    9.0340 C.3    88  VAL88       0.0252
     53  CG1       43.4200   17.4130   10.1930 C.3    88  VAL88       0.0019
     54  CG2       41.6500   16.8350    8.5040 C.3    88  VAL88       0.0019
     55  N         45.5200   12.2400    8.9940 N.3   102  ILE102     -0.1245
     56  CA        44.2790   11.5160    8.8780 C.3   102  ILE102      0.1561
     57  C         43.7490   11.8080    7.4800 C.2   102  ILE102      0.2260
     58  O         43.7310   12.9700    7.0230 O.2   102  ILE102     -0.2867
     59  CB        43.2590   11.9700    9.9390 C.3   102  ILE102      0.0252
     60  CG1       43.8710   11.8250   11.3390 C.3   102  ILE102      0.0019
     61  CG2       41.9460   11.2100    9.7340 C.3   102  ILE102      0.0019
     62  CD1       42.9160   12.0160   12.5060 C.3   102  ILE102      0.0001
     63  N         40.4610   11.3200    4.8850 N.3   104  PHE104     -0.1241
     64  CA        39.0190   11.1300    4.8050 C.3   104  PHE104      0.1605
     65  C         38.6380   10.9060    3.3370 C.2   104  PHE104      0.2264
     66  O         39.1700   11.5650    2.4200 O.2   104  PHE104     -0.2867
     67  CB        38.3050   12.3660    5.3650 C.3   104  PHE104      0.0534
     68  CG        38.6000   12.6410    6.8340 C.ar  104  PHE104     -0.0203
     69  CD1       37.8110   12.0610    7.8390 C.ar  104  PHE104     -0.0042
     70  CD2       39.6670   13.4910    7.2090 C.ar  104  PHE104     -0.0042
     71  CE1       38.0960   12.3060    9.2190 C.ar  104  PHE104     -0.0003
     72  CE2       39.9390   13.7690    8.5440 C.ar  104  PHE104     -0.0003
     73  CZ        39.1530   13.1790    9.5670 C.ar  104  PHE104     -0.0000
     74  N         44.0260    6.4760    9.5300 N.3   124  TYR124     -0.1241
     75  CA        44.8800    7.1480   10.4820 C.3   124  TYR124      0.1605
     76  C         46.3030    6.6590   10.2100 C.2   124  TYR124      0.2264
     77  O         46.5390    5.4500   10.0930 O.2   124  TYR124     -0.2867
     78  CB        44.4200    6.8610   11.9300 C.3   124  TYR124      0.0534
     79  CG        42.9240    7.0700   12.1970 C.ar  124  TYR124     -0.0201
     80  CD1       42.4420    8.2440   12.7460 C.ar  124  TYR124     -0.0009
     81  CD2       41.9920    6.0790   11.8820 C.ar  124  TYR124     -0.0009
     82  CE1       41.0720    8.4320   12.9870 C.ar  124  TYR124      0.0417
     83  CE2       40.6230    6.2570   12.1090 C.ar  124  TYR124      0.0417
     84  CZ        40.1690    7.4420   12.6580 C.ar  124  TYR124      0.1957
     85  OH        38.8050    7.6200   12.8800 O.3   124  TYR124     -0.2866
     86  N         38.3850    5.8900   19.9700 N.3   137  TYR137     -0.1241
     87  CA        38.9570    6.9350   19.1400 C.3   137  TYR137      0.1605
     88  C         38.7610    6.6370   17.6360 C.2   137  TYR137      0.2264
     89  O         38.3380    7.5210   16.8750 O.2   137  TYR137     -0.2867
     90  CB        40.4190    7.1880   19.4960 C.3   137  TYR137      0.0534
     91  CG        41.0550    8.1860   18.5540 C.ar  137  TYR137     -0.0201
     92  CD1       41.1290    9.5440   18.8810 C.ar  137  TYR137     -0.0009
     93  CD2       41.5830    7.7760   17.3230 C.ar  137  TYR137     -0.0009
     94  CE1       41.7270   10.4640   18.0060 C.ar  137  TYR137      0.0417
     95  CE2       42.1710    8.6820   16.4500 C.ar  137  TYR137      0.0417
     96  CZ        42.2380   10.0160   16.7900 C.ar  137  TYR137      0.1957
     97  OH        42.8220   10.8850   15.9010 O.3   137  TYR137     -0.2866
     98  N         35.3640    7.3630   16.5570 N.3   140  ALA140     -0.1231
     99  CA        34.9110    8.7340   16.6820 C.3   140  ALA140      0.1694
    100  C         35.1210    9.4820   15.3600 C.2   140  ALA140      0.2592
    101  O         34.2320   10.2040   14.9040 O.2   140  ALA140     -0.2718
    102  CB        35.6430    9.4290   17.8300 C.3   140  ALA140      0.0304
    103  N         36.2990    9.2910   14.7590 N.am  141  GLY141     -0.1957
    104  CA        36.6420    9.8900   13.4760 C.3   141  GLY141      0.1869
    105  C         35.6500    9.4960   12.3780 C.2   141  GLY141      0.2309
    106  O         34.9970   10.3720   11.8150 O.2   141  GLY141     -0.2863
    107  N         32.1450   10.9750   13.2400 N.3   144  ARG144     -0.1231
    108  CA        32.0560   12.3810   12.8900 C.3   144  ARG144      0.1694
    109  C         31.9480   12.6670   11.3850 C.2   144  ARG144      0.2592
    110  O         31.1810   13.5490   10.9630 O.2   144  ARG144     -0.2718
    111  CB        33.2330   13.1710   13.4350 C.3   144  ARG144      0.0321
    112  CG        33.0040   14.6930   13.3060 C.3   144  ARG144      0.0489
    113  CD        32.0710   15.1630   14.4090 C.3   144  ARG144      0.2205
    114  NE        32.6450   14.6570   15.6460 N.pl3 144  ARG144     -0.0865
    115  CZ        32.4010   15.1490   16.8460 C.cat 144  ARG144      0.5346
    116  NH1       31.5500   16.1660   16.9720 N.pl3 144  ARG144      0.1354
    117  NH2       33.0100   14.6110   17.9030 N.pl3 144  ARG144      0.1354
    118  N         32.7610   11.9580   10.5980 N.am  145  PHE145     -0.1976
    119  CA        32.8690   12.1730    9.1560 C.3   145  PHE145      0.1639
    120  C         31.5270   11.8130    8.5260 C.2   145  PHE145      0.2290
    121  O         30.9110   12.5860    7.7620 O.2   145  PHE145     -0.2864
    122  CB        33.9810   11.2740    8.6020 C.3   145  PHE145      0.0560
    123  CG        34.1720   11.3570    7.0980 C.ar  145  PHE145     -0.0200
    124  CD1       34.0750   12.5680    6.4280 C.ar  145  PHE145     -0.0042
    125  CD2       34.5110   10.2180    6.3700 C.ar  145  PHE145     -0.0042
    126  CE1       34.3020   12.6480    5.0660 C.ar  145  PHE145     -0.0003
    127  CE2       34.7350   10.2810    4.9970 C.ar  145  PHE145     -0.0003
    128  CZ        34.6200   11.4980    4.3360 C.ar  145  PHE145     -0.0000
    129  N         28.8540   14.3890    9.3820 N.3   148  PHE148     -0.1241
    130  CA        28.8290   15.5890    8.5360 C.3   148  PHE148      0.1605
    131  C         28.0230   15.2650    7.2800 C.2   148  PHE148      0.2264
    132  O         27.1020   15.9840    6.9040 O.2   148  PHE148     -0.2867
    133  CB        30.2350   16.0790    8.1350 C.3   148  PHE148      0.0534
    134  CG        31.0290   16.7180    9.2530 C.ar  148  PHE148     -0.0203
    135  CD1       30.5090   16.8520   10.5360 C.ar  148  PHE148     -0.0042
    136  CD2       32.3100   17.1950    9.0090 C.ar  148  PHE148     -0.0042
    137  CE1       31.2610   17.4440   11.5640 C.ar  148  PHE148     -0.0003
    138  CE2       33.0700   17.7860   10.0300 C.ar  148  PHE148     -0.0003
    139  CZ        32.5390   17.9110   11.3050 C.ar  148  PHE148     -0.0000
@<TRIPOS>BOND
     1    36    37    1
     2    37    40    1
     3    37    38    1
     4    40    41    1
     5    66    65    2
     6    43    41   ar
     7    43    45   ar
     8    38    39    2
     9    30    29    2
    10    41    42   ar
    11    65    64    1
    12    45    46   ar
    13    29    28    1
    14    34    33    2
    15   128   127   ar
    16   128   126   ar
    17    42    44   ar
    18    31    28    1
    19    31    32    1
    20    64    63    1
    21    64    67    1
    22    46    44   ar
    23    46    47    1
    24    28    27    1
    25   127   125   ar
    26   126   124   ar
    27    33    32    1
    28    33    35   am
    29    67    68    1
    30   125   123   ar
    31   124   123   ar
    32    68    70   ar
    33    68    69   ar
    34    48    49    1
    35   132   131    2
    36    58    57    2
    37   123   122    1
    38    70    72   ar
    39   131   130    1
    40     8     6    1
    41    57    56    1
    42   121   120    2
    43    69    71   ar
    44    49    50    1
    45    49    52    1
    46     6     7    1
    47     6     5    1
    48   133   130    1
    49   133   134    1
    50     1     2    1
    51    54    52    1
    52    50    51    2
    53   120   119    1
    54   130   129    1
    55    72    73   ar
    56   122   119    1
    57    56    55    1
    58    56    59    1
    59     2     5    1
    60     2     3    1
    61   136   134   ar
    62   136   138   ar
    63    52    53    1
    64    23    22    2
    65   119   118    1
    66    71    73   ar
    67   134   135   ar
    68    74    75    1
    69    22    21    1
    70    61    59    1
    71    59    60    1
    72   138   139   ar
    73    77    76    2
    74    76    75    1
    75     3     4    2
    76    75    78    1
    77   135   137   ar
    78   118   109   am
    79   110   109    2
    80    25    24    1
    81    26    24    1
    82    21    24    1
    83    21    20    1
    84   139   137   ar
    85    60    62    1
    86   109   108    1
    87   106   105    2
    88    81    83   ar
    89    81    79   ar
    90    78    79    1
    91    83    84   ar
    92    79    80   ar
    93   105   104    1
    94    84    85    1
    95    84    82   ar
    96    80    82   ar
    97    19    17   ar
    98    19    18   ar
    99    17    15   ar
   100   108   107    1
   101   108   111    1
   102   112   111    1
   103   112   113    1
   104   104   103    1
   105    18    16   ar
   106    15    14   ar
   107     9    10    1
   108   113   114    1
   109    16    14   ar
   110    14    13    1
   111    10    13    1
   112    10    11    1
   113   103   100   am
   114   101   100    2
   115   100    99    1
   116   114   115    2
   117    11    12    2
   118    97    96    1
   119    95    96   ar
   120    95    93   ar
   121    98    99    1
   122    99   102    1
   123    96    94   ar
   124   115   116    1
   125   115   117    1
   126    89    88    2
   127    93    91   ar
   128    88    87    1
   129    94    92   ar
   130    91    92   ar
   131    91    90    1
   132    87    90    1
   133    87    86    1
