@<TRIPOS>MOLECULE
tmp/4jhqB00.pdb
 116 107 0 0 0
SMALL
GASTEIGER

@<TRIPOS>ATOM
      1  N        -15.3380   -8.5870   13.9550 N.3    13  LEU13      -0.1245
      2  CA       -15.0990   -8.5920   15.4060 C.3    13  LEU13       0.1561
      3  C        -16.3600   -8.3650   16.2570 C.2    13  LEU13       0.2260
      4  O        -16.2560   -8.1380   17.4510 O.2    13  LEU13      -0.2867
      5  CB       -14.0100   -7.5640   15.7690 C.3    13  LEU13       0.0270
      6  CG       -12.6440   -7.5140   15.0390 C.3    13  LEU13       0.0019
      7  CD1      -11.7430   -6.4310   15.6380 C.3    13  LEU13       0.0001
      8  CD2      -11.8990   -8.8500   14.9650 C.3    13  LEU13       0.0001
      9  N        -18.3960   -5.5780   16.0280 N.3    15  SER15      -0.1217
     10  CA       -18.7990   -4.1660   16.1020 C.3    15  SER15       0.1889
     11  C        -19.9410   -3.9230   15.1270 C.2    15  SER15       0.2288
     12  O        -20.0480   -4.6140   14.1380 O.2    15  SER15      -0.2866
     13  CB       -17.6580   -3.2730   15.7060 C.3    15  SER15       0.2089
     14  OG       -16.5930   -3.4320   16.6060 O.3    15  SER15      -0.2183
     15  N        -19.6160   -0.3850   19.4810 N.3    34  THR34      -0.1203
     16  CA       -18.5510   -1.2880   19.8410 C.3    34  THR34       0.1994
     17  C        -18.8070   -1.7260   21.3090 C.2    34  THR34       0.2618
     18  O        -19.4000   -0.9670   22.1250 O.2    34  THR34      -0.2717
     19  CB       -17.2140   -0.5460   19.5330 C.3    34  THR34       0.1784
     20  OG1      -16.1640   -1.4500   19.1780 O.3    34  THR34      -0.2211
     21  CG2      -16.7910    0.3600   20.6910 C.3    34  THR34       0.0376
     22  N        -18.4430   -2.9680   21.6370 N.am   35  ALA35      -0.1965
     23  CA       -18.5330   -3.4680   23.0290 C.3    35  ALA35       0.1728
     24  C        -17.2270   -3.1920   23.7680 C.2    35  ALA35       0.2616
     25  O        -16.1410   -3.3360   23.2080 O.2    35  ALA35      -0.2715
     26  CB       -18.8550   -4.9570   23.0660 C.3    35  ALA35       0.0334
     27  N        -17.3170   -2.7970   25.0280 N.am   36  VAL36      -0.1977
     28  CA       -16.0930   -2.5290   25.7770 C.3    36  VAL36       0.1596
     29  C        -15.7900   -3.6420   26.7900 C.2    36  VAL36       0.2287
     30  O        -15.1190   -3.4380   27.8070 O.2    36  VAL36      -0.2864
     31  CB       -16.0580   -1.0880   26.3290 C.3    36  VAL36       0.0276
     32  CG1      -15.7730   -0.1110   25.1840 C.3    36  VAL36       0.0022
     33  CG2      -17.3690   -0.7500   27.0170 C.3    36  VAL36       0.0022
     34  N        -15.2040   -7.8560   25.3660 N.3    38  ALA38      -0.1245
     35  CA       -15.4510   -8.8500   24.3070 C.3    38  ALA38       0.1562
     36  C        -16.3970   -9.9460   24.8210 C.2    38  ALA38       0.2260
     37  O        -16.1520  -10.5300   25.8850 O.2    38  ALA38      -0.2867
     38  CB       -14.1470   -9.4400   23.7930 C.3    38  ALA38       0.0290
     39  N        -20.8270    1.1670   23.5930 N.3    44  LYS44      -0.1245
     40  CA       -20.5910    2.6190   23.4550 C.3    44  LYS44       0.1561
     41  C        -20.7240    2.9840   21.9850 C.2    44  LYS44       0.2260
     42  O        -20.4640    2.1650   21.1040 O.2    44  LYS44      -0.2867
     43  CB       -19.2180    3.0580   24.0300 C.3    44  LYS44       0.0271
     44  CG       -19.1610    2.8360   25.5150 C.3    44  LYS44       0.0035
     45  CD       -17.7750    2.4230   25.9200 C.3    44  LYS44       0.0206
     46  CE       -17.4850    2.8970   27.3520 C.3    44  LYS44       0.1093
     47  NZ       -16.0330    3.1530   27.5840 N.3    44  LYS44      -0.1314
     48  N        -13.9310    8.8320   18.4530 N.3    69  TRP69      -0.1241
     49  CA       -14.2640    8.0250   19.6060 C.3    69  TRP69       0.1605
     50  C        -14.6660    8.9450   20.7570 C.2    69  TRP69       0.2264
     51  O        -14.0500    9.9860   20.9720 O.2    69  TRP69      -0.2867
     52  CB       -13.1000    7.0990   20.0510 C.3    69  TRP69       0.0550
     53  CG       -12.6380    6.0650   18.9390 C.ar   69  TRP69       0.0003
     54  CD1      -11.4470    6.0560   18.2450 C.ar   69  TRP69       0.0946
     55  CD2      -13.4200    4.9550   18.4390 C.ar   69  TRP69       0.0152
     56  NE1      -11.4550    5.0030   17.3130 N.ar   69  TRP69      -0.2442
     57  CE2      -12.6550    4.3210   17.4150 C.ar   69  TRP69       0.0810
     58  CE3      -14.7310    4.4840   18.7130 C.ar   69  TRP69       0.0012
     59  CZ2      -13.1480    3.2030   16.6770 C.ar   69  TRP69       0.0191
     60  CZ3      -15.2290    3.3360   18.0070 C.ar   69  TRP69       0.0001
     61  CH2      -14.4380    2.7330   16.9690 C.ar   69  TRP69       0.0015
     62  N        -15.1200    7.8980   23.8990 N.3    71  PHE71      -0.1227
     63  CA       -14.7290    7.2930   25.1730 C.3    71  PHE71       0.1736
     64  C        -13.2250    7.1840   25.2990 C.2    71  PHE71       0.2596
     65  O        -12.7130    6.5570   26.2280 O.2    71  PHE71      -0.2718
     66  CB       -15.4170    5.9260   25.3720 C.3    71  PHE71       0.0547
     67  CG       -15.1310    4.9280   24.2830 C.ar   71  PHE71      -0.0202
     68  CD1      -15.9530    4.8540   23.1330 C.ar   71  PHE71      -0.0042
     69  CD2      -14.0480    4.0380   24.3910 C.ar   71  PHE71      -0.0042
     70  CE1      -15.7000    3.9210   22.1250 C.ar   71  PHE71      -0.0003
     71  CE2      -13.7770    3.1340   23.3590 C.ar   71  PHE71      -0.0003
     72  CZ       -14.6060    3.0680   22.2310 C.ar   71  PHE71      -0.0000
     73  N        -12.5120    7.7840   24.3660 N.am   72  SER72      -0.1952
     74  CA       -11.0920    8.0020   24.5470 C.3    72  SER72       0.1924
     75  C        -10.5730    9.1700   23.7300 C.2    72  SER72       0.2314
     76  O        -11.3350    9.7920   22.9860 O.2    72  SER72      -0.2863
     77  CB       -10.2770    6.7460   24.1870 C.3    72  SER72       0.2116
     78  OG       -10.1600    6.6090   22.8040 O.3    72  SER72      -0.2180
     79  N         -8.4180    8.8030   21.2900 N.3    74  SER74      -0.1217
     80  CA        -7.9810    8.2830   19.9790 C.3    74  SER74       0.1889
     81  C         -8.9050    8.6220   18.8240 C.2    74  SER74       0.2288
     82  O        -10.0480    8.9420   19.0600 O.2    74  SER74      -0.2866
     83  CB        -7.9340    6.7500   20.0870 C.3    74  SER74       0.2089
     84  OG        -6.9990    6.5100   21.1040 O.3    74  SER74      -0.2183
     85  N         -9.9620    6.7650   14.8740 N.3    76  THR76      -0.1218
     86  CA        -9.6830    5.7710   13.8110 C.3    76  THR76       0.1862
     87  C        -10.1800    6.2600   12.4490 C.2    76  THR76       0.2287
     88  O        -11.2700    6.8670   12.3610 O.2    76  THR76      -0.2866
     89  CB       -10.3510    4.4150   14.1700 C.3    76  THR76       0.1770
     90  OG1       -9.8460    4.0160   15.4160 O.3    76  THR76      -0.2211
     91  CG2      -10.0050    3.2170   13.1560 C.3    76  THR76       0.0375
     92  N         -5.5100    3.3090   13.6110 N.3    98  LEU98      -0.1245
     93  CA        -5.9670    3.7840   14.9250 C.3    98  LEU98       0.1561
     94  C         -4.8300    4.6100   15.4940 C.2    98  LEU98       0.2260
     95  O         -3.7380    4.0780   15.7680 O.2    98  LEU98      -0.2867
     96  CB        -6.3420    2.5850   15.8330 C.3    98  LEU98       0.0270
     97  CG        -6.4250    2.8570   17.3350 C.3    98  LEU98       0.0019
     98  CD1       -7.6030    3.8060   17.7160 C.3    98  LEU98       0.0001
     99  CD2       -6.6580    1.4990   17.9980 C.3    98  LEU98       0.0001
    100  N         -3.4370    6.7660   18.5310 N.3   100  SER100     -0.1217
    101  CA        -3.4880    7.0910   19.9430 C.3   100  SER100      0.1889
    102  C         -2.9100    8.4650   20.1490 C.2   100  SER100      0.2288
    103  O         -2.0380    8.8930   19.3490 O.2   100  SER100     -0.2866
    104  CB        -2.6130    6.0790   20.7610 C.3   100  SER100      0.2089
    105  OG        -3.1520    4.7680   20.5900 O.3   100  SER100     -0.2183
    106  N         -1.6820    2.1870   15.0110 N.3   113  ARG113     -0.1245
    107  CA        -1.9020    0.7450   14.7490 C.3   113  ARG113      0.1563
    108  C         -2.6360    0.5870   13.4230 C.2   113  ARG113      0.2260
    109  O         -3.2800    1.5310   13.0010 O.2   113  ARG113     -0.2867
    110  CB        -2.7520    0.1230   15.8950 C.3   113  ARG113      0.0307
    111  CG        -1.9150   -0.0530   17.2410 C.3   113  ARG113      0.0489
    112  CD        -3.0160   -0.2690   18.2850 C.3   113  ARG113      0.2205
    113  NE        -2.5590   -0.7770   19.5490 N.pl3 113  ARG113     -0.0865
    114  CZ        -2.2410   -0.0210   20.5980 C.cat 113  ARG113      0.5346
    115  NH1       -2.3510    1.2960   20.5440 N.pl3 113  ARG113      0.1354
    116  NH2       -1.8430   -0.5920   21.7160 N.pl3 113  ARG113      0.1354
@<TRIPOS>BOND
     1    88    87    2
     2    87    86    1
     3   109   108    2
     4    91    89    1
     5   108   107    1
     6    92    93    1
     7    86    89    1
     8    86    85    1
     9     1     2    1
    10    12    11    2
    11    89    90    1
    12   107   106    1
    13   107   110    1
    14    93    94    1
    15    93    96    1
    16     8     6    1
    17     6     7    1
    18     6     5    1
    19    11    10    1
    20     2     5    1
    21     2     3    1
    22    94    95    2
    23    13    10    1
    24    13    14    1
    25    96    97    1
    26   110   111    1
    27     9    10    1
    28     3     4    2
    29    59    61   ar
    30    59    57   ar
    31    61    60   ar
    32   111   112    1
    33    56    57   ar
    34    56    54   ar
    35    97    98    1
    36    97    99    1
    37    57    55   ar
    38    60    58   ar
    39    54    53   ar
    40   112   113    1
    41    55    58   ar
    42    55    53   ar
    43    48    49    1
    44   100   101    1
    45    81    82    2
    46    81    80    1
    47    53    52    1
    48    20    19    1
    49   103   102    2
    50    15    16    1
    51    19    16    1
    52    19    21    1
    53   113   114    2
    54    49    52    1
    55    49    50    1
    56    16    17    1
    57   101   102    1
    58   101   104    1
    59    80    83    1
    60    80    79    1
    61    83    84    1
    62   115   114    1
    63   105   104    1
    64   114   116    1
    65    50    51    2
    66    42    41    2
    67    17    22   am
    68    17    18    2
    69    22    23    1
    70    41    40    1
    71    70    72   ar
    72    70    68   ar
    73    72    71   ar
    74    78    77    1
    75    76    75    2
    76    23    26    1
    77    23    24    1
    78    68    67   ar
    79    25    24    2
    80    71    69   ar
    81    40    39    1
    82    40    43    1
    83    75    74    1
    84    24    27   am
    85    38    35    1
    86    62    63    1
    87    43    44    1
    88    77    74    1
    89    67    69   ar
    90    67    66    1
    91    35    36    1
    92    35    34    1
    93    73    74    1
    94    73    64   am
    95    36    37    2
    96    27    28    1
    97    63    64    1
    98    63    66    1
    99    32    31    1
   100    64    65    2
   101    44    45    1
   102    28    31    1
   103    28    29    1
   104    45    46    1
   105    31    33    1
   106    29    30    2
   107    46    47    1
