@<TRIPOS>MOLECULE
tmp/4jhqA00.pdb
 206 194 0 0 0
SMALL
GASTEIGER

@<TRIPOS>ATOM
      1  N         -2.8930  -19.9540    3.0270 N.3    11  ASN11      -0.1240
      2  CA        -3.6610  -18.7850    3.5330 C.3    11  ASN11       0.1653
      3  C         -5.0380  -18.5940    2.9290 C.2    11  ASN11       0.2266
      4  O         -5.4770  -19.3720    2.0800 O.2    11  ASN11      -0.2867
      5  CB        -2.7980  -17.5020    3.5570 C.3    11  ASN11       0.1155
      6  CG        -2.5500  -16.9070    2.1750 C.2    11  ASN11       0.2627
      7  OD1       -3.2670  -17.1730    1.2310 O.2    11  ASN11      -0.2716
      8  ND2       -1.5300  -16.0640    2.0750 N.am   11  ASN11      -0.0877
      9  N         -6.0540  -16.5650    0.7730 N.3    13  LEU13      -0.1245
     10  CA        -6.0790  -16.3220   -0.6590 C.3    13  LEU13       0.1561
     11  C         -5.6080  -17.5160   -1.5000 C.2    13  LEU13       0.2260
     12  O         -5.4550  -17.3780   -2.7050 O.2    13  LEU13      -0.2867
     13  CB        -5.2850  -15.0460   -1.0150 C.3    13  LEU13       0.0270
     14  CG        -5.5610  -13.7120   -0.2690 C.3    13  LEU13       0.0019
     15  CD1       -4.4610  -12.6760   -0.5220 C.3    13  LEU13       0.0001
     16  CD2       -6.9520  -13.1830   -0.6000 C.3    13  LEU13       0.0001
     17  N         -2.5610  -19.0130   -1.2850 N.3    15  SER15      -0.1217
     18  CA        -1.0950  -19.1780   -1.2910 C.3    15  SER15       0.1889
     19  C         -0.6420  -20.2870   -0.3030 C.2    15  SER15       0.2288
     20  O         -1.2730  -20.4910    0.7290 O.2    15  SER15      -0.2866
     21  CB        -0.3580  -17.8470   -0.9480 C.3    15  SER15       0.2089
     22  OG        -0.6720  -16.7790   -1.8610 O.3    15  SER15      -0.2183
     23  N          7.6730  -19.8580   -0.4040 N.3    32  TYR32      -0.1241
     24  CA         6.3380  -19.2500   -0.4520 C.3    32  TYR32       0.1605
     25  C          5.8210  -19.4300   -1.8980 C.2    32  TYR32       0.2264
     26  O          6.5280  -19.0310   -2.8300 O.2    32  TYR32      -0.2867
     27  CB         6.4370  -17.7410   -0.1360 C.3    32  TYR32       0.0534
     28  CG         5.1120  -17.1200    0.2740 C.ar   32  TYR32      -0.0201
     29  CD1        4.8240  -16.9320    1.6430 C.ar   32  TYR32      -0.0009
     30  CD2        4.1590  -16.7500   -0.6810 C.ar   32  TYR32      -0.0009
     31  CE1        3.6150  -16.4230    2.0570 C.ar   32  TYR32       0.0417
     32  CE2        2.9180  -16.2240   -0.2820 C.ar   32  TYR32       0.0417
     33  CZ         2.6750  -16.1000    1.1050 C.ar   32  TYR32       0.1957
     34  OH         1.5290  -15.5700    1.5640 O.3    32  TYR32      -0.2866
     35  N          2.8740  -18.2160   -4.2030 N.3    34  THR34      -0.1218
     36  CA         1.8250  -17.1690   -4.0360 C.3    34  THR34       0.1862
     37  C          0.7520  -17.4990   -5.0550 C.2    34  THR34       0.2287
     38  O          1.0650  -18.0690   -6.1090 O.2    34  THR34      -0.2866
     39  CB         2.2780  -15.6690   -4.0890 C.3    34  THR34       0.1770
     40  OG1        1.1550  -14.7860   -3.7930 O.3    34  THR34      -0.2211
     41  CG2        2.8310  -15.2590   -5.4380 C.3    34  THR34       0.0375
     42  N         -1.4430  -14.9840   -5.7690 N.3    36  VAL36      -0.1231
     43  CA        -1.7450  -13.6320   -6.2760 C.3    36  VAL36       0.1692
     44  C         -0.4950  -12.7430   -6.4770 C.2    36  VAL36       0.2593
     45  O          0.4600  -12.8400   -5.7090 O.2    36  VAL36      -0.2718
     46  CB        -2.7090  -12.9250   -5.2840 C.3    36  VAL36       0.0266
     47  CG1       -4.0480  -13.6860   -5.2100 C.3    36  VAL36       0.0020
     48  CG2       -2.0480  -12.7390   -3.8910 C.3    36  VAL36       0.0020
     49  N         -0.5120  -11.8510   -7.4720 N.am   37  THR37      -0.1939
     50  CA         0.6040  -10.9220   -7.6900 C.3    37  THR37       0.2028
     51  C          0.1040   -9.5660   -8.2460 C.2    37  THR37       0.2642
     52  O         -0.9310   -9.5240   -8.9530 O.2    37  THR37      -0.2714
     53  CB         1.7370  -11.5250   -8.5920 C.3    37  THR37       0.1808
     54  OG1        2.7640  -10.5330   -8.8150 O.3    37  THR37      -0.2208
     55  CG2        1.1950  -12.0410   -9.9880 C.3    37  THR37       0.0379
     56  N          0.8310   -8.4780   -7.9220 N.am   38  ALA38      -0.1963
     57  CA         0.4690   -7.1300   -8.3940 C.3    38  ALA38       0.1728
     58  C          0.9290   -6.8850   -9.8240 C.2    38  ALA38       0.2616
     59  O          0.2960   -6.1140  -10.5510 O.2    38  ALA38      -0.2715
     60  CB         1.0050   -6.0540   -7.4590 C.3    38  ALA38       0.0334
     61  N          2.0360   -7.5370  -10.2040 N.am   39  THR39      -0.1951
     62  CA         2.5930   -7.5020  -11.5510 C.3    39  THR39       0.1897
     63  C          1.7490   -8.4760  -12.4020 C.2    39  THR39       0.2313
     64  O          0.9670   -9.2690  -11.8550 O.2    39  THR39      -0.2863
     65  CB         4.0770   -7.9730  -11.5520 C.3    39  THR39       0.1794
     66  OG1        4.1350   -9.3920  -11.3290 O.3    39  THR39      -0.2208
     67  CG2        4.9330   -7.2700  -10.4610 C.3    39  THR39       0.0378
     68  N         10.9990  -12.2260   -3.5040 N.3    69  TRP69      -0.1241
     69  CA        10.2660  -12.6870   -4.6680 C.3    69  TRP69       0.1605
     70  C         11.2660  -12.9500   -5.7730 C.2    69  TRP69       0.2264
     71  O         12.1790  -12.1350   -6.0020 O.2    69  TRP69      -0.2867
     72  CB         9.2480  -11.6320   -5.1610 C.3    69  TRP69       0.0550
     73  CG         8.1370  -11.3770   -4.0930 C.ar   69  TRP69       0.0003
     74  CD1        7.9380  -10.2080   -3.3460 C.ar   69  TRP69       0.0946
     75  CD2        7.2140  -12.3490   -3.5890 C.ar   69  TRP69       0.0152
     76  NE1        6.8950  -10.3920   -2.4400 N.ar   69  TRP69      -0.2442
     77  CE2        6.4190  -11.6870   -2.5820 C.ar   69  TRP69       0.0810
     78  CE3        6.9190  -13.7060   -3.9420 C.ar   69  TRP69       0.0012
     79  CZ2        5.3600  -12.3430   -1.9030 C.ar   69  TRP69       0.0191
     80  CZ3        5.8870  -14.3780   -3.2310 C.ar   69  TRP69       0.0001
     81  CH2        5.0950  -13.6620   -2.2290 C.ar   69  TRP69       0.0015
     82  N         10.2120  -13.5860   -9.0810 N.3    71  PHE71      -0.1227
     83  CA         9.6120  -13.3470  -10.3840 C.3    71  PHE71       0.1736
     84  C          9.3010  -11.8290  -10.4920 C.2    71  PHE71       0.2596
     85  O          8.6520  -11.3720  -11.4430 O.2    71  PHE71      -0.2718
     86  CB         8.3380  -14.1820  -10.5580 C.3    71  PHE71       0.0547
     87  CG         7.2710  -13.9060   -9.5010 C.ar   71  PHE71      -0.0202
     88  CD1        7.3290  -14.5380   -8.2410 C.ar   71  PHE71      -0.0042
     89  CD2        6.2420  -12.9930   -9.7410 C.ar   71  PHE71      -0.0042
     90  CE1        6.3660  -14.2990   -7.2690 C.ar   71  PHE71      -0.0003
     91  CE2        5.2980  -12.7020   -8.7490 C.ar   71  PHE71      -0.0003
     92  CZ         5.3590  -13.3570   -7.5160 C.ar   71  PHE71      -0.0000
     93  N          9.7430  -11.0570   -9.5010 N.am   72  SER72      -0.1952
     94  CA         9.6870   -9.6280   -9.6670 C.3    72  SER72       0.1924
     95  C         10.7520   -8.9580   -8.8430 C.2    72  SER72       0.2314
     96  O         11.5070   -9.6450   -8.1440 O.2    72  SER72      -0.2863
     97  CB         8.3000   -9.1220   -9.3040 C.3    72  SER72       0.2116
     98  OG         8.1670   -9.0620   -7.9240 O.3    72  SER72      -0.2180
     99  N         10.1750   -6.8720   -6.3640 N.3    74  SER74      -0.1217
    100  CA         9.5450   -6.5110   -5.0480 C.3    74  SER74       0.1889
    101  C         10.0310   -7.3720   -3.8730 C.2    74  SER74       0.2288
    102  O         10.6230   -8.4080   -4.0960 O.2    74  SER74      -0.2866
    103  CB         8.0420   -6.8070   -5.1650 C.3    74  SER74       0.2089
    104  OG         7.6150   -6.0020   -6.2440 O.3    74  SER74      -0.2183
    105  N          8.3280   -8.6590    0.0500 N.3    76  THR76      -0.1218
    106  CA         7.2830   -8.4830    1.0490 C.3    76  THR76       0.1862
    107  C          7.7860   -8.9690    2.4150 C.2    76  THR76       0.2287
    108  O          8.5600   -9.9560    2.4610 O.2    76  THR76      -0.2866
    109  CB         6.0960   -9.3960    0.6840 C.3    76  THR76       0.1770
    110  OG1        5.5390   -8.9480   -0.5460 O.3    76  THR76      -0.2211
    111  CG2        4.9730   -9.2850    1.6980 C.3    76  THR76       0.0375
    112  N          6.3790  -10.1470    6.3640 N.3    78  PHE78      -0.1241
    113  CA         5.1920  -10.5260    7.1420 C.3    78  PHE78       0.1605
    114  C          5.5620  -10.4960    8.6020 C.2    78  PHE78       0.2264
    115  O          6.7070  -10.8790    8.9530 O.2    78  PHE78      -0.2867
    116  CB         4.8540  -11.9740    6.8620 C.3    78  PHE78       0.0534
    117  CG         4.1890  -12.2090    5.5160 C.ar   78  PHE78      -0.0203
    118  CD1        4.9210  -12.2000    4.3410 C.ar   78  PHE78      -0.0042
    119  CD2        2.8260  -12.4980    5.4570 C.ar   78  PHE78      -0.0042
    120  CE1        4.3060  -12.4820    3.1150 C.ar   78  PHE78      -0.0003
    121  CE2        2.2030  -12.7750    4.2320 C.ar   78  PHE78      -0.0003
    122  CZ         2.9670  -12.7780    3.0590 C.ar   78  PHE78      -0.0000
    123  N          1.3260   -7.7480    6.4830 N.3    96  TRP96      -0.1241
    124  CA         2.4640   -7.7120    5.6290 C.3    96  TRP96       0.1605
    125  C          2.5890   -6.3060    4.9910 C.2    96  TRP96       0.2264
    126  O          1.5760   -5.5700    4.8960 O.2    96  TRP96      -0.2867
    127  CB         2.3110   -8.7860    4.4990 C.3    96  TRP96       0.0550
    128  CG         0.9590   -8.7870    3.7570 C.ar   96  TRP96       0.0003
    129  CD1       -0.1030   -9.7000    3.9520 C.ar   96  TRP96       0.0946
    130  CD2        0.5650   -7.9460    2.6320 C.ar   96  TRP96       0.0152
    131  NE1       -1.1360   -9.3710    3.0930 N.ar   96  TRP96      -0.2442
    132  CE2       -0.7590   -8.3500    2.2540 C.ar   96  TRP96       0.0810
    133  CE3        1.1730   -6.8440    1.9570 C.ar   96  TRP96       0.0012
    134  CZ2       -1.4760   -7.7150    1.2370 C.ar   96  TRP96       0.0191
    135  CZ3        0.4500   -6.1800    0.9630 C.ar   96  TRP96       0.0001
    136  CH2       -0.8570   -6.6300    0.5990 C.ar   96  TRP96       0.0015
    137  N          4.0560   -4.9780    1.2560 N.3    98  LEU98      -0.1245
    138  CA         4.5720   -5.3920   -0.0390 C.3    98  LEU98       0.1561
    139  C          5.2600   -4.1320   -0.6010 C.2    98  LEU98       0.2260
    140  O          4.5970   -3.1130   -0.9080 O.2    98  LEU98      -0.2867
    141  CB         3.4440   -5.8120   -0.9660 C.3    98  LEU98       0.0270
    142  CG         3.6960   -5.8550   -2.5110 C.3    98  LEU98       0.0019
    143  CD1        4.8930   -6.7340   -2.9000 C.3    98  LEU98       0.0001
    144  CD2        2.4410   -6.3700   -3.1890 C.3    98  LEU98       0.0001
    145  N          7.0380   -2.4370   -3.6860 N.3   100  SER100     -0.1217
    146  CA         7.4420   -2.4120   -5.0870 C.3   100  SER100      0.1889
    147  C          8.7200   -1.6080   -5.2880 C.2   100  SER100      0.2288
    148  O          9.0790   -0.6940   -4.5110 O.2   100  SER100     -0.2866
    149  CB         6.3260   -1.7290   -5.9190 C.3   100  SER100      0.2089
    150  OG         5.1340   -2.4860   -5.7200 O.3   100  SER100     -0.2183
    151  N         10.5540    1.2810   -7.3540 N.3   102  VAL102     -0.1231
    152  CA        10.2080    2.3870   -8.2070 C.3   102  VAL102      0.1692
    153  C         11.5080    2.8520   -8.7710 C.2   102  VAL102      0.2592
    154  O         12.5620    2.6540   -8.1390 O.2   102  VAL102     -0.2718
    155  CB         9.3680    3.4880   -7.4950 C.3   102  VAL102      0.0266
    156  CG1        7.9960    2.9260   -7.1010 C.3   102  VAL102      0.0020
    157  CG2       10.0820    4.0310   -6.2150 C.3   102  VAL102      0.0020
    158  N         11.4610    3.4790   -9.9440 N.am  103  ASN103     -0.1974
    159  CA        12.6810    3.9520  -10.5780 C.3   103  ASN103      0.1688
    160  C         13.2280    5.2370   -9.9580 C.2   103  ASN103      0.2292
    161  O         14.4420    5.4700   -9.9570 O.2   103  ASN103     -0.2864
    162  CB        12.5100    4.0500  -12.1070 C.3   103  ASN103      0.1181
    163  CG        12.4830    2.6850  -12.7550 C.2   103  ASN103      0.2629
    164  OD1       13.0640    1.7220  -12.2280 O.2   103  ASN103     -0.2716
    165  ND2       11.7870    2.5710  -13.8690 N.am  103  ASN103     -0.0877
    166  N          8.9080    8.7820   -6.4270 N.3   107  ASP107     -0.1239
    167  CA         7.7580    7.8990   -6.4010 C.3   107  ASP107      0.1674
    168  C          7.7300    6.9930   -5.1500 C.2   107  ASP107      0.2266
    169  O          6.8520    6.1490   -4.9980 O.2   107  ASP107     -0.2867
    170  CB         7.8240    7.0300   -7.6120 C.3   107  ASP107      0.1410
    171  CG         7.4990    7.8220   -8.8780 C.2   107  ASP107      0.3668
    172  OD1        6.7060    8.7890   -8.8030 O.co2 107  ASP107     -0.2456
    173  OD2        8.0520    7.4830   -9.9070 O.co2 107  ASP107     -0.2456
    174  N          4.4310    6.0300   -2.9650 N.3   110  LYS110     -0.1231
    175  CA         3.3500    5.1130   -3.3360 C.3   110  LYS110      0.1693
    176  C          3.8840    3.6370   -3.4830 C.2   110  LYS110      0.2591
    177  O          3.1640    2.7890   -4.0060 O.2   110  LYS110     -0.2718
    178  CB         2.7440    5.5510   -4.6660 C.3   110  LYS110      0.0285
    179  CG         3.7670    5.5210   -5.8000 C.3   110  LYS110      0.0035
    180  CD         3.1190    5.9690   -7.1060 C.3   110  LYS110      0.0206
    181  CE         4.0620    5.8950   -8.3100 C.3   110  LYS110      0.1093
    182  NZ         3.4390    6.7740   -9.3510 N.3   110  LYS110     -0.1314
    183  N          5.1210    3.3510   -3.0210 N.am  111  ALA111     -0.1980
    184  CA         5.7210    2.0410   -3.2630 C.3   111  ALA111      0.1597
    185  C          5.3500    0.9400   -2.2460 C.2   111  ALA111      0.2287
    186  O          5.7770   -0.2030   -2.4020 O.2   111  ALA111     -0.2864
    187  CB         7.2660    2.2240   -3.3120 C.3   111  ALA111      0.0319
    188  N          2.3950   -1.3100   -0.1760 N.3   113  ARG113     -0.1245
    189  CA         1.0240   -1.7950    0.1350 C.3   113  ARG113      0.1563
    190  C          0.9970   -2.5050    1.4450 C.2   113  ARG113      0.2260
    191  O          2.0420   -3.0110    1.8850 O.2   113  ARG113     -0.2867
    192  CB         0.5070   -2.7370   -0.9840 C.3   113  ARG113      0.0307
    193  CG         0.3420   -1.9090   -2.3120 C.3   113  ARG113      0.0489
    194  CD         0.1000   -2.9670   -3.4080 C.3   113  ARG113      0.2205
    195  NE        -0.3580   -2.4730   -4.7090 N.pl3 113  ARG113     -0.0865
    196  CZ         0.4520   -2.4530   -5.7630 C.cat 113  ARG113      0.5346
    197  NH1        1.7200   -2.8680   -5.6210 N.pl3 113  ARG113      0.1354
    198  NH2        0.0160   -2.0450   -6.9350 N.pl3 113  ARG113      0.1354
    199  N         -2.7570  -11.5980    6.2530 N.3   117  ASN117     -0.1240
    200  CA        -3.0640  -13.0030    5.8340 C.3   117  ASN117      0.1653
    201  C         -3.1620  -13.8620    7.0790 C.2   117  ASN117      0.2266
    202  O         -2.3990  -13.6860    8.0530 O.2   117  ASN117     -0.2867
    203  CB        -1.9750  -13.5660    4.9370 C.3   117  ASN117      0.1155
    204  CG        -2.1850  -13.2530    3.4750 C.2   117  ASN117      0.2627
    205  OD1       -1.2670  -12.7580    2.8490 O.2   117  ASN117     -0.2716
    206  ND2       -3.3940  -13.5320    2.9170 N.am  117  ASN117     -0.0877
@<TRIPOS>BOND
     1   165   163   am
     2   163   164    2
     3   163   162    1
     4    63    64    2
     5    63    62    1
     6   162   159    1
     7    65    62    1
     8    65    66    1
     9    65    67    1
    10    62    61    1
    11    85    84    2
    12   159   160    1
    13   159   158    1
    14    86    83    1
    15    86    87    1
    16    59    58    2
    17    84    83    1
    18    84    93   am
    19    83    82    1
    20    61    58   am
    21    55    53    1
    22   160   161    2
    23   158   153   am
    24   173   171   ar
    25    58    57    1
    26    89    87   ar
    27    89    91   ar
    28    94    93    1
    29    94    97    1
    30    94    95    1
    31    87    88   ar
    32   182   181    1
    33    97    98    1
    34    52    51    2
    35   171   172   ar
    36   171   170    1
    37    95    96    2
    38    54    53    1
    39   153   152    1
    40   153   154    2
    41    91    92   ar
    42    53    50    1
    43    57    56    1
    44    57    60    1
    45   181   180    1
    46    51    56   am
    47    51    50    1
    48    88    90   ar
    49   152   155    1
    50   152   151    1
    51    50    49    1
    52   170   167    1
    53    92    90   ar
    54   155   156    1
    55   155   157    1
    56    49    44   am
    57   180   179    1
    58   198   196    1
    59    44    43    1
    60    44    45    2
    61   166   167    1
    62   167   168    1
    63    99   100    1
    64    43    42    1
    65    43    46    1
    66   104   103    1
    67    38    37    2
    68    71    70    2
    69   149   150    1
    70   149   146    1
    71   179   178    1
    72    70    69    1
    73   196   197    1
    74   196   195    2
    75    41    39    1
    76   147   146    1
    77   147   148    2
    78    46    47    1
    79    46    48    1
    80   103   100    1
    81    72    69    1
    82    72    73    1
    83   168   169    2
    84   146   145    1
    85    37    36    1
    86   100   101    1
    87   195   194    1
    88    69    68    1
    89   178   175    1
    90    35    36    1
    91   102   101    2
    92    73    75   ar
    93    73    74   ar
    94    39    36    1
    95    39    40    1
    96   177   176    2
    97    78    75   ar
    98    78    80   ar
    99    75    77   ar
   100   176   175    1
   101   176   183   am
   102   194   193    1
   103    74    76   ar
   104   175   174    1
   105   187   184    1
   106   184   183    1
   107   184   185    1
   108    80    81   ar
   109   144   142    1
   110   143   142    1
   111    26    25    2
   112    12    11    2
   113    77    76   ar
   114    77    79   ar
   115   142   141    1
   116   186   185    2
   117   193   192    1
   118    81    79   ar
   119    25    24    1
   120    22    21    1
   121    11    10    1
   122    18    17    1
   123    18    21    1
   124    18    19    1
   125    13    10    1
   126    13    14    1
   127   192   189    1
   128   141   138    1
   129   140   139    2
   130    30    32   ar
   131    30    28   ar
   132    10     9    1
   133   139   138    1
   134    16    14    1
   135   110   109    1
   136    15    14    1
   137    24    23    1
   138    24    27    1
   139    19    20    2
   140    32    33   ar
   141   188   189    1
   142    27    28    1
   143   138   137    1
   144   105   106    1
   145   189   190    1
   146    28    29   ar
   147   136   135   ar
   148   136   134   ar
   149   109   106    1
   150   109   111    1
   151   135   133   ar
   152   106   107    1
   153    33    34    1
   154    33    31   ar
   155     7     6    2
   156   134   132   ar
   157   190   191    2
   158    29    31   ar
   159   133   130   ar
   160     8     6   am
   161     4     3    2
   162     6     5    1
   163   132   130   ar
   164   132   131   ar
   165   107   108    2
   166   130   128   ar
   167   205   204    2
   168   206   204   am
   169     3     2    1
   170     1     2    1
   171   122   120   ar
   172   122   121   ar
   173   131   129   ar
   174   120   118   ar
   175   204   203    1
   176     2     5    1
   177   128   129   ar
   178   128   127    1
   179   121   119   ar
   180   118   117   ar
   181   127   124    1
   182   126   125    2
   183   203   200    1
   184   125   124    1
   185   119   117   ar
   186   117   116    1
   187   124   123    1
   188   200   199    1
   189   200   201    1
   190   112   113    1
   191   116   113    1
   192   201   202    2
   193   113   114    1
   194   114   115    2
