@<TRIPOS>MOLECULE
tmp/4jhtA00.pdb
 160 150 0 0 0
SMALL
GASTEIGER

@<TRIPOS>ATOM
      1  N          4.3310   -3.8080   -0.7540 N.3   105  LEU105     -0.1245
      2  CA         3.0900   -4.4870   -1.0820 C.3   105  LEU105      0.1561
      3  C          2.4610   -3.7910   -2.2650 C.2   105  LEU105      0.2260
      4  O          2.3180   -2.5580   -2.2710 O.2   105  LEU105     -0.2867
      5  CB         2.1620   -4.4060    0.1120 C.3   105  LEU105      0.0270
      6  CG         0.7870   -5.0550   -0.0390 C.3   105  LEU105      0.0019
      7  CD1        0.8540   -6.5400   -0.3530 C.3   105  LEU105      0.0001
      8  CD2       -0.0510   -4.8290    1.2160 C.3   105  LEU105      0.0001
      9  N         -0.8700   -3.5320   -4.5200 N.3   107  ASN107     -0.1240
     10  CA        -2.2950   -3.8060   -4.5570 C.3   107  ASN107      0.1653
     11  C         -2.8370   -3.4690   -5.9340 C.2   107  ASN107      0.2266
     12  O         -2.4910   -2.4210   -6.4910 O.2   107  ASN107     -0.2867
     13  CB        -3.0400   -2.9200   -3.5640 C.3   107  ASN107      0.1155
     14  CG        -2.8920   -3.3370   -2.1180 C.2   107  ASN107      0.2627
     15  OD1       -2.1010   -4.1900   -1.7610 O.2   107  ASN107     -0.2716
     16  ND2       -3.7020   -2.7230   -1.2580 N.am  107  ASN107     -0.0877
     17  N         -6.5660   -2.9910   -7.8630 N.3   109  TYR109     -0.1241
     18  CA        -7.9950   -2.8100   -7.6770 C.3   109  TYR109      0.1605
     19  C         -8.7000   -2.8730   -9.0180 C.2   109  TYR109      0.2264
     20  O         -8.4750   -2.0320   -9.8810 O.2   109  TYR109     -0.2867
     21  CB        -8.2760   -1.4350   -7.0410 C.3   109  TYR109      0.0534
     22  CG        -7.5130   -1.1590   -5.7750 C.ar  109  TYR109     -0.0201
     23  CD1       -6.1810   -0.7880   -5.8190 C.ar  109  TYR109     -0.0009
     24  CD2       -8.1290   -1.2500   -4.5400 C.ar  109  TYR109     -0.0009
     25  CE1       -5.4690   -0.5600   -4.6800 C.ar  109  TYR109      0.0417
     26  CE2       -7.4270   -1.0220   -3.3790 C.ar  109  TYR109      0.0417
     27  CZ        -6.0990   -0.6710   -3.4540 C.ar  109  TYR109      0.1957
     28  OH        -5.4470   -0.4460   -2.2640 O.3   109  TYR109     -0.2866
     29  N        -10.9890   -1.9710    0.3770 N.3   115  LEU115     -0.1245
     30  CA       -10.3260   -2.4480    1.5900 C.3   115  LEU115      0.1561
     31  C        -11.0280   -1.8940    2.8010 C.2   115  LEU115      0.2260
     32  O        -11.1600   -0.6660    2.9530 O.2   115  LEU115     -0.2867
     33  CB        -8.8850   -1.9920    1.6360 C.3   115  LEU115      0.0270
     34  CG        -7.9910   -2.7120    0.6410 C.3   115  LEU115      0.0019
     35  CD1       -6.6710   -2.0080    0.5860 C.3   115  LEU115      0.0001
     36  CD2       -7.8150   -4.1790    1.0160 C.3   115  LEU115      0.0001
     37  N         -8.8440   -0.5020    8.5540 N.3   118  HIS118     -0.1241
     38  CA        -7.8750   -1.2720    9.3310 C.3   118  HIS118      0.1621
     39  C         -6.7110   -0.3740    9.7200 C.2   118  HIS118      0.2264
     40  O         -6.5510    0.7240    9.1840 O.2   118  HIS118     -0.2867
     41  CB        -7.3340   -2.4390    8.5090 C.3   118  HIS118      0.0745
     42  CG        -6.5370   -1.9980    7.3260 C.ar  118  HIS118      0.0817
     43  ND1       -7.1290   -1.5400    6.1670 N.ar  118  HIS118     -0.2268
     44  CD2       -5.2010   -1.8950    7.1290 C.ar  118  HIS118      0.1154
     45  CE1       -6.1910   -1.1930    5.3060 C.ar  118  HIS118      0.1986
     46  NE2       -5.0090   -1.4040    5.8630 N.ar  118  HIS118     -0.2212
     47  N         -2.3490   -0.4920   10.0620 N.3   120  ASP120     -0.1239
     48  CA        -1.1420   -1.2480    9.7550 C.3   120  ASP120      0.1674
     49  C         -0.2430   -1.2490   10.9650 C.2   120  ASP120      0.2266
     50  O          0.4530   -0.2720   11.2470 O.2   120  ASP120     -0.2867
     51  CB        -0.4230   -0.6780    8.5540 C.3   120  ASP120      0.1410
     52  CG        -1.0460   -1.1310    7.2600 C.2   120  ASP120      0.3668
     53  OD1       -1.7680   -0.3360    6.6580 O.co2 120  ASP120     -0.2456
     54  OD2       -0.8300   -2.3000    6.8540 O.co2 120  ASP120     -0.2456
     55  N          4.9350    4.7550    6.3490 N.3   130  ILE130     -0.1245
     56  CA         4.6120    3.9870    5.1460 C.3   130  ILE130      0.1561
     57  C          4.4620    4.9560    3.9780 C.2   130  ILE130      0.2260
     58  O          3.8190    6.0110    4.1360 O.2   130  ILE130     -0.2867
     59  CB         3.3210    3.1380    5.3120 C.3   130  ILE130      0.0252
     60  CG1        3.5830    2.0010    6.3110 C.3   130  ILE130      0.0019
     61  CG2        2.8540    2.5750    3.9540 C.3   130  ILE130      0.0019
     62  CD1        2.3740    1.0960    6.5850 C.3   130  ILE130      0.0001
     63  N          3.0180    5.5170    0.2530 N.3   132  SER132     -0.1217
     64  CA         2.0060    4.9880   -0.6730 C.3   132  SER132      0.1889
     65  C          2.0480    5.7080   -1.9990 C.2   132  SER132      0.2288
     66  O          2.0690    6.9370   -2.0530 O.2   132  SER132     -0.2866
     67  CB         0.6010    5.1530   -0.0990 C.3   132  SER132      0.2089
     68  OG        -0.3780    5.1700   -1.1410 O.3   132  SER132     -0.2183
     69  N         -9.8240    7.3210   -0.6350 N.3   141  PHE141     -0.1241
     70  CA        -9.1330    6.8550    0.5620 C.3   141  PHE141      0.1605
     71  C         -9.8160    7.4230    1.7880 C.2   141  PHE141      0.2264
     72  O        -10.0350    8.6320    1.8710 O.2   141  PHE141     -0.2867
     73  CB        -7.6720    7.3020    0.4970 C.3   141  PHE141      0.0534
     74  CG        -6.8360    6.7990    1.6300 C.ar  141  PHE141     -0.0203
     75  CD1       -6.2490    5.5480    1.5860 C.ar  141  PHE141     -0.0042
     76  CD2       -6.6350    7.5850    2.7330 C.ar  141  PHE141     -0.0042
     77  CE1       -5.4750    5.0910    2.6440 C.ar  141  PHE141     -0.0003
     78  CE2       -5.8540    7.1270    3.7930 C.ar  141  PHE141     -0.0003
     79  CZ        -5.2830    5.8850    3.7270 C.ar  141  PHE141     -0.0000
     80  N         -7.3960    9.8750   -4.1990 N.3   157  LEU157     -0.1245
     81  CA        -6.0150    9.6630   -4.5880 C.3   157  LEU157      0.1561
     82  C         -6.0030    9.3510   -6.0580 C.2   157  LEU157      0.2260
     83  O         -6.6920    8.4170   -6.5200 O.2   157  LEU157     -0.2867
     84  CB        -5.4230    8.4990   -3.8070 C.3   157  LEU157      0.0270
     85  CG        -5.3240    8.6980   -2.3070 C.3   157  LEU157      0.0019
     86  CD1       -4.7960    7.4580   -1.6260 C.3   157  LEU157      0.0001
     87  CD2       -4.4600    9.9120   -1.9700 C.3   157  LEU157      0.0001
     88  N          2.8800    8.4820    5.0840 N.3   165  TRP165     -0.1241
     89  CA         2.1140    8.3710    6.3100 C.3   165  TRP165      0.1605
     90  C          3.0440    8.2210    7.4880 C.2   165  TRP165      0.2264
     91  O          3.5340    7.1120    7.7620 O.2   165  TRP165     -0.2867
     92  CB         1.1860    7.1680    6.2110 C.3   165  TRP165      0.0550
     93  CG         0.1180    7.3240    5.1520 C.ar  165  TRP165      0.0003
     94  CD1        0.1170    6.8100    3.8940 C.ar  165  TRP165      0.0946
     95  CD2       -1.0910    8.0750    5.2800 C.ar  165  TRP165      0.0152
     96  NE1       -1.0410    7.1830    3.2310 N.ar  165  TRP165     -0.2442
     97  CE2       -1.7890    7.9670    4.0630 C.ar  165  TRP165      0.0810
     98  CE3       -1.6520    8.8210    6.3090 C.ar  165  TRP165      0.0012
     99  CZ2       -3.0230    8.5900    3.8530 C.ar  165  TRP165      0.0191
    100  CZ3       -2.8800    9.4290    6.1050 C.ar  165  TRP165      0.0001
    101  CH2       -3.5470    9.3120    4.8840 C.ar  165  TRP165      0.0015
    102  N         -7.7410    3.2040    8.3330 N.3   174  HIS174     -0.1226
    103  CA        -7.8960    3.6700    6.9620 C.3   174  HIS174      0.1752
    104  C         -8.3770    2.5530    6.0590 C.2   174  HIS174      0.2597
    105  O         -8.3320    1.3620    6.4060 O.2   174  HIS174     -0.2718
    106  CB        -6.5680    4.1860    6.4270 C.3   174  HIS174      0.0759
    107  CG        -5.4930    3.1440    6.4280 C.ar  174  HIS174      0.0818
    108  ND1       -4.7870    2.8130    7.5680 N.ar  174  HIS174     -0.2268
    109  CD2       -5.0420    2.3220    5.4510 C.ar  174  HIS174      0.1154
    110  CE1       -3.9300    1.8480    7.2770 C.ar  174  HIS174      0.1986
    111  NE2       -4.0670    1.5270    6.0040 N.ar  174  HIS174     -0.2212
    112  N         -8.8420    2.9340    4.8770 N.am  175  GLY175     -0.1942
    113  CA        -9.3080    1.9740    3.9000 C.3   175  GLY175      0.2014
    114  C         -9.5520    2.6430    2.5630 C.2   175  GLY175      0.2638
    115  O         -9.2900    3.8330    2.4020 O.2   175  GLY175     -0.2714
    116  N        -10.0270    1.8570    1.6090 N.am  176  ILE176     -0.1977
    117  CA       -10.3050    2.3090    0.2470 C.3   176  ILE176      0.1596
    118  C        -11.7260    1.9230   -0.0850 C.2   176  ILE176      0.2287
    119  O        -12.1470    0.7780    0.1470 O.2   176  ILE176     -0.2864
    120  CB        -9.3740    1.5880   -0.7450 C.3   176  ILE176      0.0276
    121  CG1       -7.9290    2.0230   -0.5420 C.3   176  ILE176      0.0022
    122  CG2       -9.8200    1.7990   -2.2020 C.3   176  ILE176      0.0022
    123  CD1       -7.6650    3.4330   -0.9790 C.3   176  ILE176      0.0001
    124  N         -6.6510    0.2920  -10.7780 N.3   191  ARG191     -0.1245
    125  CA        -5.7420    1.0920   -9.9750 C.3   191  ARG191      0.1563
    126  C         -4.6890    0.1580   -9.3760 C.2   191  ARG191      0.2260
    127  O         -4.9960   -0.9780   -8.9760 O.2   191  ARG191     -0.2867
    128  CB        -6.4930    1.7930   -8.8410 C.3   191  ARG191      0.0307
    129  CG        -5.5890    2.5020   -7.8410 C.3   191  ARG191      0.0489
    130  CD        -6.4200    3.1940   -6.7790 C.3   191  ARG191      0.2205
    131  NE        -5.5870    3.9920   -5.8750 N.pl3 191  ARG191     -0.0865
    132  CZ        -5.2600    3.6580   -4.6360 C.cat 191  ARG191      0.5346
    133  NH1       -5.6830    2.5390   -4.0710 N.pl3 191  ARG191      0.1354
    134  NH2       -4.5050    4.4930   -3.9380 N.pl3 191  ARG191      0.1354
    135  N         -1.6450    0.3590   -6.2460 N.3   193  ASN193     -0.1240
    136  CA        -0.9610    1.1750   -5.2400 C.3   193  ASN193      0.1653
    137  C          0.2000    0.3850   -4.6720 C.2   193  ASN193      0.2266
    138  O          0.1270   -0.8440   -4.4720 O.2   193  ASN193     -0.2867
    139  CB        -1.8590    1.8070   -4.1770 C.3   193  ASN193      0.1155
    140  CG        -2.1170    0.9200   -3.0130 C.2   193  ASN193      0.2627
    141  OD1       -3.1520    0.2770   -2.9530 O.2   193  ASN193     -0.2716
    142  ND2       -1.1810    0.8760   -2.0650 N.am  193  ASN193     -0.0877
    143  N          2.7580    0.1820   -1.4440 N.3   195  THR195     -0.1218
    144  CA         3.0210    0.6500   -0.0950 C.3   195  THR195      0.1862
    145  C          4.3420    0.0940    0.3990 C.2   195  THR195      0.2287
    146  O          4.5280   -1.1170    0.5590 O.2   195  THR195     -0.2866
    147  CB         1.9000    0.3420    0.9200 C.3   195  THR195      0.1770
    148  OG1        1.4710   -1.0090    0.8440 O.3   195  THR195     -0.2211
    149  CG2        0.7150    1.2730    0.7120 C.3   195  THR195      0.0375
    150  N          7.2220   -0.3620    3.1580 N.3   197  ARG197     -0.1245
    151  CA         7.2970   -0.5480    4.6060 C.3   197  ARG197      0.1563
    152  C          8.6950   -0.9950    5.0250 C.2   197  ARG197      0.2260
    153  O          9.4070   -1.6650    4.2470 O.2   197  ARG197     -0.2867
    154  CB         6.2900   -1.6340    5.0370 C.3   197  ARG197      0.0307
    155  CG         4.8280   -1.4200    4.6170 C.3   197  ARG197      0.0489
    156  CD         4.3040   -2.5230    3.6730 C.3   197  ARG197      0.2205
    157  NE         2.9610   -2.2140    3.1840 N.pl3 197  ARG197     -0.0865
    158  CZ         1.8480   -2.2990    3.9200 C.cat 197  ARG197      0.5346
    159  NH1        1.8930   -2.7410    5.1700 N.pl3 197  ARG197      0.1354
    160  NH2        0.6720   -1.9320    3.4120 N.pl3 197  ARG197      0.1354
@<TRIPOS>BOND
     1   124   125    1
     2   125   126    1
     3   125   128    1
     4    20    19    2
     5   126   127    2
     6    19    18    1
     7   128   129    1
     8    17    18    1
     9   129   130    1
    10    18    21    1
    11    21    22    1
    12   130   131    1
    13    83    82    2
    14    12    11    2
    15   135   136    1
    16    82    81    1
    17    11    10    1
    18   131   132    2
    19    23    22   ar
    20    23    25   ar
    21    22    24   ar
    22   136   137    1
    23   136   139    1
    24    25    27   ar
    25   137   138    2
    26   132   133    1
    27   132   134    1
    28    81    80    1
    29    81    84    1
    30    10     9    1
    31    10    13    1
    32    24    26   ar
    33   139   140    1
    34    84    85    1
    35    13    14    1
    36    27    26   ar
    37    27    28    1
    38   140   141    2
    39   140   142   am
    40    85    87    1
    41    85    86    1
    42     4     3    2
    43     3     2    1
    44   122   120    1
    45    14    15    2
    46    14    16   am
    47    66    65    2
    48    65    64    1
    49   143   144    1
    50    68    67    1
    51     2     1    1
    52     2     5    1
    53   123   121    1
    54   120   121    1
    55   120   117    1
    56    64    67    1
    57    64    63    1
    58    69    70    1
    59     7     6    1
    60   144   145    1
    61   144   147    1
    62   118   119    2
    63   118   117    1
    64     6     5    1
    65     6     8    1
    66   117   116    1
    67    29    30    1
    68   145   146    2
    69    73    70    1
    70    73    74    1
    71    70    71    1
    72    35    34    1
    73    34    36    1
    74    34    33    1
    75   149   147    1
    76   148   147    1
    77    75    74   ar
    78    75    77   ar
    79    30    33    1
    80    30    31    1
    81   116   114   am
    82    74    76   ar
    83    71    72    2
    84   115   114    2
    85   114   113    1
    86    77    79   ar
    87    76    78   ar
    88    31    32    2
    89   150   151    1
    90   157   156    1
    91   157   158    2
    92    96    94   ar
    93    96    97   ar
    94   160   158    1
    95   156   155    1
    96    79    78   ar
    97    99    97   ar
    98    99   101   ar
    99    94    93   ar
   100   113   112    1
   101   158   159    1
   102    61    59    1
   103    57    58    2
   104    57    56    1
   105    97    95   ar
   106   153   152    2
   107   151   152    1
   108   151   154    1
   109   155   154    1
   110   112   104   am
   111   101   100   ar
   112    88    89    1
   113    56    59    1
   114    56    55    1
   115    93    95   ar
   116    93    92    1
   117    95    98   ar
   118    45    46   ar
   119    45    43   ar
   120    59    60    1
   121   109   111   ar
   122   109   107   ar
   123    46    44   ar
   124   111   110   ar
   125   104   105    2
   126   104   103    1
   127   100    98   ar
   128    43    42   ar
   129    92    89    1
   130    89    90    1
   131    60    62    1
   132   106   107    1
   133   106   103    1
   134   107   108   ar
   135    53    52   ar
   136    54    52   ar
   137   103   102    1
   138    44    42   ar
   139    52    51    1
   140   110   108   ar
   141    42    41    1
   142    90    91    2
   143    41    38    1
   144    51    48    1
   145    37    38    1
   146    40    39    2
   147    38    39    1
   148    48    47    1
   149    48    49    1
   150    49    50    2
