@<TRIPOS>MOLECULE
tmp/4jhvA01.pdb
 103 96 0 0 0
SMALL
GASTEIGER

@<TRIPOS>ATOM
      1  N        -24.9060  -32.5810  -19.7530 N.3   318  ALA318     -0.1231
      2  CA       -23.9190  -32.7090  -20.8300 C.3   318  ALA318      0.1694
      3  C        -24.2050  -31.6950  -21.9460 C.2   318  ALA318      0.2592
      4  O        -25.3730  -31.4500  -22.3050 O.2   318  ALA318     -0.2718
      5  CB       -23.8660  -34.1170  -21.3600 C.3   318  ALA318      0.0304
      6  N        -23.1650  -31.0230  -22.4330 N.am  319  GLY319     -0.1957
      7  CA       -23.4040  -29.9190  -23.3640 C.3   319  GLY319      0.1869
      8  C        -24.0690  -28.6590  -22.8490 C.2   319  GLY319      0.2309
      9  O        -24.2950  -27.7560  -23.6410 O.2   319  GLY319     -0.2863
     10  N        -19.1730  -26.0700  -26.6350 N.3   324  ALA324     -0.1231
     11  CA       -18.6310  -27.4030  -26.3270 C.3   324  ALA324      0.1694
     12  C        -17.7670  -27.8430  -27.4840 C.2   324  ALA324      0.2592
     13  O        -18.1710  -27.6950  -28.6680 O.2   324  ALA324     -0.2718
     14  CB       -19.7960  -28.4060  -26.0830 C.3   324  ALA324      0.0304
     15  N        -16.5550  -28.3510  -27.1850 N.am  325  ILE325     -0.1966
     16  CA       -15.5950  -28.7770  -28.2090 C.3   325  ILE325      0.1727
     17  C        -15.0810  -30.1740  -27.8860 C.2   325  ILE325      0.2616
     18  O        -14.8010  -30.4500  -26.7380 O.2   325  ILE325     -0.2715
     19  CB       -14.3670  -27.8430  -28.2840 C.3   325  ILE325      0.0290
     20  CG1      -14.8390  -26.3860  -28.3290 C.3   325  ILE325      0.0022
     21  CG2      -13.4490  -28.2730  -29.4300 C.3   325  ILE325      0.0023
     22  CD1      -13.7000  -25.3820  -28.1530 C.3   325  ILE325      0.0001
     23  N        -15.0920  -31.0770  -28.8690 N.am  326  ASN326     -0.1972
     24  CA       -14.4990  -32.4080  -28.6920 C.3   326  ASN326      0.1688
     25  C        -13.1420  -32.4570  -29.3890 C.2   326  ASN326      0.2292
     26  O        -12.9820  -31.9660  -30.5490 O.2   326  ASN326     -0.2864
     27  CB       -15.4250  -33.4930  -29.3060 C.3   326  ASN326      0.1181
     28  CG       -14.9390  -34.9010  -29.0060 C.2   326  ASN326      0.2629
     29  OD1      -14.9570  -35.3510  -27.8490 O.2   326  ASN326     -0.2716
     30  ND2      -14.5300  -35.6300  -30.0530 N.am  326  ASN326     -0.0877
     31  N        -16.9510  -26.3290  -22.4540 N.3   380  GLU380     -0.1245
     32  CA       -16.7840  -27.7670  -22.0960 C.3   380  GLU380      0.1567
     33  C        -15.9390  -28.4170  -23.1540 C.2   380  GLU380      0.2260
     34  O        -16.2090  -28.2650  -24.3480 O.2   380  GLU380     -0.2867
     35  CB       -18.1620  -28.4460  -22.0760 C.3   380  GLU380      0.0388
     36  CG       -18.0810  -29.9360  -21.6510 C.3   380  GLU380      0.1160
     37  CD       -19.4540  -30.5130  -21.2560 C.2   380  GLU380      0.3649
     38  OE1      -20.3330  -30.7210  -22.1330 O.co2 380  GLU380     -0.2457
     39  OE2      -19.6740  -30.7260  -20.0720 O.co2 380  GLU380     -0.2457
     40  N        -14.1250  -32.1150  -24.2760 N.3   382  SER382     -0.1217
     41  CA       -14.0050  -33.5620  -24.0510 C.3   382  SER382      0.1889
     42  C        -12.7510  -34.0220  -24.7920 C.2   382  SER382      0.2288
     43  O        -12.4550  -33.5460  -25.8880 O.2   382  SER382     -0.2866
     44  CB       -15.2580  -34.3180  -24.5210 C.3   382  SER382      0.2089
     45  OG       -15.7080  -33.8070  -25.7980 O.3   382  SER382     -0.2183
     46  N        -11.5170  -37.5720  -25.4320 N.3   384  PRO384     -0.2102
     47  CA       -11.6600  -39.0490  -25.3340 C.3   384  PRO384      0.1504
     48  C        -10.3400  -39.8250  -25.6220 C.2   384  PRO384      0.2575
     49  O         -9.6710  -39.5760  -26.6510 O.2   384  PRO384     -0.2718
     50  CB       -12.7590  -39.3660  -26.4020 C.3   384  PRO384      0.0282
     51  CG       -12.7830  -38.1570  -27.3550 C.3   384  PRO384      0.0208
     52  CD       -12.4470  -36.9780  -26.4110 C.3   384  PRO384      0.0893
     53  N         -9.9920  -40.7570  -24.7410 N.am  385  ALA385     -0.1980
     54  CA        -8.7350  -41.4660  -24.9110 C.3   385  ALA385      0.1597
     55  C         -8.7970  -42.3710  -26.1670 C.2   385  ALA385      0.2287
     56  O         -9.8580  -42.9280  -26.5070 O.2   385  ALA385     -0.2864
     57  CB        -8.4680  -42.3280  -23.6900 C.3   385  ALA385      0.0319
     58  N        -15.6370  -35.2640  -15.6570 N.3   407  ARG407     -0.1245
     59  CA       -15.4620  -36.7180  -15.7880 C.3   407  ARG407      0.1563
     60  C        -13.9630  -37.0180  -15.8130 C.2   407  ARG407      0.2260
     61  O        -13.2270  -36.4560  -16.6430 O.2   407  ARG407     -0.2867
     62  CB       -16.1830  -37.2580  -17.0370 C.3   407  ARG407      0.0307
     63  CG       -15.9140  -38.7680  -17.2630 C.3   407  ARG407      0.0489
     64  CD       -16.9480  -39.3630  -18.2010 C.3   407  ARG407      0.2205
     65  NE       -16.5770  -40.7550  -18.4460 N.pl3 407  ARG407     -0.0865
     66  CZ       -16.9560  -41.4680  -19.5100 C.cat 407  ARG407      0.5346
     67  NH1      -17.7420  -40.9290  -20.4420 N.pl3 407  ARG407      0.1354
     68  NH2      -16.5190  -42.7290  -19.6260 N.pl3 407  ARG407      0.1354
     69  N        -20.3800  -38.3490  -14.4190 N.3   414  TYR414     -0.1241
     70  CA       -20.2250  -36.9040  -14.6070 C.3   414  TYR414      0.1605
     71  C        -20.6330  -36.2030  -13.3140 C.2   414  TYR414      0.2264
     72  O        -21.7020  -36.5090  -12.7240 O.2   414  TYR414     -0.2867
     73  CB       -21.1230  -36.3880  -15.7590 C.3   414  TYR414      0.0534
     74  CG       -20.6480  -36.8780  -17.0980 C.ar  414  TYR414     -0.0201
     75  CD1      -20.9660  -38.1830  -17.5460 C.ar  414  TYR414     -0.0009
     76  CD2      -19.8230  -36.0720  -17.9060 C.ar  414  TYR414     -0.0009
     77  CE1      -20.4830  -38.6420  -18.7730 C.ar  414  TYR414      0.0417
     78  CE2      -19.3370  -36.5250  -19.1280 C.ar  414  TYR414      0.0417
     79  CZ       -19.6550  -37.8210  -19.5530 C.ar  414  TYR414      0.1957
     80  OH       -19.1260  -38.2590  -20.7550 O.3   414  TYR414     -0.2866
     81  N        -12.3220  -44.2280  -21.9350 N.3   432  ASP432     -0.1225
     82  CA       -12.5150  -43.0030  -21.1220 C.3   432  ASP432      0.1805
     83  C        -12.9970  -41.8260  -22.0030 C.2   432  ASP432      0.2597
     84  O        -12.7710  -41.7690  -23.2410 O.2   432  ASP432     -0.2718
     85  CB       -11.1530  -42.6210  -20.4610 C.3   432  ASP432      0.1424
     86  CG       -10.7870  -43.5000  -19.2980 C.2   432  ASP432      0.3668
     87  OD1      -11.6370  -44.1300  -18.6630 O.co2 432  ASP432     -0.2456
     88  OD2       -9.5840  -43.6290  -18.9860 O.co2 432  ASP432     -0.2456
     89  N        -13.6280  -40.8220  -21.3430 N.am  433  ASN433     -0.1974
     90  CA       -13.9570  -39.5860  -22.0170 C.3   433  ASN433      0.1688
     91  C        -13.8500  -38.4490  -21.0130 C.2   433  ASN433      0.2292
     92  O        -14.8320  -37.8730  -20.5730 O.2   433  ASN433     -0.2864
     93  CB       -15.3780  -39.6330  -22.6150 C.3   433  ASN433      0.1181
     94  CG       -15.5430  -38.6020  -23.7170 C.2   433  ASN433      0.2629
     95  OD1      -14.6740  -37.7400  -23.9310 O.2   433  ASN433     -0.2716
     96  ND2      -16.6950  -38.6930  -24.4800 N.am  433  ASN433     -0.0877
     97  N        -13.5980  -35.0680  -19.3900 N.3   435  THR435     -0.1218
     98  CA       -14.3360  -33.9070  -19.8650 C.3   435  THR435      0.1862
     99  C        -14.1050  -32.8080  -18.8060 C.2   435  THR435      0.2287
    100  O        -14.2200  -33.0680  -17.6040 O.2   435  THR435     -0.2866
    101  CB       -15.8180  -34.2690  -20.0050 C.3   435  THR435      0.1770
    102  OG1      -15.9420  -35.3440  -20.9690 O.3   435  THR435     -0.2211
    103  CG2      -16.6430  -33.0410  -20.5030 C.3   435  THR435      0.0375
@<TRIPOS>BOND
     1    26    25    2
     2    30    28   am
     3    21    19    1
     4    25    24    1
     5    27    28    1
     6    27    24    1
     7    28    29    2
     8    23    24    1
     9    23    17   am
    10    13    12    2
    11    20    19    1
    12    20    22    1
    13    19    16    1
    14    16    17    1
    15    16    15    1
    16    17    18    2
    17    12    15   am
    18    12    11    1
    19    51    52    1
    20    51    50    1
    21    49    48    2
    22    10    11    1
    23    56    55    2
    24    52    46    1
    25    50    47    1
    26    11    14    1
    27    55    54    1
    28    43    42    2
    29    45    44    1
    30    48    47    1
    31    48    53   am
    32    46    47    1
    33    54    53    1
    34    54    57    1
    35    42    41    1
    36    44    41    1
    37    96    94   am
    38    34    33    2
    39    40    41    1
    40    95    94    2
    41    94    93    1
    42     9     8    2
    43     7     8    1
    44     7     6    1
    45    84    83    2
    46    33    32    1
    47    93    90    1
    48    31    32    1
    49     6     3   am
    50     4     3    2
    51    38    37   ar
    52    32    35    1
    53    35    36    1
    54    90    89    1
    55    90    91    1
    56    83    89   am
    57    83    82    1
    58     3     2    1
    59    81    82    1
    60    36    37    1
    61     5     2    1
    62    37    39   ar
    63    82    85    1
    64    91    92    2
    65   102   101    1
    66     2     1    1
    67    80    79    1
    68   103   101    1
    69    85    86    1
    70    67    66    1
    71   101    98    1
    72    98    97    1
    73    98    99    1
    74    68    66    1
    75    79    78   ar
    76    79    77   ar
    77    66    65    2
    78    86    88   ar
    79    86    87   ar
    80    78    76   ar
    81    99   100    2
    82    77    75   ar
    83    65    64    1
    84    64    63    1
    85    76    74   ar
    86    75    74   ar
    87    63    62    1
    88    74    73    1
    89    62    59    1
    90    61    60    2
    91    60    59    1
    92    59    58    1
    93    73    70    1
    94    70    69    1
    95    70    71    1
    96    71    72    2
