@<TRIPOS>MOLECULE
tmp/4jhvA02.pdb
 107 102 0 0 0
SMALL
GASTEIGER

@<TRIPOS>ATOM
      1  N         12.4630  -19.7620    0.2440 N.3     1  GLY1       -0.1225
      2  CA        13.1390  -20.0280   -1.0960 C.3     1  GLY1        0.1811
      3  C         13.5350  -18.6560   -1.6160 C.2     1  GLY1        0.2280
      4  O         13.5140  -17.6630   -0.8690 O.2     1  GLY1       -0.2866
      5  N          9.8610  -18.8080   -3.8920 N.3    37  THR37      -0.1218
      6  CA         8.7010  -18.6470   -2.9660 C.3    37  THR37       0.1862
      7  C          8.1920  -17.2050   -2.9760 C.2    37  THR37       0.2287
      8  O          8.9250  -16.2550   -3.2820 O.2    37  THR37      -0.2866
      9  CB         9.0540  -19.0290   -1.5150 C.3    37  THR37       0.1770
     10  OG1       10.2880  -18.3960   -1.1260 O.3    37  THR37      -0.2211
     11  CG2        9.2750  -20.5470   -1.4320 C.3    37  THR37       0.0375
     12  N          4.2420  -14.9480   -1.3680 N.3    39  ASN39      -0.1240
     13  CA         2.9270  -15.0480   -0.7100 C.3    39  ASN39       0.1653
     14  C          1.8220  -14.6590   -1.6670 C.2    39  ASN39       0.2266
     15  O          2.0410  -13.9650   -2.6880 O.2    39  ASN39      -0.2867
     16  CB         2.8550  -14.1160    0.5120 C.3    39  ASN39       0.1155
     17  CG         3.8680  -14.4640    1.5600 C.2    39  ASN39       0.2627
     18  OD1        4.0130  -15.6190    1.9380 O.2    39  ASN39      -0.2716
     19  ND2        4.6390  -13.4500    2.0150 N.am   39  ASN39      -0.0877
     20  N          2.6220  -19.0060   -0.5950 N.3   127  TYR127     -0.1227
     21  CA         2.0300  -19.3040    0.7310 C.3   127  TYR127      0.1736
     22  C          0.8110  -18.4380    0.9550 C.2   127  TYR127      0.2595
     23  O          0.7180  -17.3400    0.4040 O.2   127  TYR127     -0.2718
     24  CB         3.0360  -19.0410    1.8690 C.3   127  TYR127      0.0548
     25  CG         4.1790  -20.0400    1.8300 C.ar  127  TYR127     -0.0200
     26  CD1        4.0470  -21.3410    2.3440 C.ar  127  TYR127     -0.0009
     27  CD2        5.3930  -19.6930    1.2040 C.ar  127  TYR127     -0.0009
     28  CE1        5.1070  -22.2850    2.2590 C.ar  127  TYR127      0.0417
     29  CE2        6.4400  -20.6530    1.0980 C.ar  127  TYR127      0.0417
     30  CZ         6.2740  -21.9030    1.6170 C.ar  127  TYR127      0.1957
     31  OH         7.3370  -22.8070    1.4860 O.3   127  TYR127     -0.2866
     32  N         -0.1440  -18.9810    1.7170 N.am  128  ASP128     -0.1960
     33  CA        -1.3580  -18.1920    2.0710 C.3   128  ASP128      0.1825
     34  C         -1.2970  -17.8800    3.5770 C.2   128  ASP128      0.2464
     35  O         -1.2870  -18.7910    4.4130 O.2   128  ASP128     -0.2730
     36  CB        -2.5580  -19.0810    1.7780 C.3   128  ASP128      0.1450
     37  CG        -3.8810  -18.3890    2.0190 C.2   128  ASP128      0.3671
     38  OD1       -3.9170  -17.2950    2.6200 O.co2 128  ASP128     -0.2456
     39  OD2       -4.9120  -18.9680    1.5770 O.co2 128  ASP128     -0.2456
     40  N         -1.2100  -16.5830    3.9500 N.am  129  PRO129     -0.2727
     41  CA        -1.1470  -16.2460    5.3820 C.3   129  PRO129      0.1402
     42  C         -2.3900  -16.5960    6.1410 C.2   129  PRO129      0.2269
     43  O         -2.3430  -16.6980    7.3700 O.2   129  PRO129     -0.2865
     44  CB        -0.9110  -14.7140    5.3840 C.3   129  PRO129      0.0296
     45  CG        -1.2090  -14.2380    4.0420 C.3   129  PRO129      0.0237
     46  CD        -1.1280  -15.4160    3.0610 C.3   129  PRO129      0.0939
     47  N         -4.0500  -19.5830    5.2260 N.3   131  ASP131     -0.1239
     48  CA        -4.3170  -20.8820    4.6070 C.3   131  ASP131      0.1674
     49  C         -5.3820  -21.6230    5.4440 C.2   131  ASP131      0.2266
     50  O         -5.2270  -21.8280    6.6600 O.2   131  ASP131     -0.2867
     51  CB        -3.0290  -21.7160    4.6140 C.3   131  ASP131      0.1410
     52  CG        -3.1150  -22.8840    3.6630 C.2   131  ASP131      0.3668
     53  OD1       -4.0450  -23.7040    3.7790 O.co2 131  ASP131     -0.2456
     54  OD2       -2.2440  -22.9730    2.7360 O.co2 131  ASP131     -0.2456
     55  N         -4.0540  -24.6690    7.5100 N.3   134  LYS134     -0.1245
     56  CA        -2.8990  -24.5090    8.4240 C.3   134  LYS134      0.1561
     57  C         -3.0390  -25.2820    9.7320 C.2   134  LYS134      0.2260
     58  O         -2.0410  -25.7900   10.2740 O.2   134  LYS134     -0.2867
     59  CB        -2.6030  -23.0380    8.6720 C.3   134  LYS134      0.0271
     60  CG        -1.5490  -22.7690    9.7550 C.3   134  LYS134      0.0035
     61  CD        -0.1880  -23.2990    9.3410 C.3   134  LYS134      0.0206
     62  CE         0.6800  -23.3510   10.6240 C.3   134  LYS134      0.1093
     63  NZ         1.7530  -24.3830   10.7920 N.3   134  LYS134     -0.1314
     64  N         -1.2970  -28.8270   10.3010 N.3   137  TYR137     -0.1227
     65  CA         0.1440  -29.1330   10.3150 C.3   137  TYR137      0.1736
     66  C          0.9760  -28.1250   11.0910 C.2   137  TYR137      0.2595
     67  O          0.5440  -26.9880   11.3400 O.2   137  TYR137     -0.2718
     68  CB         0.6970  -29.2940    8.8630 C.3   137  TYR137      0.0548
     69  CG         0.3920  -28.0840    7.9770 C.ar  137  TYR137     -0.0200
     70  CD1        1.2580  -26.9800    7.9550 C.ar  137  TYR137     -0.0009
     71  CD2       -0.7460  -28.0460    7.1640 C.ar  137  TYR137     -0.0009
     72  CE1        0.9880  -25.8650    7.1750 C.ar  137  TYR137      0.0417
     73  CE2       -1.0220  -26.9370    6.3630 C.ar  137  TYR137      0.0417
     74  CZ        -0.1430  -25.8460    6.3620 C.ar  137  TYR137      0.1957
     75  OH        -0.4770  -24.7820    5.5470 O.3   137  TYR137     -0.2866
     76  N          2.2210  -28.5270   11.4000 N.am  138  ASP138     -0.1974
     77  CA         3.1370  -27.7060   12.1670 C.3   138  ASP138      0.1709
     78  C          4.2700  -27.1480   11.3090 C.2   138  ASP138      0.2293
     79  O          4.7520  -26.0570   11.5950 O.2   138  ASP138     -0.2864
     80  CB         3.7740  -28.5490   13.2780 C.3   138  ASP138      0.1436
     81  CG         2.7480  -29.1930   14.1700 C.2   138  ASP138      0.3671
     82  OD1        1.8900  -28.4470   14.7330 O.co2 138  ASP138     -0.2456
     83  OD2        2.7690  -30.4220   14.2660 O.co2 138  ASP138     -0.2456
     84  N          5.8170  -26.2710    7.3870 N.3   140  ASP140     -0.1225
     85  CA         5.6490  -26.0910    5.9140 C.3   140  ASP140      0.1805
     86  C          6.7270  -25.0910    5.4800 C.2   140  ASP140      0.2598
     87  O          6.6160  -23.8900    5.7520 O.2   140  ASP140     -0.2718
     88  CB         4.2570  -25.5080    5.6880 C.3   140  ASP140      0.1424
     89  CG         3.9570  -25.2130    4.2300 C.2   140  ASP140      0.3668
     90  OD1        4.5790  -25.8450    3.3550 O.co2 140  ASP140     -0.2456
     91  OD2        3.0510  -24.3990    3.9920 O.co2 140  ASP140     -0.2456
     92  N          7.7940  -25.6070    4.8520 N.am  141  ASP141     -0.1960
     93  CA         8.9680  -24.7560    4.5300 C.3   141  ASP141      0.1840
     94  C          9.7660  -25.3030    3.3810 C.2   141  ASP141      0.2622
     95  O          9.2750  -26.2050    2.6740 O.2   141  ASP141     -0.2715
     96  CB         9.8110  -24.5380    5.8150 C.3   141  ASP141      0.1450
     97  CG        10.3890  -25.8090    6.3640 C.2   141  ASP141      0.3671
     98  OD1       10.4480  -26.8470    5.6880 O.co2 141  ASP141     -0.2456
     99  OD2       10.7940  -25.8030    7.5790 O.co2 141  ASP141     -0.2456
    100  N         10.9580  -24.7440    3.1410 N.am  142  ASP142     -0.1971
    101  CA        11.7260  -25.1990    1.9590 C.3   142  ASP142      0.1709
    102  C         11.9590  -26.7030    2.0380 C.2   142  ASP142      0.2293
    103  O         11.9620  -27.3930    1.0090 O.2   142  ASP142     -0.2864
    104  CB        13.0680  -24.4830    1.8300 C.3   142  ASP142      0.1436
    105  CG        12.9480  -22.9970    1.4500 C.2   142  ASP142      0.3671
    106  OD1       11.8350  -22.4210    1.3930 O.co2 142  ASP142     -0.2456
    107  OD2       14.0320  -22.3710    1.2410 O.co2 142  ASP142     -0.2456
@<TRIPOS>BOND
     1     5     6    1
     2     8     7    2
     3     7     6    1
     4     6     9    1
     5    15    14    2
     6    14    13    1
     7     3     2    1
     8     3     4    2
     9     9    11    1
    10     9    10    1
    11    12    13    1
    12     2     1    1
    13    13    16    1
    14    20    21    1
    15    23    22    2
    16    16    17    1
    17    21    22    1
    18    21    24    1
    19    22    32   am
    20   103   102    2
    21    29    27   ar
    22    29    30   ar
    23    27    25   ar
    24   107   105   ar
    25   106   105   ar
    26   105   104    1
    27    31    30    1
    28    17    18    2
    29    17    19   am
    30    39    37   ar
    31    30    28   ar
    32    32    33    1
    33    36    37    1
    34    36    33    1
    35   104   101    1
    36    25    24    1
    37    25    26   ar
    38   101   102    1
    39   101   100    1
    40    37    38   ar
    41    33    34    1
    42    28    26   ar
    43    95    94    2
    44    54    52   ar
    45    46    40    1
    46    46    45    1
    47   100    94   am
    48    90    89   ar
    49    94    93    1
    50    34    40   am
    51    34    35    2
    52    52    53   ar
    53    52    51    1
    54    40    41    1
    55    91    89   ar
    56    45    44    1
    57    89    88    1
    58    93    92    1
    59    93    96    1
    60    48    51    1
    61    48    47    1
    62    48    49    1
    63    92    86   am
    64    41    44    1
    65    41    42    1
    66    49    50    2
    67    86    87    2
    68    86    85    1
    69    75    74    1
    70    98    97   ar
    71    88    85    1
    72    96    97    1
    73    85    84    1
    74    42    43    2
    75    74    73   ar
    76    74    72   ar
    77    73    71   ar
    78    97    99   ar
    79    71    69   ar
    80    72    70   ar
    81    55    56    1
    82    70    69   ar
    83    69    68    1
    84    56    59    1
    85    56    57    1
    86    59    60    1
    87    68    65    1
    88    61    60    1
    89    61    62    1
    90    57    58    2
    91    64    65    1
    92    65    66    1
    93    62    63    1
    94    66    67    2
    95    66    76   am
    96    78    79    2
    97    78    77    1
    98    76    77    1
    99    77    80    1
   100    80    81    1
   101    81    83   ar
   102    81    82   ar
