@<TRIPOS>MOLECULE
tmp/4jhvA00.pdb
 91 88 0 0 0
SMALL
GASTEIGER

@<TRIPOS>ATOM
      1  N         26.0450  -40.4380  -12.2820 N.3    20  PHE20      -0.1227
      2  CA        26.5610  -40.3810  -13.6710 C.3    20  PHE20       0.1736
      3  C         26.7330  -38.9190  -14.0990 C.2    20  PHE20       0.2596
      4  O         25.7810  -38.1090  -13.9830 O.2    20  PHE20      -0.2718
      5  CB        25.6010  -41.1460  -14.6040 C.3    20  PHE20       0.0547
      6  CG        25.9930  -41.1440  -16.0710 C.ar   20  PHE20      -0.0202
      7  CD1       25.5380  -40.1380  -16.9630 C.ar   20  PHE20      -0.0042
      8  CD2       26.7930  -42.1820  -16.5980 C.ar   20  PHE20      -0.0042
      9  CE1       25.8670  -40.1450  -18.3050 C.ar   20  PHE20      -0.0003
     10  CE2       27.1400  -42.1770  -17.9540 C.ar   20  PHE20      -0.0003
     11  CZ        26.6940  -41.1590  -18.8050 C.ar   20  PHE20      -0.0000
     12  N         27.9150  -38.5470  -14.5840 N.am   21  THR21      -0.1939
     13  CA        28.1580  -37.1390  -14.9430 C.3    21  THR21       0.2028
     14  C         27.6760  -36.8550  -16.3650 C.2    21  THR21       0.2642
     15  O         27.9860  -37.6030  -17.2820 O.2    21  THR21      -0.2714
     16  CB        29.6440  -36.7930  -14.8380 C.3    21  THR21       0.1808
     17  OG1       30.0000  -36.8960  -13.4700 O.3    21  THR21      -0.2208
     18  CG2       29.9010  -35.3720  -15.3080 C.3    21  THR21       0.0379
     19  N         26.8790  -35.7870  -16.5450 N.am   22  ARG22      -0.1963
     20  CA        26.5480  -35.3450  -17.9030 C.3    22  ARG22       0.1729
     21  C         26.3790  -33.8430  -17.8970 C.2    22  ARG22       0.2616
     22  O         26.1310  -33.2770  -16.8490 O.2    22  ARG22      -0.2715
     23  CB        25.2810  -36.0260  -18.4430 C.3    22  ARG22       0.0348
     24  CG        24.0530  -35.8560  -17.5510 C.3    22  ARG22       0.0492
     25  CD        22.7410  -36.0410  -18.3320 C.3    22  ARG22       0.2205
     26  NE        22.5040  -34.8300  -19.1140 N.pl3  22  ARG22      -0.0865
     27  CZ        21.3570  -34.5740  -19.7620 C.cat  22  ARG22       0.5346
     28  NH1       20.4370  -35.4760  -19.8010 N.pl3  22  ARG22       0.1354
     29  NH2       21.2070  -33.4480  -20.4450 N.pl3  22  ARG22       0.1354
     30  N         26.5190  -33.1840  -19.0480 N.am   23  GLN23      -0.1977
     31  CA        26.2100  -31.7630  -19.2260 C.3    23  GLN23       0.1601
     32  C         24.6710  -31.5700  -19.1440 C.2    23  GLN23       0.2287
     33  O         23.8880  -32.3990  -19.6560 O.2    23  GLN23      -0.2864
     34  CB        26.6820  -31.3450  -20.6060 C.3    23  GLN23       0.0394
     35  CG        28.2370  -31.2820  -20.6540 C.3    23  GLN23       0.0908
     36  CD        28.7700  -30.1570  -19.7990 C.2    23  GLN23       0.2608
     37  OE1       28.2840  -29.0280  -19.8470 O.2    23  GLN23      -0.2717
     38  NE2       29.8320  -30.4330  -19.0450 N.am   23  GLN23      -0.0878
     39  N         25.4020  -23.8390  -25.2700 N.3    54  ASN54      -0.1240
     40  CA        25.4010  -25.1710  -25.8310 C.3    54  ASN54       0.1653
     41  C         24.1650  -25.3180  -26.7190 C.2    54  ASN54       0.2266
     42  O         23.0440  -25.4240  -26.2120 O.2    54  ASN54      -0.2867
     43  CB        25.4430  -26.2450  -24.7340 C.3    54  ASN54       0.1155
     44  CG        25.6080  -27.6440  -25.2960 C.2    54  ASN54       0.2627
     45  OD1       25.0370  -27.9850  -26.3740 O.2    54  ASN54      -0.2716
     46  ND2       26.3840  -28.4890  -24.6030 N.am   54  ASN54      -0.0877
     47  N         23.1870  -27.8660  -28.5580 N.3    56  THR56      -0.1203
     48  CA        22.5720  -29.1730  -28.4610 C.3    56  THR56       0.1994
     49  C         21.4240  -29.1470  -27.4380 C.2    56  THR56       0.2617
     50  O         20.4480  -29.8370  -27.6500 O.2    56  THR56      -0.2717
     51  CB        23.5810  -30.2860  -28.1310 C.3    56  THR56       0.1784
     52  OG1       24.5490  -30.2960  -29.2060 O.3    56  THR56      -0.2211
     53  CG2       22.9230  -31.6300  -28.0620 C.3    56  THR56       0.0376
     54  N         21.5500  -28.3030  -26.4120 N.am   57  MET57      -0.1979
     55  CA        20.5010  -28.2430  -25.3830 C.3    57  MET57       0.1605
     56  C         19.7260  -26.9210  -25.5430 C.2    57  MET57       0.2287
     57  O         18.8690  -26.6010  -24.6970 O.2    57  MET57      -0.2864
     58  CB        21.0860  -28.4230  -23.9620 C.3    57  MET57       0.0413
     59  CG        21.7880  -29.7970  -23.8170 C.3    57  MET57       0.0598
     60  SD        22.2970  -30.1620  -22.1250 S.3    57  MET57      -0.1393
     61  CE        23.5860  -28.9670  -21.9190 C.3    57  MET57       0.0692
     62  N         20.5150  -40.3290  -19.1490 N.3   153  HIS153     -0.1226
     63  CA        21.9670  -40.1640  -19.3780 C.3   153  HIS153      0.1752
     64  C         22.3800  -39.5320  -20.7170 C.2   153  HIS153      0.2596
     65  O         23.4860  -38.9600  -20.8060 O.2   153  HIS153     -0.2718
     66  CB        22.6310  -41.5200  -19.1560 C.3   153  HIS153      0.0759
     67  CG        22.5500  -41.9850  -17.7360 C.ar  153  HIS153      0.0818
     68  ND1       22.9820  -43.2350  -17.3230 N.ar  153  HIS153     -0.2268
     69  CD2       22.0800  -41.3670  -16.6220 C.ar  153  HIS153      0.1154
     70  CE1       22.7910  -43.3560  -16.0190 C.ar  153  HIS153      0.1986
     71  NE2       22.2390  -42.2320  -15.5720 N.ar  153  HIS153     -0.2212
     72  N         21.4950  -39.5670  -21.7240 N.am  154  LEU154     -0.1966
     73  CA        21.6590  -38.8390  -22.9700 C.3   154  LEU154      0.1728
     74  C         20.7000  -37.6440  -22.9820 C.2   154  LEU154      0.2616
     75  O         19.5870  -37.7840  -22.5000 O.2   154  LEU154     -0.2715
     76  CB        21.3150  -39.7500  -24.1770 C.3   154  LEU154      0.0311
     77  CG        22.1840  -41.0190  -24.3020 C.3   154  LEU154      0.0022
     78  CD1       21.6760  -41.8400  -25.4840 C.3   154  LEU154      0.0001
     79  CD2       23.6520  -40.6200  -24.4570 C.3   154  LEU154      0.0001
     80  N         21.1500  -36.5330  -23.5420 N.am  155  ALA155     -0.1977
     81  CA        20.3470  -35.2910  -23.5810 C.3   155  ALA155      0.1597
     82  C         19.0970  -35.4310  -24.4660 C.2   155  ALA155      0.2287
     83  O         18.9670  -36.3480  -25.2790 O.2   155  ALA155     -0.2864
     84  CB        21.1630  -34.1250  -23.9950 C.3   155  ALA155      0.0319
     85  N         19.7370  -35.8170  -28.0420 N.3   158  VAL158     -0.1245
     86  CA        20.8050  -36.8260  -28.3360 C.3   158  VAL158      0.1561
     87  C         20.2680  -38.2470  -28.3140 C.2   158  VAL158      0.2260
     88  O         20.6630  -39.0970  -29.1690 O.2   158  VAL158     -0.2867
     89  CB        22.0000  -36.6550  -27.3460 C.3   158  VAL158      0.0252
     90  CG1       23.0770  -37.7280  -27.5690 C.3   158  VAL158      0.0019
     91  CG2       22.6080  -35.2660  -27.4860 C.3   158  VAL158      0.0019
@<TRIPOS>BOND
     1    52    51    1
     2    88    87    2
     3    47    48    1
     4    48    51    1
     5    48    49    1
     6    86    87    1
     7    86    85    1
     8    86    89    1
     9    51    53    1
    10    50    49    2
    11    90    89    1
    12    91    89    1
    13    49    54   am
    14    41    42    2
    15    41    40    1
    16    54    55    1
    17    45    44    2
    18    40    39    1
    19    40    43    1
    20    56    55    1
    21    56    57    2
    22    78    77    1
    23    55    58    1
    24    44    43    1
    25    44    46   am
    26    83    82    2
    27    82    81    1
    28    79    77    1
    29    77    76    1
    30    76    73    1
    31    84    81    1
    32    58    59    1
    33    59    60    1
    34    81    80    1
    35    80    74   am
    36    74    73    1
    37    74    75    2
    38    73    72    1
    39    60    61    1
    40    72    64   am
    41    65    64    2
    42    64    63    1
    43    35    34    1
    44    35    36    1
    45    34    31    1
    46    29    27    1
    47    37    36    2
    48    28    27    1
    49    36    38   am
    50    27    26    2
    51    33    32    2
    52    63    66    1
    53    63    62    1
    54    31    32    1
    55    31    30    1
    56    66    67    1
    57    26    25    1
    58    30    21   am
    59    11     9   ar
    60    11    10   ar
    61    23    20    1
    62    23    24    1
    63    25    24    1
    64     9     7   ar
    65    10     8   ar
    66    20    21    1
    67    20    19    1
    68    21    22    2
    69    67    68   ar
    70    67    69   ar
    71    68    70   ar
    72    15    14    2
    73     7     6   ar
    74    69    71   ar
    75     8     6   ar
    76    19    14   am
    77    14    13    1
    78     6     5    1
    79    70    71   ar
    80    18    16    1
    81    13    16    1
    82    13    12    1
    83    16    17    1
    84     5     2    1
    85    12     3   am
    86     3     4    2
    87     3     2    1
    88     2     1    1
