@<TRIPOS>MOLECULE
tmp/4jhxA01.pdb
 147 141 0 0 0
SMALL
GASTEIGER

@<TRIPOS>ATOM
      1  N        -17.5710    6.6150  -29.6230 N.3    57  LYS57      -0.1231
      2  CA       -17.1170    5.2180  -29.4530 C.3    57  LYS57       0.1693
      3  C        -17.0170    4.9770  -27.9520 C.2    57  LYS57       0.2592
      4  O        -16.9030    5.9250  -27.1640 O.2    57  LYS57      -0.2718
      5  CB       -15.7260    4.9830  -30.0720 C.3    57  LYS57       0.0285
      6  CG       -15.6930    5.1470  -31.6210 C.3    57  LYS57       0.0035
      7  CD       -14.1960    5.0590  -32.1510 C.3    57  LYS57       0.0206
      8  CE       -14.1030    5.1170  -33.6530 C.3    57  LYS57       0.1093
      9  NZ       -12.7690    5.4610  -34.2800 N.3    57  LYS57      -0.1314
     10  N        -16.9820    3.6810  -27.6190 N.am   58  ALA58      -0.1966
     11  CA       -16.7050    3.1470  -26.2510 C.3    58  ALA58       0.1728
     12  C        -15.3950    3.6110  -25.6940 C.2    58  ALA58       0.2617
     13  O        -14.4370    3.8640  -26.4330 O.2    58  ALA58      -0.2715
     14  CB       -16.7030    1.6000  -26.3260 C.3    58  ALA58       0.0334
     15  N        -15.2890    3.6920  -24.3650 N.am   59  SER59      -0.1936
     16  CA       -14.0400    3.9850  -23.7540 C.3    59  SER59       0.2055
     17  C        -14.0900    3.6120  -22.2910 C.2    59  SER59       0.2644
     18  O        -15.1300    3.8800  -21.6610 O.2    59  SER59      -0.2714
     19  CB       -13.7940    5.4930  -23.7790 C.3    59  SER59       0.2130
     20  OG       -12.6000    5.8360  -23.0800 O.3    59  SER59      -0.2179
     21  N        -13.0060    3.0290  -21.7780 N.am   60  THR60      -0.1936
     22  CA       -12.8440    2.9980  -20.3320 C.3    60  THR60       0.2028
     23  C        -11.7570    3.9070  -19.7580 C.2    60  THR60       0.2642
     24  O        -12.0710    4.8560  -19.0140 O.2    60  THR60      -0.2714
     25  CB       -12.6100    1.5650  -19.8920 C.3    60  THR60       0.1808
     26  OG1      -13.7000    0.7390  -20.3540 O.3    60  THR60      -0.2208
     27  CG2      -12.5310    1.4820  -18.3550 C.3    60  THR60       0.0379
     28  N        -10.5170    3.6780  -20.2160 N.am   61  ARG61      -0.1977
     29  CA        -9.3990    4.4290  -19.6860 C.3    61  ARG61       0.1597
     30  C         -9.5740    5.9190  -20.0120 C.2    61  ARG61       0.2287
     31  O         -9.3770    6.7300  -19.1650 O.2    61  ARG61      -0.2864
     32  CB        -8.0680    3.9420  -20.2560 C.3    61  ARG61       0.0334
     33  CG        -7.4310    2.7520  -19.5490 C.3    61  ARG61       0.0492
     34  CD        -6.8510    1.8380  -20.6360 C.3    61  ARG61       0.2205
     35  NE        -7.9280    1.1960  -21.3560 N.pl3  61  ARG61      -0.0865
     36  CZ        -8.6160    0.1550  -20.9550 C.cat  61  ARG61       0.5346
     37  NH1       -8.2260   -0.5880  -19.9050 N.pl3  61  ARG61       0.1354
     38  NH2       -9.6850   -0.2030  -21.6160 N.pl3  61  ARG61       0.1354
     39  N        -14.0100   11.9430  -28.7450 N.3   110  ARG110     -0.1245
     40  CA       -13.5450   10.6410  -29.2930 C.3   110  ARG110      0.1563
     41  C        -14.5220   10.2280  -30.3610 C.2   110  ARG110      0.2260
     42  O        -15.7500   10.1850  -30.1530 O.2   110  ARG110     -0.2867
     43  CB       -13.4840    9.5610  -28.2140 C.3   110  ARG110      0.0307
     44  CG       -13.2970    8.1300  -28.8110 C.3   110  ARG110      0.0489
     45  CD       -13.1620    7.0740  -27.7730 C.3   110  ARG110      0.2205
     46  NE       -11.8440    7.1010  -27.1840 N.pl3 110  ARG110     -0.0865
     47  CZ       -11.2050    6.0510  -26.6930 C.cat 110  ARG110      0.5346
     48  NH1      -11.7530    4.8240  -26.6580 N.pl3 110  ARG110      0.1354
     49  NH2       -9.9470    6.1950  -26.3440 N.pl3 110  ARG110      0.1354
     50  N         -9.2950   10.1920  -29.0580 N.3   132  LEU132     -0.1245
     51  CA        -9.0420    9.1530  -30.0400 C.3   132  LEU132      0.1561
     52  C         -9.9200    9.3970  -31.3040 C.2   132  LEU132      0.2260
     53  O        -11.1320    9.6110  -31.2440 O.2   132  LEU132     -0.2867
     54  CB        -9.3170    7.7460  -29.5640 C.3   132  LEU132      0.0270
     55  CG        -9.2400    6.5870  -30.5870 C.3   132  LEU132      0.0019
     56  CD1       -8.7770    5.3470  -29.9050 C.3   132  LEU132      0.0001
     57  CD2      -10.5450    6.3060  -31.2650 C.3   132  LEU132      0.0001
     58  N         -4.2440    8.9910  -31.7570 N.3   137  HIS137     -0.1241
     59  CA        -4.5970    8.9120  -30.2940 C.3   137  HIS137      0.1621
     60  C         -3.5170    9.5720  -29.4510 C.2   137  HIS137      0.2264
     61  O         -2.6830    8.9320  -28.8140 O.2   137  HIS137     -0.2867
     62  CB        -4.7480    7.4170  -30.0090 C.3   137  HIS137      0.0745
     63  CG        -5.3880    7.1160  -28.7150 C.ar  137  HIS137      0.0817
     64  ND1       -5.9680    8.0930  -27.9440 N.ar  137  HIS137     -0.2268
     65  CD2       -5.6050    5.9250  -28.0990 C.ar  137  HIS137      0.1154
     66  CE1       -6.5050    7.5160  -26.8820 C.ar  137  HIS137      0.1986
     67  NE2       -6.2970    6.2050  -26.9610 N.ar  137  HIS137     -0.2212
     68  N         -2.9300    1.7900  -37.3730 N.3   170  ASN170     -0.1225
     69  CA        -4.0500    2.1700  -36.5490 C.3   170  ASN170      0.1785
     70  C         -3.6160    3.4510  -35.8110 C.2   170  ASN170      0.2597
     71  O         -2.4700    3.9750  -35.9940 O.2   170  ASN170     -0.2718
     72  CB        -4.5950    1.1020  -35.6170 C.3   170  ASN170      0.1169
     73  CG        -3.6510    0.7150  -34.5350 C.2   170  ASN170      0.2627
     74  OD1       -2.6870    1.3880  -34.2800 O.2   170  ASN170     -0.2716
     75  ND2       -3.9640   -0.3860  -33.8410 N.am  170  ASN170     -0.0877
     76  N         -4.5660    4.0330  -35.1230 N.am  171  ASN171     -0.1960
     77  CA        -4.3420    5.3110  -34.4920 C.3   171  ASN171      0.1819
     78  C         -3.1100    5.3170  -33.5890 C.2   171  ASN171      0.2621
     79  O         -2.3480    6.3130  -33.5670 O.2   171  ASN171     -0.2715
     80  CB        -5.5560    5.8040  -33.7180 C.3   171  ASN171      0.1195
     81  CG        -6.3290    4.6730  -33.0190 C.2   171  ASN171      0.2630
     82  OD1       -5.7490    3.7800  -32.4390 O.2   171  ASN171     -0.2716
     83  ND2       -7.6180    4.7050  -33.1170 N.am  171  ASN171     -0.0877
     84  N         -2.9720    4.2460  -32.7860 N.am  172  VAL172     -0.1977
     85  CA        -1.8800    4.1380  -31.8410 C.3   172  VAL172      0.1596
     86  C         -0.5060    4.0210  -32.5670 C.2   172  VAL172      0.2287
     87  O          0.4320    4.7180  -32.2540 O.2   172  VAL172     -0.2864
     88  CB        -2.0850    2.9550  -30.8570 C.3   172  VAL172      0.0276
     89  CG1       -0.8890    2.7580  -30.0160 C.3   172  VAL172      0.0022
     90  CG2       -3.2390    3.2580  -29.9510 C.3   172  VAL172      0.0022
     91  N         -1.1660   -3.7000  -29.6570 N.3   235  ASP235     -0.1225
     92  CA        -2.5290   -3.3020  -29.5620 C.3   235  ASP235      0.1805
     93  C         -3.3560   -4.3080  -30.3350 C.2   235  ASP235      0.2597
     94  O         -2.8080   -5.0670  -31.1110 O.2   235  ASP235     -0.2718
     95  CB        -2.6760   -1.8580  -30.1220 C.3   235  ASP235      0.1424
     96  CG        -4.0680   -1.2730  -30.0240 C.2   235  ASP235      0.3668
     97  OD1       -4.9440   -1.7180  -29.2340 O.co2 235  ASP235     -0.2456
     98  OD2       -4.3040   -0.3150  -30.7820 O.co2 235  ASP235     -0.2456
     99  N         -4.6620   -4.3360  -30.0560 N.am  236  VAL236     -0.1980
    100  CA        -5.5600   -5.2440  -30.7030 C.3   236  VAL236      0.1595
    101  C         -5.5650   -5.0170  -32.2030 C.2   236  VAL236      0.2287
    102  O         -5.4190   -3.8870  -32.6930 O.2   236  VAL236     -0.2864
    103  CB        -6.9960   -5.1560  -30.2250 C.3   236  VAL236      0.0276
    104  CG1       -7.0730   -5.6180  -28.7610 C.3   236  VAL236      0.0022
    105  CG2       -7.5950   -3.7590  -30.4470 C.3   236  VAL236      0.0022
    106  N         -7.7510   -5.4120  -34.6310 N.3   238  VAL238     -0.1231
    107  CA        -8.8990   -4.7530  -35.2740 C.3   238  VAL238      0.1692
    108  C         -9.3180   -3.5980  -34.4100 C.2   238  VAL238      0.2593
    109  O         -9.5490   -3.8180  -33.2090 O.2   238  VAL238     -0.2718
    110  CB       -10.0540   -5.7560  -35.5220 C.3   238  VAL238      0.0266
    111  CG1      -11.2370   -5.0440  -36.1250 C.3   238  VAL238      0.0020
    112  CG2       -9.5810   -6.9130  -36.4230 C.3   238  VAL238      0.0020
    113  N         -9.4360   -2.4010  -34.9910 N.am  239  SER239     -0.1938
    114  CA        -9.8530   -1.2250  -34.1720 C.3   239  SER239      0.2055
    115  C        -11.3400   -0.9240  -34.1440 C.2   239  SER239      0.2642
    116  O        -12.1080   -1.4090  -34.9500 O.2   239  SER239     -0.2714
    117  CB        -9.1060   -0.0140  -34.6700 C.3   239  SER239      0.2130
    118  OG        -7.7710   -0.1520  -34.2130 O.3   239  SER239     -0.2179
    119  N        -11.7810   -0.1900  -33.1270 N.am  240  MET240     -0.1976
    120  CA       -13.1650    0.2630  -33.0940 C.3   240  MET240      0.1605
    121  C        -13.6410    0.9390  -34.3890 C.2   240  MET240      0.2287
    122  O        -12.8840    1.6570  -35.0670 O.2   240  MET240     -0.2864
    123  CB       -13.3820    1.2260  -31.9060 C.3   240  MET240      0.0413
    124  CG       -13.3840    0.5050  -30.5960 C.3   240  MET240      0.0598
    125  SD       -13.7150    1.6510  -29.2180 S.3   240  MET240     -0.1393
    126  CE       -12.2830    2.6380  -29.4220 C.3   240  MET240      0.0692
    127  N         -1.7150   -0.3990  -25.0110 N.3   277  CYS277     -0.1221
    128  CA        -2.6530    0.7030  -24.6930 C.3   277  CYS277      0.1808
    129  C         -3.9450    0.2390  -23.9390 C.2   277  CYS277      0.2601
    130  O         -4.5460    1.0010  -23.2460 O.2   277  CYS277     -0.2717
    131  CB        -2.9950    1.4930  -25.9280 C.3   277  CYS277      0.0970
    132  SG        -3.7520    0.5050  -27.2440 S.3   277  CYS277     -0.0800
    133  N         -4.3100   -1.0170  -24.0960 N.am  278  LEU278     -0.1966
    134  CA        -5.4980   -1.6460  -23.5280 C.3   278  LEU278      0.1713
    135  C         -6.7550   -1.1000  -24.1690 C.2   278  LEU278      0.2458
    136  O         -6.7530   -0.0190  -24.7210 O.2   278  LEU278     -0.2730
    137  CB        -5.5680   -1.4670  -22.0160 C.3   278  LEU278      0.0310
    138  CG        -4.3160   -1.9320  -21.2480 C.3   278  LEU278      0.0022
    139  CD1       -4.5850   -1.7690  -19.7580 C.3   278  LEU278      0.0001
    140  CD2       -3.8920   -3.3560  -21.5510 C.3   278  LEU278      0.0001
    141  N         -7.8440   -1.8820  -24.1790 N.am  279  PRO279     -0.2727
    142  CA        -7.8890   -3.2830  -23.6930 C.3   279  PRO279      0.1402
    143  C         -7.1330   -4.2740  -24.4880 C.2   279  PRO279      0.2269
    144  O         -6.9080   -4.0530  -25.6870 O.2   279  PRO279     -0.2865
    145  CB        -9.3760   -3.6130  -23.7070 C.3   279  PRO279      0.0296
    146  CG        -9.9280   -2.6690  -24.7240 C.3   279  PRO279      0.0237
    147  CD        -9.0330   -1.4630  -24.8620 C.3   279  PRO279      0.0939
@<TRIPOS>BOND
     1    68    69    1
     2    69    70    1
     3    69    72    1
     4   112   110    1
     5   111   110    1
     6    71    70    2
     7    70    76   am
     8    72    73    1
     9   110   107    1
    10   107   106    1
    11   107   108    1
    12    76    77    1
    13   122   121    2
    14   113   108   am
    15   113   114    1
    16   116   115    2
    17   117   118    1
    18   117   114    1
    19    73    74    2
    20    73    75   am
    21    77    80    1
    22    77    78    1
    23   108   109    2
    24   121   120    1
    25     9     8    1
    26   114   115    1
    27   115   119   am
    28    80    81    1
    29     8     7    1
    30    78    79    2
    31    78    84   am
    32   119   120    1
    33    83    81   am
    34   120   123    1
    35    81    82    2
    36    84    85    1
    37   102   101    2
    38    86    87    2
    39    86    85    1
    40   101   100    1
    41     7     6    1
    42   123   124    1
    43    85    88    1
    44    58    59    1
    45     6     5    1
    46    52    53    2
    47    52    51    1
    48    57    55    1
    49    94    93    2
    50    88    89    1
    51    88    90    1
    52    98    96   ar
    53   100   103    1
    54   100    99    1
    55   124   125    1
    56    55    56    1
    57    55    54    1
    58   105   103    1
    59    41    42    2
    60    41    40    1
    61    93    99   am
    62    93    92    1
    63    59    62    1
    64    59    60    1
    65   103   104    1
    66    95    96    1
    67    95    92    1
    68     5     2    1
    69    51    54    1
    70    51    50    1
    71    96    97   ar
    72    62    63    1
    73    91    92    1
    74     1     2    1
    75     2     3    1
    76    60    61    2
    77   126   125    1
    78    40    39    1
    79    40    43    1
    80    44    43    1
    81    44    45    1
    82    63    65   ar
    83    63    64   ar
    84    65    67   ar
    85     3    10   am
    86     3     4    2
    87    64    66   ar
    88    45    46    1
    89    10    11    1
    90   132   131    1
    91    46    47    2
    92    67    66   ar
    93    47    48    1
    94    47    49    1
    95    13    12    2
    96    14    11    1
    97    11    12    1
    98   131   128    1
    99    12    15   am
   100   144   143    2
   101   127   128    1
   102   147   146    1
   103   147   141    1
   104   146   145    1
   105   136   135    2
   106   128   129    1
   107   143   142    1
   108    15    16    1
   109   141   135   am
   110   141   142    1
   111   135   134    1
   112   133   129   am
   113   133   134    1
   114   129   130    2
   115    19    16    1
   116    19    20    1
   117    16    17    1
   118   145   142    1
   119   134   137    1
   120    17    21   am
   121    17    18    2
   122   137   138    1
   123    21    22    1
   124    38    36    1
   125   140   138    1
   126    35    36    2
   127    35    34    1
   128   138   139    1
   129    36    37    1
   130    34    33    1
   131    26    25    1
   132    22    25    1
   133    22    23    1
   134    32    29    1
   135    32    33    1
   136    28    23   am
   137    28    29    1
   138    30    29    1
   139    30    31    2
   140    25    27    1
   141    23    24    2
