@<TRIPOS>MOLECULE
tmp/4jhzA00.pdb
 157 151 0 0 0
SMALL
GASTEIGER

@<TRIPOS>ATOM
      1  N         90.0570  -43.3030  153.0980 N.3   159  TYR159     -0.1227
      2  CA        90.5290  -41.9780  152.7250 C.3   159  TYR159      0.1736
      3  C         90.1860  -40.9700  153.8120 C.2   159  TYR159      0.2595
      4  O         89.5460  -41.3140  154.8050 O.2   159  TYR159     -0.2718
      5  CB        89.9480  -41.5540  151.3710 C.3   159  TYR159      0.0548
      6  CG        88.5260  -42.0110  151.1110 C.ar  159  TYR159     -0.0200
      7  CD1       87.4520  -41.1550  151.3190 C.ar  159  TYR159     -0.0009
      8  CD2       88.2590  -43.2910  150.6380 C.ar  159  TYR159     -0.0009
      9  CE1       86.1540  -41.5640  151.0750 C.ar  159  TYR159      0.0417
     10  CE2       86.9650  -43.7100  150.3950 C.ar  159  TYR159      0.0417
     11  CZ        85.9160  -42.8420  150.6140 C.ar  159  TYR159      0.1957
     12  OH        84.6240  -43.2530  150.3720 O.3   159  TYR159     -0.2866
     13  N         90.6160  -39.7270  153.6260 N.am  160  PHE160     -0.1962
     14  CA        90.5520  -38.7460  154.7010 C.3   160  PHE160      0.1771
     15  C         89.6590  -37.5610  154.3500 C.2   160  PHE160      0.2620
     16  O         89.6330  -36.5640  155.0710 O.2   160  PHE160     -0.2715
     17  CB        91.9590  -38.2500  155.0350 C.3   160  PHE160      0.0574
     18  CG        92.9970  -39.3380  155.0470 C.ar  160  PHE160     -0.0200
     19  CD1       92.9120  -40.3930  155.9400 C.ar  160  PHE160     -0.0042
     20  CD2       94.0530  -39.3100  154.1500 C.ar  160  PHE160     -0.0042
     21  CE1       93.8660  -41.3940  155.9420 C.ar  160  PHE160     -0.0003
     22  CE2       95.0070  -40.3080  154.1470 C.ar  160  PHE160     -0.0003
     23  CZ        94.9140  -41.3510  155.0450 C.ar  160  PHE160     -0.0000
     24  N         88.9270  -37.6690  153.2460 N.am  161  HIS161     -0.1959
     25  CA        87.9760  -36.6260  152.8750 C.3   161  HIS161      0.1787
     26  C         86.5430  -37.1040  153.0870 C.2   161  HIS161      0.2620
     27  O         86.3100  -38.2700  153.4050 O.2   161  HIS161     -0.2715
     28  CB        88.1810  -36.1840  151.4230 C.3   161  HIS161      0.0785
     29  CG        88.3200  -37.3150  150.4530 C.ar  161  HIS161      0.0821
     30  ND1       89.5430  -37.7620  150.0000 N.ar  161  HIS161     -0.2267
     31  CD2       87.3880  -38.0790  149.8340 C.ar  161  HIS161      0.1154
     32  CE1       89.3590  -38.7570  149.1520 C.ar  161  HIS161      0.1986
     33  NE2       88.0600  -38.9700  149.0340 N.ar  161  HIS161     -0.2212
     34  N         85.5860  -36.1980  152.9130 N.am  162  ASP162     -0.1971
     35  CA        84.1950  -36.4930  153.2350 C.3   162  ASP162      0.1709
     36  C         83.4720  -37.2050  152.0940 C.2   162  ASP162      0.2293
     37  O         82.9140  -38.2840  152.2870 O.2   162  ASP162     -0.2864
     38  CB        83.4550  -35.2020  153.5940 C.3   162  ASP162      0.1436
     39  CG        82.3320  -35.4280  154.5900 C.2   162  ASP162      0.3671
     40  OD1       81.5510  -34.4820  154.8300 O.co2 162  ASP162     -0.2456
     41  OD2       82.2240  -36.5510  155.1270 O.co2 162  ASP162     -0.2456
     42  N         95.2660  -34.4400  156.0400 N.3   353  ASN353     -0.1240
     43  CA        94.8980  -34.3500  157.4390 C.3   353  ASN353      0.1653
     44  C         94.9550  -35.7250  158.0860 C.2   353  ASN353      0.2266
     45  O         94.8340  -36.7450  157.4090 O.2   353  ASN353     -0.2867
     46  CB        93.5000  -33.7510  157.5900 C.3   353  ASN353      0.1155
     47  CG        93.5090  -32.4200  158.3150 C.2   353  ASN353      0.2627
     48  OD1       93.7330  -32.3620  159.5240 O.2   353  ASN353     -0.2716
     49  ND2       93.2500  -31.3430  157.5820 N.am  353  ASN353     -0.0877
     50  N         91.0480  -35.6450  162.2090 N.3   356  LEU356     -0.1245
     51  CA        89.6310  -35.9230  162.4050 C.3   356  LEU356      0.1561
     52  C         89.2000  -37.2280  161.7460 C.2   356  LEU356      0.2260
     53  O         88.5660  -38.0730  162.3790 O.2   356  LEU356     -0.2867
     54  CB        88.8080  -34.7540  161.8820 C.3   356  LEU356      0.0270
     55  CG        89.3970  -33.4560  162.4330 C.3   356  LEU356      0.0019
     56  CD1       88.8510  -32.2810  161.6820 C.3   356  LEU356      0.0001
     57  CD2       89.1440  -33.3160  163.9310 C.3   356  LEU356      0.0001
     58  N         91.7010  -27.6670  153.3660 N.3   400  GLU400     -0.1245
     59  CA        91.8060  -28.0610  154.7710 C.3   400  GLU400      0.1567
     60  C         92.9960  -28.9640  155.1130 C.2   400  GLU400      0.2260
     61  O         92.8050  -30.0600  155.6390 O.2   400  GLU400     -0.2867
     62  CB        90.5100  -28.7580  155.1950 C.3   400  GLU400      0.0388
     63  CG        89.3190  -27.8250  155.3360 C.3   400  GLU400      0.1160
     64  CD        88.0850  -28.5390  155.8560 C.2   400  GLU400      0.3649
     65  OE1       87.3200  -27.9360  156.6400 O.co2 400  GLU400     -0.2457
     66  OE2       87.8740  -29.7070  155.4670 O.co2 400  GLU400     -0.2457
     67  N         91.3550  -25.0700  157.4570 N.3   433  VAL433     -0.1245
     68  CA        90.5320  -25.8880  158.3420 C.3   433  VAL433      0.1561
     69  C         90.3820  -25.2040  159.7070 C.2   433  VAL433      0.2260
     70  O         91.1650  -24.3200  160.0520 O.2   433  VAL433     -0.2867
     71  CB        91.1370  -27.3030  158.5070 C.3   433  VAL433      0.0252
     72  CG1       92.2990  -27.2820  159.4890 C.3   433  VAL433      0.0019
     73  CG2       90.0810  -28.2970  158.9490 C.3   433  VAL433      0.0019
     74  N         90.6580  -26.0680  163.1480 N.3   434  PHE434     -0.1241
     75  CA        91.5250  -26.1300  164.3240 C.3   434  PHE434      0.1605
     76  C         92.8740  -25.4720  164.0500 C.2   434  PHE434      0.2264
     77  O         93.7250  -25.3900  164.9350 O.2   434  PHE434     -0.2867
     78  CB        91.7570  -27.5760  164.7730 C.3   434  PHE434      0.0534
     79  CG        92.1330  -28.5130  163.6590 C.ar  434  PHE434     -0.0203
     80  CD1       91.2380  -29.4520  163.1820 C.ar  434  PHE434     -0.0042
     81  CD2       93.3960  -28.4510  163.0890 C.ar  434  PHE434     -0.0042
     82  CE1       91.6000  -30.3100  162.1590 C.ar  434  PHE434     -0.0003
     83  CE2       93.7590  -29.3040  162.0710 C.ar  434  PHE434     -0.0003
     84  CZ        92.8610  -30.2340  161.6040 C.ar  434  PHE434     -0.0000
     85  N         87.1130  -22.3660  156.3090 N.3   452  ASN452     -0.1240
     86  CA        86.0240  -23.3150  156.5090 C.3   452  ASN452      0.1653
     87  C         85.6360  -23.3500  157.9780 C.2   452  ASN452      0.2266
     88  O         86.3490  -23.9180  158.8030 O.2   452  ASN452     -0.2867
     89  CB        86.4140  -24.7140  156.0360 C.3   452  ASN452      0.1155
     90  CG        86.5170  -24.8100  154.5320 C.2   452  ASN452      0.2627
     91  OD1       86.2830  -23.8340  153.8160 O.2   452  ASN452     -0.2716
     92  ND2       86.8480  -25.9970  154.0390 N.am  452  ASN452     -0.0877
     93  N         82.7210  -23.8180  161.2350 N.3   454  TYR454     -0.1241
     94  CA        81.5420  -24.5560  161.6740 C.3   454  TYR454      0.1605
     95  C         81.2680  -24.3490  163.1570 C.2   454  TYR454      0.2264
     96  O         80.9220  -25.2900  163.8700 O.2   454  TYR454     -0.2867
     97  CB        81.7000  -26.0500  161.3880 C.3   454  TYR454      0.0534
     98  CG        81.7920  -26.3970  159.9220 C.ar  454  TYR454     -0.0201
     99  CD1       80.6450  -26.5280  159.1510 C.ar  454  TYR454     -0.0009
    100  CD2       83.0220  -26.5970  159.3080 C.ar  454  TYR454     -0.0009
    101  CE1       80.7170  -26.8470  157.8120 C.ar  454  TYR454      0.0417
    102  CE2       83.1050  -26.9150  157.9680 C.ar  454  TYR454      0.0417
    103  CZ        81.9480  -27.0390  157.2250 C.ar  454  TYR454      0.1957
    104  OH        82.0190  -27.3570  155.8880 O.3   454  TYR454     -0.2866
    105  N         80.0630  -28.4000  165.1940 N.3   458  TYR458     -0.1227
    106  CA        81.0270  -29.3470  165.7440 C.3   458  TYR458      0.1736
    107  C         81.4860  -28.8980  167.1250 C.2   458  TYR458      0.2595
    108  O         81.6070  -29.7040  168.0480 O.2   458  TYR458     -0.2718
    109  CB        82.2300  -29.4980  164.8140 C.3   458  TYR458      0.0548
    110  CG        81.9020  -30.1260  163.4770 C.ar  458  TYR458     -0.0200
    111  CD1       81.2840  -31.3670  163.4050 C.ar  458  TYR458     -0.0009
    112  CD2       82.2260  -29.4850  162.2870 C.ar  458  TYR458     -0.0009
    113  CE1       80.9870  -31.9480  162.1860 C.ar  458  TYR458      0.0417
    114  CE2       81.9350  -30.0570  161.0630 C.ar  458  TYR458      0.0417
    115  CZ        81.3160  -31.2890  161.0180 C.ar  458  TYR458      0.1957
    116  OH        81.0230  -31.8660  159.8040 O.3   458  TYR458     -0.2866
    117  N         81.7380  -27.6010  167.2560 N.am  459  VAL459     -0.1980
    118  CA        82.0990  -27.0070  168.5350 C.3   459  VAL459      0.1595
    119  C         81.0300  -25.9910  168.9250 C.2   459  VAL459      0.2287
    120  O         80.3960  -25.3890  168.0560 O.2   459  VAL459     -0.2864
    121  CB        83.4910  -26.3420  168.4850 C.3   459  VAL459      0.0276
    122  CG1       84.5650  -27.3750  168.1750 C.3   459  VAL459      0.0022
    123  CG2       83.5150  -25.2140  167.4650 C.3   459  VAL459      0.0022
    124  N         83.2300  -22.2730  153.3980 N.3   490  GLU490     -0.1245
    125  CA        82.4030  -23.3490  153.9300 C.3   490  GLU490      0.1567
    126  C         81.7380  -22.9530  155.2370 C.2   490  GLU490      0.2260
    127  O         82.4000  -22.7720  156.2570 O.2   490  GLU490     -0.2867
    128  CB        83.2250  -24.6230  154.1550 C.3   490  GLU490      0.0388
    129  CG        83.5000  -25.4540  152.9090 C.3   490  GLU490      0.1160
    130  CD        83.9380  -26.8710  153.2380 C.2   490  GLU490      0.3649
    131  OE1       83.5590  -27.3790  154.3130 O.co2 490  GLU490     -0.2457
    132  OE2       84.6640  -27.4770  152.4210 O.co2 490  GLU490     -0.2457
    133  N         81.4690  -41.6770  152.6590 N.3   540  SER540     -0.1217
    134  CA        81.7780  -42.9980  153.1860 C.3   540  SER540      0.1889
    135  C         80.9480  -43.2220  154.4430 C.2   540  SER540      0.2288
    136  O         80.5040  -42.2650  155.0810 O.2   540  SER540     -0.2866
    137  CB        83.2700  -43.1420  153.4840 C.3   540  SER540      0.2089
    138  OG        83.8050  -41.9440  154.0160 O.3   540  SER540     -0.2183
    139  N         78.7620  -40.0730  161.7540 N.3   544  LEU544     -0.1231
    140  CA        78.6170  -38.6300  161.6120 C.3   544  LEU544      0.1693
    141  C         77.8770  -38.2880  160.3270 C.2   544  LEU544      0.2591
    142  O         77.4920  -37.1400  160.1040 O.2   544  LEU544     -0.2718
    143  CB        79.9830  -37.9420  161.6300 C.3   544  LEU544      0.0284
    144  CG        80.6910  -37.9040  162.9820 C.3   544  LEU544      0.0019
    145  CD1       82.0130  -37.1730  162.8710 C.3   544  LEU544      0.0001
    146  CD2       79.7930  -37.2250  163.9860 C.3   544  LEU544      0.0001
    147  N         77.6760  -39.2970  159.4870 N.am  545  ARG545     -0.1980
    148  CA        77.0430  -39.1030  158.1890 C.3   545  ARG545      0.1597
    149  C         75.7880  -39.9520  158.0530 C.2   545  ARG545      0.2287
    150  O         75.8560  -41.1750  157.9400 O.2   545  ARG545     -0.2864
    151  CB        78.0240  -39.4280  157.0630 C.3   545  ARG545      0.0334
    152  CG        79.2140  -38.4930  157.0050 C.3   545  ARG545      0.0492
    153  CD        78.7640  -37.1000  156.6100 C.3   545  ARG545      0.2205
    154  NE        79.8030  -36.0990  156.8190 N.pl3 545  ARG545     -0.0865
    155  CZ        79.6320  -34.9940  157.5370 C.cat 545  ARG545      0.5346
    156  NH1       78.4610  -34.7510  158.1100 N.pl3 545  ARG545      0.1354
    157  NH2       80.6260  -34.1300  157.6800 N.pl3 545  ARG545      0.1354
@<TRIPOS>BOND
     1    33    32   ar
     2    33    31   ar
     3    32    30   ar
     4    31    29   ar
     5    30    29   ar
     6    12    11    1
     7    10    11   ar
     8    10     8   ar
     9    29    28    1
    10    11     9   ar
    11     8     6   ar
    12     9     7   ar
    13     6     7   ar
    14     6     5    1
    15     5     2    1
    16    28    25    1
    17    36    37    2
    18    36    35    1
    19   132   130   ar
    20   133   134    1
    21     2     1    1
    22     2     3    1
    23    25    26    1
    24    25    24    1
    25   129   130    1
    26   129   128    1
    27    34    26   am
    28    34    35    1
    29    26    27    2
    30   134   137    1
    31   134   135    1
    32    35    38    1
    33   130   131   ar
    34    24    15   am
    35    58    59    1
    36   124   125    1
    37   137   138    1
    38    38    39    1
    39    13     3   am
    40    13    14    1
    41     3     4    2
    42    91    90    2
    43   125   128    1
    44   125   126    1
    45    92    90   am
    46    22    20   ar
    47    22    23   ar
    48    20    18   ar
    49    15    14    1
    50    15    16    2
    51   135   136    2
    52    90    89    1
    53    39    40   ar
    54    39    41   ar
    55    14    17    1
    56    59    60    1
    57    59    62    1
    58    17    18    1
    59    23    21   ar
    60    18    19   ar
    61    60    61    2
    62    62    63    1
    63   126   127    2
    64    63    64    1
    65    66    64   ar
    66    64    65   ar
    67   104   103    1
    68    19    21   ar
    69    89    86    1
    70    42    43    1
    71    85    86    1
    72    86    87    1
    73   153   154    1
    74   153   152    1
    75   154   155    2
    76   152   151    1
    77   151   148    1
    78   103   101   ar
    79   103   102   ar
    80    45    44    2
    81    43    46    1
    82    43    44    1
    83    67    68    1
    84   155   157    1
    85   155   156    1
    86    49    47   am
    87    46    47    1
    88   101    99   ar
    89   150   149    2
    90   102   100   ar
    91    87    88    2
    92   149   148    1
    93   148   147    1
    94    47    48    2
    95    68    71    1
    96    68    69    1
    97    71    73    1
    98    71    72    1
    99    99    98   ar
   100   100    98   ar
   101   147   141   am
   102    69    70    2
   103   116   115    1
   104    98    97    1
   105   142   141    2
   106   141   140    1
   107   115   114   ar
   108   115   113   ar
   109   114   112   ar
   110    93    94    1
   111    97    94    1
   112    84    83   ar
   113    84    82   ar
   114   140   143    1
   115   140   139    1
   116   143   144    1
   117    94    95    1
   118    56    55    1
   119    52    53    2
   120    52    51    1
   121    54    51    1
   122    54    55    1
   123    83    81   ar
   124    82    80   ar
   125   113   111   ar
   126    50    51    1
   127   112   110   ar
   128    55    57    1
   129   145   144    1
   130   144   146    1
   131    81    79   ar
   132    74    75    1
   133    95    96    2
   134    80    79   ar
   135   111   110   ar
   136   110   109    1
   137    79    78    1
   138    76    75    1
   139    76    77    2
   140    75    78    1
   141   109   106    1
   142   105   106    1
   143   106   107    1
   144   107   117   am
   145   107   108    2
   146   117   118    1
   147   123   121    1
   148   120   119    2
   149   122   121    1
   150   121   118    1
   151   118   119    1
