@<TRIPOS>MOLECULE
tmp/4ji9B00.pdb
 197 188 0 0 0
SMALL
GASTEIGER

@<TRIPOS>ATOM
      1  N         48.4060   15.8250  -32.2380 N.3    15  GLN15      -0.1231
      2  CA        49.6840   15.4910  -31.6050 C.3    15  GLN15       0.1698
      3  C         50.5580   16.7310  -31.4490 C.2    15  GLN15       0.2592
      4  O         50.3500   17.7380  -32.1240 O.2    15  GLN15      -0.2718
      5  CB        50.4360   14.4170  -32.4110 C.3    15  GLN15       0.0381
      6  CG        50.7730   14.8320  -33.8390 C.3    15  GLN15       0.0905
      7  CD        51.6800   13.8480  -34.5560 C.2    15  GLN15       0.2608
      8  OE1       51.3070   13.2930  -35.5870 O.2    15  GLN15      -0.2717
      9  NE2       52.8770   13.6330  -34.0190 N.am   15  GLN15      -0.0878
     10  N         51.5260   16.6550  -30.5440 N.am   16  GLN16      -0.1966
     11  CA        52.5530   17.6730  -30.4410 C.3    16  GLN16       0.1733
     12  C         53.6150   17.4110  -31.5130 C.2    16  GLN16       0.2616
     13  O         54.0300   16.2640  -31.7250 O.2    16  GLN16      -0.2715
     14  CB        53.1680   17.6870  -29.0360 C.3    16  GLN16       0.0408
     15  CG        54.3110   18.6820  -28.8780 C.3    16  GLN16       0.0908
     16  CD        54.6230   19.0100  -27.4290 C.2    16  GLN16       0.2608
     17  OE1       53.7910   19.5730  -26.7130 O.2    16  GLN16      -0.2717
     18  NE2       55.8390   18.6840  -26.9960 N.am   16  GLN16      -0.0878
     19  N         54.0360   18.4760  -32.1950 N.am   17  LEU17      -0.1963
     20  CA        55.0250   18.3610  -33.2710 C.3    17  LEU17       0.1728
     21  C         56.4320   18.7190  -32.8100 C.2    17  LEU17       0.2617
     22  O         57.4180   18.1590  -33.3030 O.2    17  LEU17      -0.2715
     23  CB        54.6190   19.2000  -34.4750 C.3    17  LEU17       0.0311
     24  CG        53.3470   18.7970  -35.2180 C.3    17  LEU17       0.0022
     25  CD1       52.9570   19.8930  -36.2090 C.3    17  LEU17       0.0001
     26  CD2       53.5030   17.4450  -35.9190 C.3    17  LEU17       0.0001
     27  N         56.5270   19.6320  -31.8490 N.am   18  GLY18      -0.1940
     28  CA        57.8250   20.0090  -31.2970 C.3    18  GLY18       0.2014
     29  C         57.7150   20.8850  -30.0720 C.2    18  GLY18       0.2639
     30  O         56.6800   21.5000  -29.8210 O.2    18  GLY18      -0.2714
     31  N         58.7980   20.9310  -29.3110 N.am   19  LYS19      -0.1963
     32  CA        58.8820   21.7420  -28.1150 C.3    19  LYS19       0.1728
     33  C         60.2370   22.4160  -28.1290 C.2    19  LYS19       0.2616
     34  O         61.2500   21.7780  -28.4240 O.2    19  LYS19      -0.2715
     35  CB        58.7540   20.8670  -26.8680 C.3    19  LYS19       0.0311
     36  CG        58.1590   21.5700  -25.6550 C.3    19  LYS19       0.0038
     37  CD        57.9050   20.5670  -24.5330 C.3    19  LYS19       0.0206
     38  CE        56.6540   20.9260  -23.7280 C.3    19  LYS19       0.1093
     39  NZ        56.2320   19.8130  -22.8220 N.3    19  LYS19      -0.1314
     40  N         60.2520   23.7050  -27.8190 N.am   20  GLY20      -0.1955
     41  CA        61.4900   24.4690  -27.7720 C.3    20  GLY20       0.1869
     42  C         61.8190   24.8460  -26.3490 C.2    20  GLY20       0.2309
     43  O         61.3640   24.1940  -25.4050 O.2    20  GLY20      -0.2863
     44  N         58.4710   27.5010  -25.9760 N.3    23  GLY23      -0.1225
     45  CA        57.2830   27.3490  -26.8120 C.3    23  GLY23       0.1811
     46  C         57.1740   25.9720  -27.4390 C.2    23  GLY23       0.2280
     47  O         58.0800   25.1490  -27.3090 O.2    23  GLY23      -0.2866
     48  N         54.8660   23.5970  -30.8080 N.3    25  VAL25      -0.1245
     49  CA        53.9790   23.5820  -31.9720 C.3    25  VAL25       0.1561
     50  C         53.1370   22.3020  -31.9610 C.2    25  VAL25       0.2260
     51  O         53.6670   21.1970  -31.7950 O.2    25  VAL25      -0.2867
     52  CB        54.7770   23.7000  -33.3040 C.3    25  VAL25       0.0252
     53  CG1       53.8650   23.4780  -34.5190 C.3    25  VAL25       0.0019
     54  CG2       55.4830   25.0480  -33.3910 C.3    25  VAL25       0.0019
     55  N         49.1050   23.8100  -38.2510 N.3    42  ALA42      -0.1245
     56  CA        50.0830   23.8600  -37.1720 C.3    42  ALA42       0.1562
     57  C         49.6960   24.9940  -36.2210 C.2    42  ALA42       0.2260
     58  O         49.3060   26.0850  -36.6590 O.2    42  ALA42      -0.2867
     59  CB        51.4850   24.0610  -37.7160 C.3    42  ALA42       0.0290
     60  N         51.0040   27.0900  -32.8020 N.3    44  LYS44      -0.1245
     61  CA        52.1270   27.4150  -31.9340 C.3    44  LYS44       0.1561
     62  C         51.6330   28.1550  -30.7050 C.2    44  LYS44       0.2260
     63  O         50.7600   29.0190  -30.8050 O.2    44  LYS44      -0.2867
     64  CB        53.1650   28.2540  -32.6890 C.3    44  LYS44       0.0271
     65  CG        54.3480   28.6990  -31.8500 C.3    44  LYS44       0.0035
     66  CD        55.5190   29.1860  -32.7010 C.3    44  LYS44       0.0206
     67  CE        56.7380   29.4560  -31.8180 C.3    44  LYS44       0.1093
     68  NZ        57.8870   30.0210  -32.5690 N.3    44  LYS44      -0.1314
     69  N         56.8510   29.3470  -44.5040 N.3    73  VAL73      -0.1245
     70  CA        55.6270   28.7300  -43.9870 C.3    73  VAL73       0.1561
     71  C         54.5080   29.7830  -43.8820 C.2    73  VAL73       0.2260
     72  O         54.7520   30.9110  -43.4570 O.2    73  VAL73      -0.2867
     73  CB        55.9000   27.9980  -42.6480 C.3    73  VAL73       0.0252
     74  CG1       56.1940   28.9800  -41.5150 C.3    73  VAL73       0.0019
     75  CG2       54.7510   27.0750  -42.2820 C.3    73  VAL73       0.0019
     76  N         49.2930   28.3620  -38.2940 N.3    87  MET87      -0.1230
     77  CA        50.0750   28.3000  -39.5290 C.3    87  MET87       0.1702
     78  C         49.6390   27.0900  -40.3540 C.2    87  MET87       0.2592
     79  O         48.9010   26.2410  -39.8580 O.2    87  MET87      -0.2718
     80  CB        51.5610   28.1600  -39.1970 C.3    87  MET87       0.0401
     81  CG        52.1790   29.3840  -38.5520 C.3    87  MET87       0.0596
     82  SD        53.8360   29.0590  -37.9410 S.3    87  MET87      -0.1393
     83  CE        53.4730   28.1220  -36.4470 C.3    87  MET87       0.0692
     84  N         50.0900   27.0080  -41.6050 N.am   88  GLU88      -0.1966
     85  CA        49.8280   25.8140  -42.4260 C.3    88  GLU88       0.1733
     86  C         50.5790   24.6100  -41.8700 C.2    88  GLU88       0.2616
     87  O         51.6210   24.7600  -41.2270 O.2    88  GLU88      -0.2715
     88  CB        50.2090   26.0390  -43.8940 C.3    88  GLU88       0.0429
     89  CG        51.6980   26.2570  -44.1410 C.3    88  GLU88       0.1163
     90  CD        52.0590   26.3510  -45.6090 C.2    88  GLU88       0.3649
     91  OE1       53.0910   26.9830  -45.9190 O.co2  88  GLU88      -0.2457
     92  OE2       51.3250   25.7970  -46.4540 O.co2  88  GLU88      -0.2457
     93  N         50.0400   23.4190  -42.1070 N.am   89  TYR89      -0.1960
     94  CA        50.7110   22.1910  -41.7060 C.3    89  TYR89       0.1771
     95  C         51.4940   21.6210  -42.8870 C.2    89  TYR89       0.2619
     96  O         50.9300   21.3770  -43.9600 O.2    89  TYR89      -0.2715
     97  CB        49.7050   21.1630  -41.1750 C.3    89  TYR89       0.0574
     98  CG        50.3390   19.8410  -40.8310 C.ar   89  TYR89      -0.0198
     99  CD1       51.2020   19.7280  -39.7440 C.ar   89  TYR89      -0.0009
    100  CD2       50.1000   18.7040  -41.6050 C.ar   89  TYR89      -0.0009
    101  CE1       51.8100   18.5190  -39.4340 C.ar   89  TYR89       0.0417
    102  CE2       50.7000   17.4880  -41.2980 C.ar   89  TYR89       0.0417
    103  CZ        51.5560   17.4020  -40.2140 C.ar   89  TYR89       0.1957
    104  OH        52.1650   16.2050  -39.8970 O.3    89  TYR89      -0.2866
    105  N         52.7960   21.4320  -42.6850 N.am   90  LEU90      -0.1964
    106  CA        53.6630   20.8160  -43.6880 C.3    90  LEU90       0.1713
    107  C         53.9790   19.3750  -43.2860 C.2    90  LEU90       0.2458
    108  O         54.6560   19.1460  -42.2790 O.2    90  LEU90      -0.2730
    109  CB        54.9440   21.6370  -43.8910 C.3    90  LEU90       0.0310
    110  CG        54.7620   23.1080  -44.2990 C.3    90  LEU90       0.0022
    111  CD1       56.1070   23.7780  -44.5250 C.3    90  LEU90       0.0001
    112  CD2       53.8810   23.2540  -45.5350 C.3    90  LEU90       0.0001
    113  N         53.5180   18.4000  -44.0940 N.am   91  PRO91      -0.2716
    114  CA        53.3750   17.0220  -43.6210 C.3    91  PRO91       0.1536
    115  C         54.6640   16.2280  -43.4800 C.2    91  PRO91       0.2599
    116  O         54.6660   15.1960  -42.8080 O.2    91  PRO91      -0.2715
    117  CB        52.4550   16.3670  -44.6760 C.3    91  PRO91       0.0310
    118  CG        52.2410   17.3890  -45.7570 C.3    91  PRO91       0.0237
    119  CD        53.2250   18.5090  -45.5340 C.3    91  PRO91       0.0939
    120  N         55.7560   16.6940  -44.0710 N.am   92  TYR92      -0.1960
    121  CA        56.9770   15.8910  -44.0520 C.3    92  TYR92       0.1771
    122  C         57.9970   16.2760  -42.9840 C.2    92  TYR92       0.2620
    123  O         59.0900   15.7020  -42.9210 O.2    92  TYR92      -0.2715
    124  CB        57.5890   15.8050  -45.4550 C.3    92  TYR92       0.0574
    125  CG        56.6750   15.0740  -46.4060 C.ar   92  TYR92      -0.0198
    126  CD1       55.8470   15.7740  -47.2740 C.ar   92  TYR92      -0.0009
    127  CD2       56.5990   13.6790  -46.4000 C.ar   92  TYR92      -0.0009
    128  CE1       54.9920   15.1110  -48.1360 C.ar   92  TYR92       0.0417
    129  CE2       55.7450   13.0050  -47.2580 C.ar   92  TYR92       0.0417
    130  CZ        54.9460   13.7280  -48.1230 C.ar   92  TYR92       0.1957
    131  OH        54.0930   13.0750  -48.9820 O.3    92  TYR92      -0.2866
    132  N         57.6280   17.2290  -42.1310 N.am   93  GLY93      -0.1940
    133  CA        58.4640   17.6010  -40.9850 C.3    93  GLY93       0.2014
    134  C         59.7300   18.3460  -41.3500 C.2    93  GLY93       0.2639
    135  O         59.8300   18.9200  -42.4320 O.2    93  GLY93      -0.2714
    136  N         60.7020   18.3140  -40.4440 N.am   94  SER94      -0.1949
    137  CA        61.9430   19.0580  -40.5990 C.3    94  SER94       0.1924
    138  C         62.8540   18.4630  -41.6580 C.2    94  SER94       0.2314
    139  O         62.9250   17.2370  -41.8230 O.2    94  SER94      -0.2863
    140  CB        62.6910   19.1160  -39.2690 C.3    94  SER94       0.2116
    141  OG        63.1370   17.8260  -38.8960 O.3    94  SER94      -0.2180
    142  N         65.1730   15.7150  -40.2390 N.3    97  ASP97      -0.1239
    143  CA        64.6630   14.3420  -40.1730 C.3    97  ASP97       0.1674
    144  C         64.5290   13.7240  -41.5620 C.2    97  ASP97       0.2266
    145  O         64.8350   12.5440  -41.7670 O.2    97  ASP97      -0.2867
    146  CB        63.3220   14.2910  -39.4300 C.3    97  ASP97       0.1410
    147  CG        63.4650   14.5710  -37.9360 C.2    97  ASP97       0.3668
    148  OD1       62.4770   15.0140  -37.3130 O.co2  97  ASP97      -0.2456
    149  OD2       64.5640   14.3500  -37.3790 O.co2  97  ASP97      -0.2456
    150  N         66.1290   10.3420  -43.3450 N.3   101  LYS101     -0.1245
    151  CA        65.2510    9.2730  -43.8440 C.3   101  LYS101      0.1561
    152  C         65.4530    8.9660  -45.3280 C.2   101  LYS101      0.2260
    153  O         65.3280    7.8200  -45.7490 O.2   101  LYS101     -0.2867
    154  CB        63.7770    9.6250  -43.5960 C.3   101  LYS101      0.0271
    155  CG        63.3180    9.4120  -42.1600 C.3   101  LYS101      0.0035
    156  CD        62.1160   10.2750  -41.7850 C.3   101  LYS101      0.0206
    157  CE        61.9350   10.2890  -40.2700 C.3   101  LYS101      0.1093
    158  NZ        60.8830   11.2360  -39.8050 N.3   101  LYS101     -0.1314
    159  N         66.7250   21.8800  -38.6770 N.3   138  ARG138     -0.1231
    160  CA        65.6210   21.5280  -37.7660 C.3   138  ARG138      0.1694
    161  C         64.3780   22.4160  -37.9010 C.2   138  ARG138      0.2592
    162  O         63.2600   21.9510  -37.6750 O.2   138  ARG138     -0.2718
    163  CB        66.0920   21.4630  -36.3010 C.3   138  ARG138      0.0321
    164  CG        66.6890   22.7570  -35.7650 C.3   138  ARG138      0.0489
    165  CD        67.0110   22.6870  -34.2740 C.3   138  ARG138      0.2205
    166  NE        67.7790   23.8610  -33.8450 N.pl3 138  ARG138     -0.0865
    167  CZ        67.2540   25.0530  -33.5450 C.cat 138  ARG138      0.5346
    168  NH1       65.9440   25.2570  -33.6060 N.pl3 138  ARG138      0.1354
    169  NH2       68.0470   26.0510  -33.1800 N.pl3 138  ARG138      0.1354
    170  N         64.5650   23.6840  -38.2610 N.am  139  ASN139     -0.1974
    171  CA        63.4320   24.5970  -38.4460 C.3   139  ASN139      0.1688
    172  C         63.1210   24.8980  -39.9140 C.2   139  ASN139      0.2292
    173  O         62.2990   25.7620  -40.2280 O.2   139  ASN139     -0.2864
    174  CB        63.5980   25.8840  -37.6210 C.3   139  ASN139      0.1181
    175  CG        64.9360   26.5750  -37.8530 C.2   139  ASN139      0.2629
    176  OD1       65.6740   26.8140  -36.9070 O.2   139  ASN139     -0.2716
    177  ND2       65.2450   26.9080  -39.1060 N.am  139  ASN139     -0.0877
    178  N         61.4060   23.1670  -43.1020 N.3   141  LEU141     -0.1245
    179  CA        60.3440   22.1810  -43.1430 C.3   141  LEU141      0.1561
    180  C         60.0790   21.7300  -44.5620 C.2   141  LEU141      0.2260
    181  O         60.2300   22.5090  -45.4990 O.2   141  LEU141     -0.2867
    182  CB        59.0780   22.7700  -42.5240 C.3   141  LEU141      0.0270
    183  CG        59.1100   23.1570  -41.0420 C.3   141  LEU141      0.0019
    184  CD1       57.8410   23.9240  -40.7110 C.3   141  LEU141      0.0001
    185  CD2       59.2460   21.9420  -40.1320 C.3   141  LEU141      0.0001
    186  N         60.5480   27.5740  -41.4970 N.3   151  GLY151     -0.1210
    187  CA        59.3650   27.1090  -40.7700 C.3   151  GLY151      0.1956
    188  C         59.0760   27.6600  -39.3850 C.2   151  GLY151      0.2611
    189  O         58.0280   27.3650  -38.8170 O.2   151  GLY151     -0.2717
    190  N         59.9950   28.4460  -38.8350 N.am  152  ASP152     -0.1973
    191  CA        59.7710   29.0700  -37.5440 C.3   152  ASP152      0.1709
    192  C         60.4510   30.4230  -37.4810 C.2   152  ASP152      0.2293
    193  O         61.5750   30.5810  -37.9440 O.2   152  ASP152     -0.2864
    194  CB        60.2720   28.1910  -36.3970 C.3   152  ASP152      0.1436
    195  CG        59.7810   28.6810  -35.0390 C.2   152  ASP152      0.3671
    196  OD1       58.6480   28.3340  -34.6420 O.co2 152  ASP152     -0.2456
    197  OD2       60.5250   29.4240  -34.3730 O.co2 152  ASP152     -0.2456
@<TRIPOS>BOND
     1   131   130    1
     2   128   130   ar
     3   128   126   ar
     4   130   129   ar
     5   126   125   ar
     6   129   127   ar
     7    92    90   ar
     8   125   127   ar
     9   125   124    1
    10    91    90   ar
    11   118   119    1
    12   118   117    1
    13   153   152    2
    14    90    89    1
    15   112   110    1
    16   119   113    1
    17   181   180    2
    18   124   121    1
    19   152   151    1
    20   117   114    1
    21   180   179    1
    22   111   110    1
    23    69    70    1
    24   110   109    1
    25    89    88    1
    26   113   114    1
    27   113   107   am
    28   120   121    1
    29   120   115   am
    30   121   122    1
    31    70    71    1
    32    70    73    1
    33    96    95    2
    34    88    85    1
    35   109   106    1
    36    71    72    2
    37   151   154    1
    38   151   150    1
    39   106   107    1
    40   106   105    1
    41   114   115    1
    42   154   155    1
    43   115   116    2
    44   107   108    2
    45   179   178    1
    46   179   182    1
    47   122   123    2
    48   122   132   am
    49    95   105   am
    50    95    94    1
    51    73    75    1
    52    73    74    1
    53   182   183    1
    54   135   134    2
    55    85    86    1
    56    85    84    1
    57   155   156    1
    58   132   133    1
    59    93    86   am
    60    93    94    1
    61    86    87    2
    62   139   138    2
    63   156   157    1
    64   145   144    2
    65    94    97    1
    66   138   137    1
    67    84    78   am
    68   100   102   ar
    69   100    98   ar
    70   144   143    1
    71   186   187    1
    72   134   133    1
    73   134   136   am
    74   102   103   ar
    75    97    98    1
    76   183   184    1
    77   183   185    1
    78    98    99   ar
    79   187   188    1
    80   137   136    1
    81   137   140    1
    82    78    79    2
    83    78    77    1
    84   157   158    1
    85   142   143    1
    86   173   172    2
    87   103   104    1
    88   103   101   ar
    89   143   146    1
    90   172   171    1
    91    99   101   ar
    92    77    80    1
    93    77    76    1
    94   146   147    1
    95   188   190   am
    96   188   189    2
    97   140   141    1
    98    80    81    1
    99   177   175   am
   100   190   191    1
   101   159   160    1
   102    81    82    1
   103   171   170    1
   104   171   174    1
   105   170   161   am
   106    55    56    1
   107   193   192    2
   108    82    83    1
   109   147   149   ar
   110   147   148   ar
   111   161   160    1
   112   161   162    2
   113   175   174    1
   114   175   176    2
   115   160   163    1
   116    59    56    1
   117   191   192    1
   118   191   194    1
   119    56    57    1
   120    58    57    2
   121   194   195    1
   122   163   164    1
   123    25    24    1
   124    26    24    1
   125   164   165    1
   126     8     7    2
   127    24    23    1
   128   195   196   ar
   129   195   197   ar
   130     7     9   am
   131     7     6    1
   132    53    52    1
   133    23    20    1
   134   165   166    1
   135   166   167    2
   136     6     5    1
   137   168   167    1
   138   167   169    1
   139    54    52    1
   140    52    49    1
   141    22    21    2
   142    20    21    1
   143    20    19    1
   144    21    27   am
   145    60    61    1
   146    66    65    1
   147    66    67    1
   148    64    61    1
   149    64    65    1
   150    68    67    1
   151     5     2    1
   152     1     2    1
   153    19    12   am
   154     4     3    2
   155    49    50    1
   156    49    48    1
   157    50    51    2
   158    61    62    1
   159    27    28    1
   160    13    12    2
   161     2     3    1
   162    12    11    1
   163     3    10   am
   164    28    29    1
   165    63    62    2
   166    10    11    1
   167    11    14    1
   168    29    30    2
   169    29    31   am
   170    31    32    1
   171    14    15    1
   172    15    16    1
   173    34    33    2
   174    33    32    1
   175    33    40   am
   176    32    35    1
   177    40    41    1
   178    41    42    1
   179    46    47    2
   180    46    45    1
   181    16    18   am
   182    16    17    2
   183    35    36    1
   184    45    44    1
   185    42    43    2
   186    36    37    1
   187    37    38    1
   188    38    39    1
