@<TRIPOS>MOLECULE
tmp/4jiaA00.pdb
 172 165 0 0 0
SMALL
GASTEIGER

@<TRIPOS>ATOM
      1  N          6.5400  -28.7720  -29.4090 N.3    21  GLN21      -0.1231
      2  CA         6.4130  -27.4120  -28.9150 C.3    21  GLN21       0.1698
      3  C          7.7840  -26.7520  -28.8000 C.2    21  GLN21       0.2592
      4  O          8.7660  -27.4170  -28.4650 O.2    21  GLN21      -0.2718
      5  CB         5.7280  -27.4510  -27.5380 C.3    21  GLN21       0.0381
      6  CG         5.5310  -26.1200  -26.8490 C.3    21  GLN21       0.0905
      7  CD         4.4860  -25.2840  -27.5350 C.2    21  GLN21       0.2608
      8  OE1        3.2950  -25.4170  -27.2560 O.2    21  GLN21      -0.2717
      9  NE2        4.9230  -24.4160  -28.4420 N.am   21  GLN21      -0.0878
     10  N          7.8400  -25.4450  -29.0680 N.am   22  GLN22      -0.1966
     11  CA         9.0340  -24.6430  -28.7860 C.3    22  GLN22       0.1733
     12  C          8.9540  -24.1880  -27.3320 C.2    22  GLN22       0.2616
     13  O          7.9060  -23.7280  -26.8770 O.2    22  GLN22      -0.2715
     14  CB         9.1190  -23.4400  -29.7360 C.3    22  GLN22       0.0408
     15  CG        10.2720  -22.4770  -29.4830 C.3    22  GLN22       0.0908
     16  CD        11.6400  -23.0690  -29.7800 C.2    22  GLN22       0.2608
     17  OE1       11.8070  -23.8670  -30.7050 O.2    22  GLN22      -0.2717
     18  NE2       12.6310  -22.6630  -29.0010 N.am   22  GLN22      -0.0878
     19  N         10.0530  -24.3300  -26.5960 N.am   23  LEU23      -0.1963
     20  CA        10.0630  -24.0020  -25.1740 C.3    23  LEU23       0.1728
     21  C         10.7840  -22.6910  -24.8670 C.2    23  LEU23       0.2617
     22  O         10.3300  -21.9260  -24.0220 O.2    23  LEU23      -0.2715
     23  CB        10.6750  -25.1400  -24.3620 C.3    23  LEU23       0.0311
     24  CG         9.9130  -26.4740  -24.4060 C.3    23  LEU23       0.0022
     25  CD1       10.6630  -27.5000  -23.5710 C.3    23  LEU23       0.0001
     26  CD2        8.4840  -26.2970  -23.9060 C.3    23  LEU23       0.0001
     27  N         11.9000  -22.4280  -25.5310 N.am   24  GLY24      -0.1940
     28  CA        12.5910  -21.1580  -25.3270 C.3    24  GLY24       0.2014
     29  C         13.8880  -21.0380  -26.0870 C.2    24  GLY24       0.2639
     30  O         14.3400  -21.9940  -26.7060 O.2    24  GLY24      -0.2714
     31  N         14.4740  -19.8430  -26.0320 N.am   25  LYS25      -0.1963
     32  CA        15.7720  -19.5510  -26.6470 C.3    25  LYS25       0.1728
     33  C         16.6480  -18.7910  -25.6570 C.2    25  LYS25       0.2616
     34  O         16.1720  -17.8980  -24.9560 O.2    25  LYS25      -0.2715
     35  CB        15.5850  -18.7160  -27.9120 C.3    25  LYS25       0.0311
     36  CG        14.8720  -19.4540  -29.0380 C.3    25  LYS25       0.0038
     37  CD        13.9860  -18.5340  -29.8630 C.3    25  LYS25       0.0206
     38  CE        13.0360  -19.3290  -30.7500 C.3    25  LYS25       0.1093
     39  NZ        11.8500  -18.5270  -31.1650 N.3    25  LYS25      -0.1314
     40  N         17.9210  -19.1640  -25.5860 N.am   26  GLY26      -0.1955
     41  CA        18.8840  -18.4610  -24.7520 C.3    26  GLY26       0.1869
     42  C         19.8490  -17.6760  -25.6150 C.2    26  GLY26       0.2309
     43  O         19.4950  -17.2290  -26.7100 O.2    26  GLY26      -0.2863
     44  N         15.5090  -24.5690  -27.1310 N.3    31  VAL31      -0.1245
     45  CA        14.9950  -25.8350  -26.5950 C.3    31  VAL31       0.1561
     46  C         13.5810  -26.0660  -27.1000 C.2    31  VAL31       0.2260
     47  O         12.7540  -25.1490  -27.1210 O.2    31  VAL31      -0.2867
     48  CB        15.0280  -25.8700  -25.0430 C.3    31  VAL31       0.0252
     49  CG1       14.6650  -27.2560  -24.5040 C.3    31  VAL31       0.0019
     50  CG2       16.4010  -25.4580  -24.5260 C.3    31  VAL31       0.0019
     51  N         12.7770  -32.9310  -23.5120 N.3    48  ALA48      -0.1245
     52  CA        13.2510  -31.5960  -23.8680 C.3    48  ALA48       0.1562
     53  C         14.5070  -31.7730  -24.6990 C.2    48  ALA48       0.2260
     54  O         15.3300  -32.6480  -24.4030 O.2    48  ALA48      -0.2867
     55  CB        13.5380  -30.7770  -22.6160 C.3    48  ALA48       0.0290
     56  N         18.1700  -31.2670  -13.2820 N.3    79  VAL79      -0.1245
     57  CA        17.5150  -31.7240  -14.5230 C.3    79  VAL79       0.1561
     58  C         18.2110  -32.9760  -15.1010 C.2    79  VAL79       0.2260
     59  O         19.4340  -33.0440  -15.2060 O.2    79  VAL79      -0.2867
     60  CB        17.3780  -30.5950  -15.5860 C.3    79  VAL79       0.0252
     61  CG1       18.7240  -30.0430  -15.9860 C.3    79  VAL79       0.0019
     62  CG2       16.6440  -31.1060  -16.8260 C.3    79  VAL79       0.0019
     63  N         16.9100  -34.3120  -22.7750 N.3    97  MET97      -0.1230
     64  CA        16.6870  -34.1990  -21.3320 C.3    97  MET97       0.1702
     65  C         15.2390  -34.5130  -20.9770 C.2    97  MET97       0.2592
     66  O         14.3600  -34.5120  -21.8390 O.2    97  MET97      -0.2718
     67  CB        17.0020  -32.7780  -20.8560 C.3    97  MET97       0.0401
     68  CG        18.4430  -32.3530  -21.0560 C.3    97  MET97       0.0596
     69  SD        18.6620  -30.5680  -20.9000 S.3    97  MET97      -0.1393
     70  CE        17.8280  -29.9920  -22.3740 C.3    97  MET97       0.0692
     71  N         14.9890  -34.7750  -19.7010 N.am   98  GLU98      -0.1966
     72  CA        13.6220  -34.8870  -19.2130 C.3    98  GLU98       0.1733
     73  C         12.8780  -33.5700  -19.4310 C.2    98  GLU98       0.2616
     74  O         13.4820  -32.5010  -19.3800 O.2    98  GLU98      -0.2715
     75  CB        13.5830  -35.2620  -17.7250 C.3    98  GLU98       0.0429
     76  CG        14.0020  -34.1590  -16.7660 C.3    98  GLU98       0.1163
     77  CD        13.8040  -34.5410  -15.3070 C.2    98  GLU98       0.3649
     78  OE1       14.6350  -34.1300  -14.4760 O.co2  98  GLU98      -0.2457
     79  OE2       12.8290  -35.2550  -14.9940 O.co2  98  GLU98      -0.2457
     80  N         11.5700  -33.6590  -19.6660 N.am   99  TYR99      -0.1960
     81  CA        10.7210  -32.4780  -19.7930 C.3    99  TYR99       0.1771
     82  C         10.0480  -32.1490  -18.4480 C.2    99  TYR99       0.2619
     83  O          9.4240  -33.0050  -17.8210 O.2    99  TYR99      -0.2715
     84  CB         9.6760  -32.6780  -20.9060 C.3    99  TYR99       0.0574
     85  CG         8.6440  -31.5870  -20.9410 C.ar   99  TYR99      -0.0198
     86  CD1        8.9680  -30.3190  -21.4000 C.ar   99  TYR99      -0.0009
     87  CD2        7.3530  -31.8080  -20.4750 C.ar   99  TYR99      -0.0009
     88  CE1        8.0240  -29.2990  -21.4260 C.ar   99  TYR99       0.0417
     89  CE2        6.4080  -30.7970  -20.4860 C.ar   99  TYR99       0.0417
     90  CZ         6.7500  -29.5410  -20.9510 C.ar   99  TYR99       0.1957
     91  OH         5.8060  -28.5260  -20.9560 O.3    99  TYR99      -0.2866
     92  N         10.1750  -30.8980  -18.0170 N.am  100  LEU100     -0.1964
     93  CA         9.5820  -30.4430  -16.7640 C.3   100  LEU100      0.1713
     94  C          8.3780  -29.5390  -17.0570 C.2   100  LEU100      0.2458
     95  O          8.5530  -28.4120  -17.4960 O.2   100  LEU100     -0.2730
     96  CB        10.6410  -29.7360  -15.9160 C.3   100  LEU100      0.0310
     97  CG        11.8290  -30.6860  -15.6960 C.3   100  LEU100      0.0022
     98  CD1       13.1440  -29.9610  -15.4570 C.3   100  LEU100      0.0001
     99  CD2       11.5050  -31.6640  -14.5750 C.3   100  LEU100      0.0001
    100  N          7.1470  -30.0450  -16.8180 N.am  101  PRO101     -0.2716
    101  CA         5.9200  -29.3970  -17.2960 C.3   101  PRO101      0.1536
    102  C          5.6810  -27.9470  -16.8800 C.2   101  PRO101      0.2599
    103  O          5.0170  -27.2290  -17.6050 O.2   101  PRO101     -0.2715
    104  CB         4.8010  -30.2870  -16.7330 C.3   101  PRO101      0.0310
    105  CG         5.4300  -31.6100  -16.5530 C.3   101  PRO101      0.0237
    106  CD         6.8540  -31.3330  -16.1660 C.3   101  PRO101      0.0939
    107  N          6.2040  -27.5050  -15.7420 N.am  102  TYR102     -0.1960
    108  CA         5.8470  -26.1730  -15.2440 C.3   102  TYR102      0.1771
    109  C          6.8610  -25.0820  -15.5970 C.2   102  TYR102      0.2620
    110  O          6.6890  -23.9280  -15.2150 O.2   102  TYR102     -0.2715
    111  CB         5.5200  -26.2210  -13.7460 C.3   102  TYR102      0.0574
    112  CG         4.2210  -26.9530  -13.5020 C.ar  102  TYR102     -0.0198
    113  CD1        4.2080  -28.3000  -13.1670 C.ar  102  TYR102     -0.0009
    114  CD2        2.9990  -26.3150  -13.6870 C.ar  102  TYR102     -0.0009
    115  CE1        3.0160  -28.9800  -12.9800 C.ar  102  TYR102      0.0417
    116  CE2        1.8050  -26.9860  -13.4950 C.ar  102  TYR102      0.0417
    117  CZ         1.8170  -28.3140  -13.1460 C.ar  102  TYR102      0.1957
    118  OH         0.6230  -28.9730  -12.9550 O.3   102  TYR102     -0.2866
    119  N          7.8870  -25.4360  -16.3610 N.am  103  GLY103     -0.1940
    120  CA         8.8090  -24.4370  -16.8960 C.3   103  GLY103      0.2014
    121  C          9.6650  -23.8150  -15.8170 C.2   103  GLY103      0.2639
    122  O          9.9580  -24.4570  -14.8240 O.2   103  GLY103     -0.2714
    123  N         10.0840  -22.5670  -16.0100 N.am  104  SER104     -0.1949
    124  CA        11.0290  -21.9620  -15.0690 C.3   104  SER104      0.1924
    125  C         10.3390  -21.5870  -13.7640 C.2   104  SER104      0.2314
    126  O          9.1570  -21.2310  -13.7440 O.2   104  SER104     -0.2863
    127  CB        11.7100  -20.7290  -15.6690 C.3   104  SER104      0.2116
    128  OG        10.8560  -19.6030  -15.6590 O.3   104  SER104     -0.2180
    129  N          8.8430  -18.0810  -13.9640 N.3   107  ASP107     -0.1239
    130  CA         7.5120  -18.0460  -14.5840 C.3   107  ASP107      0.1674
    131  C          6.4370  -18.7020  -13.7030 C.2   107  ASP107      0.2266
    132  O          5.3490  -18.1440  -13.5410 O.2   107  ASP107     -0.2867
    133  CB         7.5350  -18.6860  -15.9760 C.3   107  ASP107      0.1410
    134  CG         8.2940  -17.8480  -17.0000 C.2   107  ASP107      0.3668
    135  OD1        8.5920  -16.6620  -16.7360 O.co2 107  ASP107     -0.2456
    136  OD2        8.5860  -18.3760  -18.0870 O.co2 107  ASP107     -0.2456
    137  N          2.9190  -16.9910  -12.3970 N.3   111  LYS111     -0.1245
    138  CA         1.6330  -17.4610  -12.9510 C.3   111  LYS111      0.1561
    139  C          0.8050  -18.4050  -12.0590 C.2   111  LYS111      0.2260
    140  O         -0.3820  -18.6140  -12.3240 O.2   111  LYS111     -0.2867
    141  CB         1.8730  -18.1340  -14.3010 C.3   111  LYS111      0.0271
    142  CG         2.2270  -17.1450  -15.4040 C.3   111  LYS111      0.0035
    143  CD         2.7720  -17.8450  -16.6380 C.3   111  LYS111      0.0206
    144  CE         3.4220  -16.8560  -17.5920 C.3   111  LYS111      0.1093
    145  NZ         4.1080  -17.5470  -18.7170 N.3   111  LYS111     -0.1314
    146  N         15.0300  -17.9060  -12.9950 N.3   148  ARG148     -0.1245
    147  CA        14.8000  -18.2180  -14.4090 C.3   148  ARG148      0.1563
    148  C         15.5460  -19.4910  -14.8560 C.2   148  ARG148      0.2260
    149  O         15.1970  -20.0720  -15.8740 O.2   148  ARG148     -0.2867
    150  CB        15.1990  -17.0330  -15.3070 C.3   148  ARG148      0.0307
    151  CG        16.6880  -16.7560  -15.3280 C.3   148  ARG148      0.0489
    152  CD        17.0870  -15.4940  -16.0880 C.3   148  ARG148      0.2205
    153  NE        18.3900  -15.0510  -15.5740 N.pl3 148  ARG148     -0.0865
    154  CZ        18.5680  -14.1540  -14.6010 C.cat 148  ARG148      0.5346
    155  NH1       17.5190  -13.5420  -14.0610 N.pl3 148  ARG148      0.1354
    156  NH2       19.8060  -13.8570  -14.1780 N.pl3 148  ARG148      0.1354
    157  N         14.0050  -25.1020  -12.7660 N.3   151  LEU151     -0.1245
    158  CA        12.8520  -25.6350  -13.4730 C.3   151  LEU151      0.1561
    159  C         11.9570  -26.3850  -12.4960 C.2   151  LEU151      0.2260
    160  O         12.4150  -26.8760  -11.4620 O.2   151  LEU151     -0.2867
    161  CB        13.2870  -26.5390  -14.6290 C.3   151  LEU151      0.0270
    162  CG        14.0530  -25.8680  -15.7870 C.3   151  LEU151      0.0019
    163  CD1       14.8340  -26.8960  -16.5850 C.3   151  LEU151      0.0001
    164  CD2       13.1260  -25.0970  -16.7020 C.3   151  LEU151      0.0001
    165  N         20.5240  -25.2110  -16.6310 N.3   162  ASP162     -0.1239
    166  CA        21.3900  -24.1400  -17.1440 C.3   162  ASP162      0.1674
    167  C         22.8530  -24.3430  -16.7540 C.2   162  ASP162      0.2266
    168  O         23.4410  -23.5260  -16.0450 O.2   162  ASP162     -0.2867
    169  CB        20.8270  -22.7770  -16.6650 C.3   162  ASP162      0.1410
    170  CG        21.6670  -21.5900  -17.0630 C.2   162  ASP162      0.3668
    171  OD1       22.0760  -21.4850  -18.2340 O.co2 162  ASP162     -0.2456
    172  OD2       21.8800  -20.7280  -16.1730 O.co2 162  ASP162     -0.2456
@<TRIPOS>BOND
     1    39    38    1
     2    38    37    1
     3    17    16    2
     4    37    36    1
     5    16    15    1
     6    16    18   am
     7    14    15    1
     8    14    11    1
     9     1     2    1
    10    10     3   am
    11    10    11    1
    12    36    35    1
    13     2     3    1
    14     2     5    1
    15     3     4    2
    16    11    12    1
    17     9     7   am
    18    35    32    1
    19     5     6    1
    20     7     8    2
    21     7     6    1
    22    12    13    2
    23    12    19   am
    24    44    45    1
    25    47    46    2
    26    46    45    1
    27    43    42    2
    28    30    29    2
    29    32    31    1
    30    32    33    1
    31    19    20    1
    32    45    48    1
    33    29    31   am
    34    29    28    1
    35    33    40   am
    36    33    34    2
    37    42    41    1
    38    40    41    1
    39    27    28    1
    40    27    21   am
    41    20    21    1
    42    20    23    1
    43    48    50    1
    44    48    49    1
    45    21    22    2
    46    53    54    2
    47    53    52    1
    48    24    23    1
    49    24    26    1
    50    24    25    1
    51    52    51    1
    52    52    55    1
    53    63    64    1
    54    70    69    1
    55    66    65    2
    56    88    86   ar
    57    88    90   ar
    58    86    85   ar
    59    64    65    1
    60    64    67    1
    61    68    69    1
    62    68    67    1
    63    65    71   am
    64    91    90    1
    65    90    89   ar
    66    85    84    1
    67    85    87   ar
    68    84    81    1
    69    89    87   ar
    70    81    80    1
    71    81    82    1
    72    71    72    1
    73    80    73   am
    74    73    74    2
    75    73    72    1
    76    72    75    1
    77   145   144    1
    78    82    92   am
    79    82    83    2
    80   171   170   ar
    81   136   134   ar
    82    92    93    1
    83    75    76    1
    84   103   102    2
    85   144   143    1
    86    95    94    2
    87   101   102    1
    88   101   100    1
    89   101   104    1
    90   166   167    1
    91   166   169    1
    92   166   165    1
    93   170   169    1
    94   170   172   ar
    95    94   100   am
    96    94    93    1
    97   134   135   ar
    98   134   133    1
    99   120   119    1
   100   120   121    1
   101   102   107   am
   102    62    60    1
   103   100   106    1
   104    76    77    1
   105    93    96    1
   106   167   168    2
   107   104   105    1
   108   164   162    1
   109   143   142    1
   110   163   162    1
   111   105   106    1
   112   119   109   am
   113   152   153    1
   114   152   151    1
   115   123   121   am
   116   123   124    1
   117    61    60    1
   118   133   130    1
   119    96    97    1
   120   149   148    2
   121   121   122    2
   122   162   161    1
   123   107   108    1
   124    97    98    1
   125    97    99    1
   126   127   128    1
   127   127   124    1
   128   109   108    1
   129   109   110    2
   130    60    57    1
   131   153   154    2
   132   142   141    1
   133   151   150    1
   134   150   147    1
   135    77    79   ar
   136    77    78   ar
   137   108   111    1
   138    59    58    2
   139    58    57    1
   140   124   125    1
   141   148   147    1
   142   161   158    1
   143   154   156    1
   144   154   155    1
   145   130   129    1
   146   130   131    1
   147    57    56    1
   148   147   146    1
   149   141   138    1
   150   125   126    2
   151   111   112    1
   152   131   132    2
   153   114   112   ar
   154   114   116   ar
   155   112   113   ar
   156   116   117   ar
   157   158   157    1
   158   158   159    1
   159   113   115   ar
   160   117   115   ar
   161   117   118    1
   162   138   137    1
   163   138   139    1
   164   159   160    2
   165   140   139    2
