@<TRIPOS>MOLECULE
tmp/4jibC00.pdb
 182 175 0 0 0
SMALL
GASTEIGER

@<TRIPOS>ATOM
      1  N         36.9900   44.6060   41.1050 N.3    66  TYR66      -0.1227
      2  CA        38.1200   43.6610   41.0980 C.3    66  TYR66       0.1736
      3  C         38.9100   43.6410   39.7970 C.2    66  TYR66       0.2595
      4  O         40.1390   43.7160   39.8320 O.2    66  TYR66      -0.2718
      5  CB        37.6750   42.2230   41.4250 C.3    66  TYR66       0.0548
      6  CG        38.8650   41.2690   41.5110 C.ar   66  TYR66      -0.0200
      7  CD1       39.6910   41.2290   42.6400 C.ar   66  TYR66      -0.0009
      8  CD2       39.1490   40.4010   40.4450 C.ar   66  TYR66      -0.0009
      9  CE1       40.7930   40.3630   42.6900 C.ar   66  TYR66       0.0417
     10  CE2       40.2320   39.5330   40.4900 C.ar   66  TYR66       0.0417
     11  CZ        41.0370   39.5050   41.5980 C.ar   66  TYR66       0.1957
     12  OH        42.1080   38.6180   41.6390 O.3    66  TYR66      -0.2866
     13  N         38.2180   43.4530   38.6660 N.am   67  HIS67      -0.1975
     14  CA        38.9210   43.2170   37.3850 C.3    67  HIS67       0.1656
     15  C         39.3810   44.5070   36.6970 C.2    67  HIS67       0.2291
     16  O         38.9390   44.8450   35.5840 O.2    67  HIS67      -0.2864
     17  CB        38.0620   42.3500   36.4680 C.3    67  HIS67       0.0771
     18  CG        38.0420   40.9030   36.8680 C.ar   67  HIS67       0.0820
     19  ND1       36.9810   40.3170   37.5290 N.ar   67  HIS67      -0.2267
     20  CD2       38.9770   39.9330   36.7170 C.ar   67  HIS67       0.1154
     21  CE1       37.2610   39.0400   37.7530 C.ar   67  HIS67       0.1986
     22  NE2       38.4740   38.7870   37.2810 N.ar   67  HIS67      -0.2212
     23  N         43.5700   31.3910   31.3570 N.3   179  THR179     -0.1218
     24  CA        43.0120   32.1310   32.4790 C.3   179  THR179      0.1862
     25  C         41.5010   31.9380   32.6310 C.2   179  THR179      0.2287
     26  O         40.9210   32.3090   33.6610 O.2   179  THR179     -0.2866
     27  CB        43.3100   33.6630   32.3950 C.3   179  THR179      0.1770
     28  OG1       42.5710   34.2110   31.3190 O.3   179  THR179     -0.2211
     29  CG2       44.7910   33.9440   32.2300 C.3   179  THR179      0.0375
     30  N         38.8260   29.9810   34.0780 N.3   181  LEU181     -0.1245
     31  CA        38.7800   28.9570   35.1170 C.3   181  LEU181      0.1561
     32  C         38.2760   27.6020   34.5800 C.2   181  LEU181      0.2260
     33  O         38.7430   26.5570   35.0210 O.2   181  LEU181     -0.2867
     34  CB        37.8900   29.4090   36.2740 C.3   181  LEU181      0.0270
     35  CG        37.9040   28.4230   37.4460 C.3   181  LEU181      0.0019
     36  CD1       39.2480   28.3500   38.1670 C.3   181  LEU181      0.0001
     37  CD2       36.7490   28.8390   38.3970 C.3   181  LEU181      0.0001
     38  N         47.1120   34.5010   38.7500 N.3   219  ASP219     -0.1225
     39  CA        45.7470   35.0800   38.7530 C.3   219  ASP219      0.1805
     40  C         45.1100   35.0660   40.1550 C.2   219  ASP219      0.2597
     41  O         44.2890   35.9610   40.4960 O.2   219  ASP219     -0.2718
     42  CB        44.8430   34.3400   37.7300 C.3   219  ASP219      0.1424
     43  CG        43.7870   35.2410   37.0570 C.2   219  ASP219      0.3668
     44  OD1       43.6660   36.4610   37.3280 O.co2 219  ASP219     -0.2456
     45  OD2       43.0580   34.6890   36.1940 O.co2 219  ASP219     -0.2456
     46  N         45.4830   34.0700   40.9740 N.am  220  LEU220     -0.1979
     47  CA        44.8910   33.8930   42.3010 C.3   220  LEU220      0.1596
     48  C         45.8200   34.3250   43.4330 C.2   220  LEU220      0.2287
     49  O         45.5220   34.1120   44.5980 O.2   220  LEU220     -0.2864
     50  CB        44.4980   32.4180   42.5380 C.3   220  LEU220      0.0297
     51  CG        43.5120   31.8040   41.5500 C.3   220  LEU220      0.0022
     52  CD1       43.0410   30.4350   42.0780 C.3   220  LEU220      0.0001
     53  CD2       42.3420   32.7420   41.3090 C.3   220  LEU220      0.0001
     54  N         46.5260   36.8570   45.0750 N.3   222  ASP222     -0.1225
     55  CA        46.0370   37.6390   46.2350 C.3   222  ASP222      0.1805
     56  C         45.8270   36.7210   47.4380 C.2   222  ASP222      0.2597
     57  O         45.9200   37.1550   48.5890 O.2   222  ASP222     -0.2718
     58  CB        44.7280   38.3580   45.9120 C.3   222  ASP222      0.1424
     59  CG        44.9160   39.5310   44.9630 C.2   222  ASP222      0.3668
     60  OD1       45.8120   40.3730   45.2200 O.co2 222  ASP222     -0.2456
     61  OD2       44.1300   39.6410   43.9900 O.co2 222  ASP222     -0.2456
     62  N         45.5750   35.4320   47.1960 N.am  223  GLN223     -0.1979
     63  CA        45.3470   34.4960   48.2950 C.3   223  GLN223      0.1601
     64  C         46.6220   34.0930   49.0580 C.2   223  GLN223      0.2287
     65  O         46.5450   33.4780   50.1140 O.2   223  GLN223     -0.2864
     66  CB        44.6220   33.2330   47.7910 C.3   223  GLN223      0.0394
     67  CG        43.2930   33.5360   47.1140 C.3   223  GLN223      0.0908
     68  CD        42.3480   34.3680   47.9970 C.2   223  GLN223      0.2608
     69  OE1       42.1770   34.0870   49.1890 O.2   223  GLN223     -0.2717
     70  NE2       41.7290   35.3750   47.4070 N.am  223  GLN223     -0.0878
     71  N         40.1220   41.4350   49.0670 N.3   233  ILE233     -0.1231
     72  CA        39.7730   40.8510   47.7460 C.3   233  ILE233      0.1692
     73  C         38.4100   40.1900   47.7680 C.2   233  ILE233      0.2591
     74  O         37.6870   40.2740   46.7850 O.2   233  ILE233     -0.2718
     75  CB        40.8160   39.8180   47.2710 C.3   233  ILE233      0.0266
     76  CG1       42.1080   40.4950   46.8900 C.3   233  ILE233      0.0019
     77  CG2       40.2970   38.9790   46.0990 C.3   233  ILE233      0.0020
     78  CD1       41.9660   41.5420   45.8800 C.3   233  ILE233      0.0001
     79  N         38.0610   39.5350   48.8770 N.am  234  ALA234     -0.1980
     80  CA        36.7290   38.9360   49.0180 C.3   234  ALA234      0.1597
     81  C         35.6460   40.0010   48.8620 C.2   234  ALA234      0.2287
     82  O         34.6480   39.8170   48.1670 O.2   234  ALA234     -0.2864
     83  CB        36.6030   38.2210   50.3370 C.3   234  ALA234      0.0319
     84  N         35.5610   41.0070   45.0450 N.3   237  ILE237     -0.1231
     85  CA        35.0010   39.8530   44.2770 C.3   237  ILE237      0.1692
     86  C         33.5000   39.7430   44.5030 C.2   237  ILE237      0.2592
     87  O         32.7200   39.6310   43.5480 O.2   237  ILE237     -0.2718
     88  CB        35.7000   38.5290   44.6970 C.3   237  ILE237      0.0266
     89  CG1       37.1130   38.4310   44.0920 C.3   237  ILE237      0.0019
     90  CG2       34.8240   37.2640   44.3860 C.3   237  ILE237      0.0020
     91  CD1       37.1540   38.2050   42.5650 C.3   237  ILE237      0.0001
     92  N         33.0770   39.7840   45.7680 N.am  238  TYR238     -0.1976
     93  CA        31.6500   39.6530   46.0200 C.3   238  TYR238      0.1639
     94  C         30.8390   40.8810   45.5850 C.2   238  TYR238      0.2290
     95  O         29.7040   40.7510   45.1270 O.2   238  TYR238     -0.2864
     96  CB        31.3490   39.1210   47.4190 C.3   238  TYR238      0.0560
     97  CG        31.7220   37.6520   47.4780 C.ar  238  TYR238     -0.0198
     98  CD1       30.9590   36.6990   46.7920 C.ar  238  TYR238     -0.0009
     99  CD2       32.8770   37.2330   48.1260 C.ar  238  TYR238     -0.0009
    100  CE1       31.3310   35.3320   46.8010 C.ar  238  TYR238      0.0417
    101  CE2       33.2550   35.8870   48.1440 C.ar  238  TYR238      0.0417
    102  CZ        32.4730   34.9530   47.4880 C.ar  238  TYR238      0.1957
    103  OH        32.8720   33.6480   47.5090 O.3   238  TYR238     -0.2866
    104  N         30.3760   40.0150   41.9120 N.3   241  PHE241     -0.1241
    105  CA        29.4560   38.8890   41.7710 C.3   241  PHE241      0.1605
    106  C         28.0330   39.3690   42.0530 C.2   241  PHE241      0.2264
    107  O         27.1030   39.0380   41.3260 O.2   241  PHE241     -0.2867
    108  CB        29.7830   37.8050   42.7830 C.3   241  PHE241      0.0534
    109  CG        30.9060   36.8710   42.3830 C.ar  241  PHE241     -0.0203
    110  CD1       31.7960   37.1890   41.3560 C.ar  241  PHE241     -0.0042
    111  CD2       31.0470   35.6540   43.0480 C.ar  241  PHE241     -0.0042
    112  CE1       32.8290   36.3000   41.0000 C.ar  241  PHE241     -0.0003
    113  CE2       32.0670   34.7680   42.7130 C.ar  241  PHE241     -0.0003
    114  CZ        32.9600   35.0930   41.6730 C.ar  241  PHE241     -0.0000
    115  N         23.1730   32.3000   40.0660 N.3   256  MET256     -0.1245
    116  CA        23.6980   31.2540   40.9240 C.3   256  MET256      0.1570
    117  C         23.7160   31.8230   42.3670 C.2   256  MET256      0.2261
    118  O         23.8130   33.0480   42.5590 O.2   256  MET256     -0.2867
    119  CB        25.0840   30.7590   40.4600 C.3   256  MET256      0.0387
    120  CG        26.2420   31.7640   40.5680 C.3   256  MET256      0.0595
    121  SD        27.6470   31.5140   39.4250 S.3   256  MET256     -0.1393
    122  CE        27.9990   29.7710   39.6340 C.3   256  MET256      0.0692
    123  N         25.9070   32.0220   44.6520 N.3   258  MET258     -0.1245
    124  CA        27.0810   32.8480   44.9540 C.3   258  MET258      0.1570
    125  C         27.0190   34.2790   44.3930 C.2   258  MET258      0.2261
    126  O         27.7820   35.1430   44.8170 O.2   258  MET258     -0.2867
    127  CB        28.3880   32.1410   44.5660 C.3   258  MET258      0.0387
    128  CG        28.7330   32.0890   43.0700 C.3   258  MET258      0.0595
    129  SD        30.3660   31.3620   42.7700 S.3   258  MET258     -0.1393
    130  CE        30.0670   29.6460   43.2610 C.3   258  MET258      0.0692
    131  N         31.1880   30.2560   51.0520 N.3   269  LEU269     -0.1231
    132  CA        31.5980   30.3580   49.6490 C.3   269  LEU269      0.1693
    133  C         33.1120   30.5970   49.5450 C.2   269  LEU269      0.2591
    134  O         33.8070   29.9630   48.7520 O.2   269  LEU269     -0.2718
    135  CB        30.8340   31.5060   48.9820 C.3   269  LEU269      0.0284
    136  CG        29.3050   31.3590   48.9450 C.3   269  LEU269      0.0019
    137  CD1       28.6520   32.6810   48.6070 C.3   269  LEU269      0.0001
    138  CD2       28.8980   30.2660   47.9640 C.3   269  LEU269      0.0001
    139  N         33.6110   31.5530   50.3250 N.am  270  GLN270     -0.1979
    140  CA        35.0540   31.8300   50.3400 C.3   270  GLN270      0.1601
    141  C         35.8540   30.6030   50.7580 C.2   270  GLN270      0.2287
    142  O         36.8760   30.2800   50.1230 O.2   270  GLN270     -0.2864
    143  CB        35.3850   33.0370   51.2450 C.3   270  GLN270      0.0394
    144  CG        36.8560   33.3270   51.3190 C.3   270  GLN270      0.0908
    145  CD        37.4080   34.0340   50.0770 C.2   270  GLN270      0.2608
    146  OE1       38.6200   34.1230   49.8890 O.2   270  GLN270     -0.2717
    147  NE2       36.5370   34.5780   49.2830 N.am  270  GLN270     -0.0878
    148  N         35.0080   27.4840   50.5060 N.3   272  SER272     -0.1202
    149  CA        34.9190   26.4440   49.4370 C.3   272  SER272      0.2020
    150  C         35.8670   26.7450   48.2820 C.2   272  SER272      0.2618
    151  O         36.5580   25.8630   47.7740 O.2   272  SER272     -0.2717
    152  CB        33.4970   26.3250   48.9120 C.3   272  SER272      0.2103
    153  OG        33.4050   25.2140   48.0170 O.3   272  SER272     -0.2182
    154  N         35.8820   28.0060   47.8610 N.am  273  PHE273     -0.1975
    155  CA        36.8440   28.4620   46.8680 C.3   273  PHE273      0.1639
    156  C         38.2820   28.1310   47.2850 C.2   273  PHE273      0.2290
    157  O         39.0570   27.5650   46.5150 O.2   273  PHE273     -0.2864
    158  CB        36.6940   29.9760   46.6390 C.3   273  PHE273      0.0560
    159  CG        37.8430   30.5670   45.8780 C.ar  273  PHE273     -0.0200
    160  CD1       38.0070   30.3110   44.5310 C.ar  273  PHE273     -0.0042
    161  CD2       38.7460   31.3990   46.5140 C.ar  273  PHE273     -0.0042
    162  CE1       39.0960   30.8630   43.8310 C.ar  273  PHE273     -0.0003
    163  CE2       39.8100   31.9430   45.8390 C.ar  273  PHE273     -0.0003
    164  CZ        39.9920   31.6750   44.5030 C.ar  273  PHE273     -0.0000
    165  N         38.8840   24.1140   47.6150 N.3   276  HIS276     -0.1226
    166  CA        38.6420   23.2610   46.4470 C.3   276  HIS276      0.1752
    167  C         39.2200   23.7530   45.1290 C.2   276  HIS276      0.2595
    168  O         39.3870   22.9590   44.1930 O.2   276  HIS276     -0.2718
    169  CB        37.1500   22.9400   46.3480 C.3   276  HIS276      0.0759
    170  CG        36.6250   22.2730   47.5840 C.ar  276  HIS276      0.0818
    171  ND1       35.5790   22.7790   48.3180 N.ar  276  HIS276     -0.2268
    172  CD2       37.0670   21.1870   48.2620 C.ar  276  HIS276      0.1154
    173  CE1       35.3500   21.9950   49.3580 C.ar  276  HIS276      0.1986
    174  NE2       36.2480   21.0270   49.3550 N.ar  276  HIS276     -0.2212
    175  N         39.5310   25.0520   45.0690 N.am  277  ILE277     -0.1980
    176  CA        40.1550   25.6720   43.8990 C.3   277  ILE277      0.1595
    177  C         41.5680   26.2180   44.1690 C.2   277  ILE277      0.2287
    178  O         42.5250   25.8150   43.5310 O.2   277  ILE277     -0.2864
    179  CB        39.2990   26.8200   43.3410 C.3   277  ILE277      0.0276
    180  CG1       37.8490   26.3510   43.0910 C.3   277  ILE277      0.0022
    181  CG2       39.9490   27.3580   42.0440 C.3   277  ILE277      0.0022
    182  CD1       37.5240   26.0890   41.6630 C.3   277  ILE277      0.0001
@<TRIPOS>BOND
     1    28    27    1
     2    23    24    1
     3    29    27    1
     4    27    24    1
     5    24    25    1
     6    25    26    2
     7    30    31    1
     8    32    33    2
     9    32    31    1
    10    31    34    1
    11    16    15    2
    12    45    43   ar
    13    34    35    1
    14    17    18    1
    15    17    14    1
    16    15    14    1
    17    20    18   ar
    18    20    22   ar
    19    18    19   ar
    20    43    44   ar
    21    43    42    1
    22    22    21   ar
    23    14    13    1
    24    35    36    1
    25    35    37    1
    26    19    21   ar
    27    42    39    1
    28    13     3   am
    29    38    39    1
    30    39    40    1
    31   121   122    1
    32   121   120    1
    33     3     4    2
    34     3     2    1
    35   115   116    1
    36    40    41    2
    37    40    46   am
    38     8    10   ar
    39     8     6   ar
    40   119   120    1
    41   119   116    1
    42    10    11   ar
    43   116   117    1
    44    46    47    1
    45   112   110   ar
    46   112   114   ar
    47     2     1    1
    48     2     5    1
    49    53    51    1
    50   107   106    2
    51   110   109   ar
    52     5     6    1
    53     6     7   ar
    54    51    52    1
    55    51    50    1
    56    11    12    1
    57    11     9   ar
    58   182   180    1
    59   114   113   ar
    60   105   104    1
    61   105   106    1
    62   105   108    1
    63   181   179    1
    64    47    50    1
    65    47    48    1
    66   117   118    2
    67   109   108    1
    68   109   111   ar
    69    91    89    1
    70     7     9   ar
    71   113   111   ar
    72   129   128    1
    73   129   130    1
    74   128   127    1
    75   180   179    1
    76   179   176    1
    77    48    49    2
    78   178   177    2
    79    87    86    2
    80   162   164   ar
    81   162   160   ar
    82   176   177    1
    83   176   175    1
    84    61    59   ar
    85    89    88    1
    86   168   167    2
    87    85    86    1
    88    85    88    1
    89    85    84    1
    90    90    88    1
    91   125   126    2
    92   125   124    1
    93    86    92   am
    94   164   163   ar
    95   160   159   ar
    96   127   124    1
    97   123   124    1
    98    59    60   ar
    99    59    58    1
   100   175   167   am
   101    54    55    1
   102    95    94    2
   103   167   166    1
   104    94    93    1
   105    92    93    1
   106   163   161   ar
   107   159   161   ar
   108   159   158    1
   109    78    76    1
   110    58    55    1
   111    93    96    1
   112    77    75    1
   113    55    56    1
   114   169   166    1
   115   169   170    1
   116   166   165    1
   117   157   156    2
   118   158   155    1
   119    74    73    2
   120    98   100   ar
   121    98    97   ar
   122   100   102   ar
   123   155   156    1
   124   155   154    1
   125    76    75    1
   126    67    66    1
   127    67    68    1
   128    62    56   am
   129    62    63    1
   130    75    72    1
   131    70    68   am
   132    96    97    1
   133    56    57    2
   134    97    99   ar
   135   102   103    1
   136   102   101   ar
   137   170   172   ar
   138   170   171   ar
   139    72    73    1
   140    72    71    1
   141    73    79   am
   142   151   150    2
   143    66    63    1
   144   154   150   am
   145   138   136    1
   146    68    69    2
   147   153   152    1
   148    99   101   ar
   149    82    81    2
   150   172   174   ar
   151   150   149    1
   152    63    64    1
   153   171   173   ar
   154   137   136    1
   155   134   133    2
   156    81    80    1
   157    79    80    1
   158   152   149    1
   159   136   135    1
   160   135   132    1
   161    80    83    1
   162    64    65    2
   163   147   145   am
   164   174   173   ar
   165   149   148    1
   166   133   132    1
   167   133   139   am
   168   132   131    1
   169   146   145    2
   170   145   144    1
   171   142   141    2
   172   139   140    1
   173   140   141    1
   174   140   143    1
   175   143   144    1
