@<TRIPOS>MOLECULE
tmp/4jicA01.pdb
 107 102 0 0 0
SMALL
GASTEIGER

@<TRIPOS>ATOM
      1  N         -4.3330   56.8310   92.5480 N.3    24  THR24      -0.1218
      2  CA        -4.2170   58.2350   92.1720 C.3    24  THR24       0.1862
      3  C         -5.3430   58.6040   91.2110 C.2    24  THR24       0.2287
      4  O         -5.5160   57.9490   90.1820 O.2    24  THR24      -0.2866
      5  CB        -2.8680   58.4750   91.4690 C.3    24  THR24       0.1770
      6  OG1       -1.7850   58.3110   92.4060 O.3    24  THR24      -0.2211
      7  CG2       -2.8050   59.8680   90.8660 C.3    24  THR24       0.0375
      8  N         -1.6890   56.8120  102.1520 N.3    96  GLN96      -0.1245
      9  CA        -0.4850   56.3390  101.4760 C.3    96  GLN96       0.1566
     10  C          0.4760   57.4990  101.3340 C.2    96  GLN96       0.2260
     11  O          0.4030   58.2790  100.3870 O.2    96  GLN96      -0.2867
     12  CB        -0.7630   55.7480  100.1020 C.3    96  GLN96       0.0367
     13  CG         0.4840   55.0380   99.5920 C.3    96  GLN96       0.0905
     14  CD         0.4030   54.6040   98.1560 C.2    96  GLN96       0.2608
     15  OE1        0.0590   55.3880   97.2750 O.2    96  GLN96      -0.2717
     16  NE2        0.7680   53.3530   97.9020 N.am   96  GLN96      -0.0878
     17  N          3.5110   59.6870  100.4700 N.3    98  TRP98      -0.1241
     18  CA         4.1870   59.5280   99.1890 C.3    98  TRP98       0.1605
     19  C          5.3120   60.5250   99.0000 C.2    98  TRP98       0.2264
     20  O          5.1990   61.6880   99.3920 O.2    98  TRP98      -0.2867
     21  CB         3.1550   59.7790   98.0980 C.3    98  TRP98       0.0550
     22  CG         3.4430   59.2870   96.7080 C.ar   98  TRP98       0.0003
     23  CD1        4.4460   58.4440   96.2810 C.ar   98  TRP98       0.0946
     24  CD2        2.6510   59.5860   95.5580 C.ar   98  TRP98       0.0152
     25  NE1        4.3190   58.2290   94.9170 N.ar   98  TRP98      -0.2442
     26  CE2        3.2310   58.9280   94.4560 C.ar   98  TRP98       0.0810
     27  CE3        1.5200   60.3850   95.3500 C.ar   98  TRP98       0.0012
     28  CZ2        2.6890   59.0160   93.1730 C.ar   98  TRP98       0.0191
     29  CZ3        0.9860   60.4740   94.0890 C.ar   98  TRP98       0.0001
     30  CH2        1.5720   59.7960   93.0100 C.ar   98  TRP98       0.0015
     31  N          4.5170   54.6430  100.9080 N.3   177  HIS177     -0.1241
     32  CA         4.6680   54.2920   99.4990 C.3   177  HIS177      0.1621
     33  C          6.1370   53.9970   99.1810 C.2   177  HIS177      0.2264
     34  O          6.9390   54.9100   99.0090 O.2   177  HIS177     -0.2867
     35  CB         4.1360   55.4180   98.6120 C.3   177  HIS177      0.0745
     36  CG         3.8390   54.9850   97.2140 C.ar  177  HIS177      0.0817
     37  ND1        4.4250   53.8770   96.6390 N.ar  177  HIS177     -0.2268
     38  CD2        3.0000   55.4970   96.2830 C.ar  177  HIS177      0.1154
     39  CE1        3.9610   53.7310   95.4070 C.ar  177  HIS177      0.1986
     40  NE2        3.1030   54.7080   95.1640 N.ar  177  HIS177     -0.2212
     41  N          6.5600   51.1030   93.0720 N.3   180  ASN180     -0.1240
     42  CA         6.2910   51.6900   91.7570 C.3   180  ASN180      0.1653
     43  C          7.2930   52.7380   91.2850 C.2   180  ASN180      0.2266
     44  O          6.9240   53.7290   90.6530 O.2   180  ASN180     -0.2867
     45  CB         4.8510   52.2160   91.6920 C.3   180  ASN180      0.1155
     46  CG         3.8360   51.1220   91.9400 C.2   180  ASN180      0.2627
     47  OD1        4.1130   49.9500   91.6820 O.2   180  ASN180     -0.2716
     48  ND2        2.6570   51.4900   92.4450 N.am  180  ASN180     -0.0877
     49  N          9.0970   54.9770   92.8160 N.3   182  TYR182     -0.1241
     50  CA         9.1550   56.3080   93.4250 C.3   182  TYR182      0.1605
     51  C         10.3750   56.4550   94.3350 C.2   182  TYR182      0.2264
     52  O         11.3020   55.6570   94.2390 O.2   182  TYR182     -0.2867
     53  CB         7.8120   56.6910   94.0770 C.3   182  TYR182      0.0534
     54  CG         6.7400   56.8370   93.0060 C.ar  182  TYR182     -0.0201
     55  CD1        6.8050   57.8740   92.0700 C.ar  182  TYR182     -0.0009
     56  CD2        5.7110   55.9120   92.8900 C.ar  182  TYR182     -0.0009
     57  CE1        5.8430   58.0010   91.0740 C.ar  182  TYR182      0.0417
     58  CE2        4.7420   56.0310   91.8900 C.ar  182  TYR182      0.0417
     59  CZ         4.8140   57.0760   90.9970 C.ar  182  TYR182      0.1957
     60  OH         3.8620   57.1860   90.0070 O.3   182  TYR182     -0.2866
     61  N          4.1670   49.6460  101.3250 N.3   229  ARG229     -0.1245
     62  CA         3.9000   48.9730  100.0570 C.3   229  ARG229      0.1563
     63  C          5.1920   48.7220   99.2950 C.2   229  ARG229      0.2260
     64  O          6.0210   49.6180   99.1450 O.2   229  ARG229     -0.2867
     65  CB         2.9500   49.7760   99.1660 C.3   229  ARG229      0.0307
     66  CG         2.3600   48.8960   98.0600 C.3   229  ARG229      0.0489
     67  CD         1.3540   49.6350   97.1930 C.3   229  ARG229      0.2205
     68  NE         0.2940   48.7290   96.7430 N.pl3 229  ARG229     -0.0865
     69  CZ        -0.4170   48.8860   95.6300 C.cat 229  ARG229      0.5346
     70  NH1       -0.1790   49.8980   94.8110 N.pl3 229  ARG229      0.1354
     71  NH2       -1.3710   48.0100   95.3330 N.pl3 229  ARG229      0.1354
     72  N          7.4200   49.8390   86.5220 N.3   236  ALA236     -0.1231
     73  CA         6.8560   51.1870   86.5930 C.3   236  ALA236      0.1694
     74  C          7.9280   52.2720   86.6710 C.2   236  ALA236      0.2592
     75  O          8.9250   52.1320   87.3680 O.2   236  ALA236     -0.2718
     76  CB         5.9060   51.3050   87.7840 C.3   236  ALA236      0.0304
     77  N          7.6930   53.3650   85.9600 N.am  237  ASN237     -0.1974
     78  CA         8.5540   54.5420   86.0590 C.3   237  ASN237      0.1688
     79  C         10.0180   54.2720   85.7610 C.2   237  ASN237      0.2292
     80  O         10.9200   54.8100   86.4070 O.2   237  ASN237     -0.2864
     81  CB         8.3310   55.2410   87.4010 C.3   237  ASN237      0.1181
     82  CG         6.9550   55.8560   87.4780 C.2   237  ASN237      0.2629
     83  OD1        6.5590   56.6090   86.5850 O.2   237  ASN237     -0.2716
     84  ND2        6.1910   55.4910   88.4990 N.am  237  ASN237     -0.0877
     85  N          3.1150   46.2710   87.9300 N.3   270  THR270     -0.1203
     86  CA         1.9340   46.9760   88.4190 C.3   270  THR270      0.1994
     87  C          0.9660   47.1830   87.2710 C.2   270  THR270      0.2618
     88  O          1.3030   47.8280   86.2790 O.2   270  THR270     -0.2717
     89  CB         2.3200   48.3320   89.0210 C.3   270  THR270      0.1784
     90  OG1        3.4330   48.1450   89.9050 O.3   270  THR270     -0.2211
     91  CG2        1.1390   48.9230   89.8050 C.3   270  THR270      0.0376
     92  N         -0.2270   46.6080   87.3980 N.am  271  GLY271     -0.1956
     93  CA        -1.2140   46.6730   86.3320 C.3   271  GLY271      0.1869
     94  C         -0.9240   45.7610   85.1490 C.2   271  GLY271      0.2309
     95  O         -1.6400   45.7960   84.1450 O.2   271  GLY271     -0.2863
     96  N         -7.9650   59.3610   85.5140 N.3   355  TYR355     -0.1241
     97  CA        -7.1440   60.4880   85.9610 C.3   355  TYR355      0.1605
     98  C         -7.7440   61.8390   85.6060 C.2   355  TYR355      0.2264
     99  O         -8.0020   62.1280   84.4310 O.2   355  TYR355     -0.2867
    100  CB        -5.7640   60.3870   85.3210 C.3   355  TYR355      0.0534
    101  CG        -5.0550   59.0720   85.5570 C.ar  355  TYR355     -0.0201
    102  CD1       -4.6070   58.7170   86.8200 C.ar  355  TYR355     -0.0009
    103  CD2       -4.8100   58.2000   84.5080 C.ar  355  TYR355     -0.0009
    104  CE1       -3.9460   57.5310   87.0340 C.ar  355  TYR355      0.0417
    105  CE2       -4.1490   57.0170   84.7100 C.ar  355  TYR355      0.0417
    106  CZ        -3.7140   56.6850   85.9700 C.ar  355  TYR355      0.1957
    107  OH        -3.0520   55.4990   86.1710 O.3   355  TYR355     -0.2866
@<TRIPOS>BOND
     1    95    94    2
     2    99    98    2
     3   103   105   ar
     4   103   101   ar
     5   105   106   ar
     6    94    93    1
     7   100   101    1
     8   100    97    1
     9    96    97    1
    10   101   102   ar
    11    98    97    1
    12    79    78    1
    13    79    80    2
    14    77    78    1
    15    77    74   am
    16   106   107    1
    17   106   104   ar
    18    78    81    1
    19    88    87    2
    20    93    92    1
    21    72    73    1
    22    83    82    2
    23    73    74    1
    24    73    76    1
    25    74    75    2
    26   102   104   ar
    27    87    92   am
    28    87    86    1
    29    81    82    1
    30    82    84   am
    31    85    86    1
    32    86    89    1
    33    89    91    1
    34    89    90    1
    35    60    59    1
    36     4     3    2
    37    44    43    2
    38     7     5    1
    39    59    57   ar
    40    59    58   ar
    41    57    55   ar
    42     3     2    1
    43    43    42    1
    44     5     2    1
    45     5     6    1
    46    47    46    2
    47    45    42    1
    48    45    46    1
    49    42    41    1
    50    58    56   ar
    51    46    48   am
    52    55    54   ar
    53     2     1    1
    54    49    50    1
    55    56    54   ar
    56    54    53    1
    57    30    28   ar
    58    30    29   ar
    59    28    26   ar
    60    50    53    1
    61    50    51    1
    62    29    27   ar
    63    52    51    2
    64    26    25   ar
    65    26    24   ar
    66    70    69    1
    67    25    23   ar
    68    40    39   ar
    69    40    38   ar
    70    71    69    1
    71    27    24   ar
    72    39    37   ar
    73    24    22   ar
    74    69    68    2
    75    23    22   ar
    76    38    36   ar
    77    37    36   ar
    78    22    21    1
    79    68    67    1
    80    67    66    1
    81    36    35    1
    82    15    14    2
    83    16    14   am
    84    66    65    1
    85    21    18    1
    86    14    13    1
    87    35    32    1
    88    19    18    1
    89    19    20    2
    90    34    33    2
    91    64    63    2
    92    65    62    1
    93    33    32    1
    94    18    17    1
    95    63    62    1
    96    32    31    1
    97    13    12    1
    98    62    61    1
    99    12     9    1
   100    11    10    2
   101    10     9    1
   102     9     8    1
