@<TRIPOS>MOLECULE
tmp/4jieA00.pdb
 179 175 0 0 0
SMALL
GASTEIGER

@<TRIPOS>ATOM
      1  N          2.7320    6.0600   14.8670 N.3   140  TYR140     -0.1241
      2  CA         1.7140    6.0870   13.8020 C.3   140  TYR140      0.1605
      3  C          1.2180    4.7240   13.2850 C.2   140  TYR140      0.2264
      4  O          0.4970    4.6760   12.2860 O.2   140  TYR140     -0.2867
      5  CB         2.1460    6.9310   12.5900 C.3   140  TYR140      0.0534
      6  CG         2.7060    8.3110   12.8420 C.ar  140  TYR140     -0.0201
      7  CD1        3.4270    8.9480   11.8380 C.ar  140  TYR140     -0.0009
      8  CD2        2.5240    8.9920   14.0600 C.ar  140  TYR140     -0.0009
      9  CE1        3.9590   10.2140   12.0130 C.ar  140  TYR140      0.0417
     10  CE2        3.0640   10.2790   14.2470 C.ar  140  TYR140      0.0417
     11  CZ         3.7820   10.8730   13.2090 C.ar  140  TYR140      0.1957
     12  OH         4.3350   12.1250   13.3210 O.3   140  TYR140     -0.2866
     13  N          4.2690   11.8830   19.2220 N.3   185  GLU185     -0.1245
     14  CA         3.4610   12.9640   18.6260 C.3   185  GLU185      0.1567
     15  C          1.9640   12.6600   18.5590 C.2   185  GLU185      0.2260
     16  O          1.3760   12.5960   17.4680 O.2   185  GLU185     -0.2867
     17  CB         4.0170   13.3440   17.2510 C.3   185  GLU185      0.0388
     18  CG         5.4480   13.8450   17.3340 C.3   185  GLU185      0.1160
     19  CD         6.0060   14.3390   16.0130 C.2   185  GLU185      0.3649
     20  OE1        5.3780   14.0820   14.9580 O.co2 185  GLU185     -0.2457
     21  OE2        7.0810   14.9900   16.0360 O.co2 185  GLU185     -0.2457
     22  N         -0.4410   14.4460   19.1020 N.3   187  ARG187     -0.1231
     23  CA        -1.1050   15.5430   18.4020 C.3   187  ARG187      0.1694
     24  C         -1.2460   15.2590   16.9130 C.2   187  ARG187      0.2592
     25  O         -2.2930   15.5340   16.3270 O.2   187  ARG187     -0.2718
     26  CB        -0.3790   16.8710   18.6060 C.3   187  ARG187      0.0321
     27  CG        -1.1740   18.0710   18.1000 C.3   187  ARG187      0.0489
     28  CD        -0.2660   19.2320   17.7620 C.3   187  ARG187      0.2205
     29  NE         0.3800   19.0770   16.4670 N.pl3 187  ARG187     -0.0865
     30  CZ        -0.1360   19.5140   15.3210 C.cat 187  ARG187      0.5346
     31  NH1       -1.3130   20.1320   15.2910 N.pl3 187  ARG187      0.1354
     32  NH2        0.5250   19.3230   14.1940 N.pl3 187  ARG187      0.1354
     33  N         -0.1960   14.6910   16.3150 N.am  188  CYS188     -0.1970
     34  CA        -0.2200   14.3180   14.9080 C.3   188  CYS188      0.1712
     35  C         -1.0930   13.1180   14.6270 C.2   188  CYS188      0.2296
     36  O         -1.8470   13.1160   13.6500 O.2   188  CYS188     -0.2864
     37  CB         1.1930   14.1150   14.3800 C.3   188  CYS188      0.0983
     38  SG         2.1690   15.6180   14.6690 S.3   188  CYS188     -0.0798
     39  N         -3.5000   14.7630   12.1240 N.3   192  LEU192     -0.1245
     40  CA        -3.3120   14.3310   10.7420 C.3   192  LEU192      0.1561
     41  C         -4.1740   13.1210   10.3950 C.2   192  LEU192      0.2260
     42  O         -4.5910   12.9510    9.2480 O.2   192  LEU192     -0.2867
     43  CB        -1.8360   14.1080   10.4070 C.3   192  LEU192      0.0270
     44  CG        -0.8500   15.2290   10.7940 C.3   192  LEU192      0.0019
     45  CD1        0.5900   14.8430   10.4100 C.3   192  LEU192      0.0001
     46  CD2       -1.2220   16.5620   10.1850 C.3   192  LEU192      0.0001
     47  N         -7.4000   16.4220    9.1740 N.3   196  ASN196     -0.1240
     48  CA        -7.2410   16.6520    7.7390 C.3   196  ASN196      0.1653
     49  C         -7.0510   15.3810    6.9260 C.2   196  ASN196      0.2266
     50  O         -6.9190   15.4450    5.7100 O.2   196  ASN196     -0.2867
     51  CB        -6.1600   17.7040    7.4260 C.3   196  ASN196      0.1155
     52  CG        -4.7420   17.2790    7.8440 C.2   196  ASN196      0.2627
     53  OD1       -4.4280   16.0910    8.0320 O.2   196  ASN196     -0.2716
     54  ND2       -3.8690   18.2700    7.9650 N.am  196  ASN196     -0.0877
     55  N         -4.5910   13.6330    6.4170 N.3   198  PHE198     -0.1227
     56  CA        -3.3200   13.5650    5.7190 C.3   198  PHE198      0.1736
     57  C         -2.5770   12.2560    6.0080 C.2   198  PHE198      0.2595
     58  O         -1.9600   11.6760    5.1070 O.2   198  PHE198     -0.2718
     59  CB        -2.4640   14.7740    6.0830 C.3   198  PHE198      0.0547
     60  CG        -1.2370   14.9470    5.2320 C.ar  198  PHE198     -0.0202
     61  CD1       -1.3280   15.0060    3.8410 C.ar  198  PHE198     -0.0042
     62  CD2        0.0160   15.0840    5.8300 C.ar  198  PHE198     -0.0042
     63  CE1       -0.1740   15.1930    3.0550 C.ar  198  PHE198     -0.0003
     64  CE2        1.1680   15.2760    5.0630 C.ar  198  PHE198     -0.0003
     65  CZ         1.0770   15.3330    3.6770 C.ar  198  PHE198     -0.0000
     66  N         -2.6480   11.7940    7.2540 N.am  199  HIS199     -0.1975
     67  CA        -2.0660   10.5230    7.6510 C.3   199  HIS199      0.1656
     68  C         -3.1550    9.4730    7.8670 C.2   199  HIS199      0.2291
     69  O         -4.3350    9.8110    8.0300 O.2   199  HIS199     -0.2864
     70  CB        -1.2780   10.7100    8.9440 C.3   199  HIS199      0.0771
     71  CG         0.0750   11.3260    8.7520 C.ar  199  HIS199      0.0820
     72  ND1        1.0560   11.2730    9.7180 N.ar  199  HIS199     -0.2267
     73  CD2        0.6140   11.9970    7.7070 C.ar  199  HIS199      0.1154
     74  CE1        2.1390   11.8900    9.2780 C.ar  199  HIS199      0.1986
     75  NE2        1.8970   12.3370    8.0600 N.ar  199  HIS199     -0.2212
     76  N          5.3530   16.8640   19.8640 N.3   252  ASP252     -0.1239
     77  CA         5.8390   17.8710   18.9190 C.3   252  ASP252      0.1674
     78  C          5.4580   19.2660   19.4190 C.2   252  ASP252      0.2266
     79  O          4.3980   19.4560   20.0090 O.2   252  ASP252     -0.2867
     80  CB         5.3500   17.6220   17.4810 C.3   252  ASP252      0.1410
     81  CG         3.8230   17.5430   17.3750 C.2   252  ASP252      0.3668
     82  OD1        3.2290   16.5180   17.8160 O.co2 252  ASP252     -0.2456
     83  OD2        3.2230   18.5040   16.8270 O.co2 252  ASP252     -0.2456
     84  N          5.9800   23.2030   17.8280 N.3   254  VAL254     -0.1245
     85  CA         6.3970   24.2980   16.9580 C.3   254  VAL254      0.1561
     86  C          6.4080   25.5690   17.8090 C.2   254  VAL254      0.2260
     87  O          5.4600   25.8120   18.5530 O.2   254  VAL254     -0.2867
     88  CB         5.4080   24.4450   15.7740 C.3   254  VAL254      0.0252
     89  CG1        5.6620   25.7020   14.9880 C.3   254  VAL254      0.0019
     90  CG2        5.4830   23.2180   14.8670 C.3   254  VAL254      0.0019
     91  N         -1.6740   23.2560   20.4280 N.3   276  HIS276     -0.1241
     92  CA        -0.5810   22.4360   19.9010 C.3   276  HIS276      0.1621
     93  C          0.0330   21.5370   20.9880 C.2   276  HIS276      0.2264
     94  O          0.1710   20.3240   20.8040 O.2   276  HIS276     -0.2867
     95  CB         0.4950   23.3480   19.2960 C.3   276  HIS276      0.0745
     96  CG         1.4980   22.6340   18.4550 C.ar  276  HIS276      0.0817
     97  ND1        1.6480   22.8830   17.1090 N.ar  276  HIS276     -0.2268
     98  CD2        2.4110   21.6820   18.7670 C.ar  276  HIS276      0.1154
     99  CE1        2.5980   22.1070   16.6240 C.ar  276  HIS276      0.1986
    100  NE2        3.0760   21.3670   17.6080 N.ar  276  HIS276     -0.2212
    101  N         11.4340   21.3080   15.5450 N.3   324  TYR324     -0.1241
    102  CA        12.0310   21.5650   14.2470 C.3   324  TYR324      0.1605
    103  C         11.9990   23.0390   13.8460 C.2   324  TYR324      0.2264
    104  O         12.9650   23.5580   13.2770 O.2   324  TYR324     -0.2867
    105  CB        11.2860   20.7700   13.1810 C.3   324  TYR324      0.0534
    106  CG        11.4420   19.2810   13.2870 C.ar  324  TYR324     -0.0201
    107  CD1       10.5330   18.5180   14.0190 C.ar  324  TYR324     -0.0009
    108  CD2       12.5020   18.6310   12.6500 C.ar  324  TYR324     -0.0009
    109  CE1       10.6810   17.1410   14.1270 C.ar  324  TYR324      0.0417
    110  CE2       12.6610   17.2550   12.7360 C.ar  324  TYR324      0.0417
    111  CZ        11.7450   16.5190   13.4750 C.ar  324  TYR324      0.1957
    112  OH        11.8910   15.1600   13.5550 O.3   324  TYR324     -0.2866
    113  N         -7.9810   22.5160   13.5340 N.3   343  GLN343     -0.1245
    114  CA        -7.0840   23.5860   13.1230 C.3   343  GLN343      0.1566
    115  C         -7.7770   24.9550   13.0820 C.2   343  GLN343      0.2260
    116  O         -7.1940   25.9590   13.4980 O.2   343  GLN343     -0.2867
    117  CB        -6.4190   23.2700   11.7730 C.3   343  GLN343      0.0367
    118  CG        -5.4800   24.3700   11.2690 C.3   343  GLN343      0.0905
    119  CD        -4.2490   24.5360   12.1500 C.2   343  GLN343      0.2608
    120  OE1       -3.2690   23.7980   12.0040 O.2   343  GLN343     -0.2717
    121  NE2       -4.2850   25.5140   13.0620 N.am  343  GLN343     -0.0878
    122  N          7.7230   21.3650    3.1130 N.3   366  TYR366     -0.1227
    123  CA         6.8970   22.5800    3.0080 C.3   366  TYR366      0.1736
    124  C          6.7470   23.3190    4.3440 C.2   366  TYR366      0.2595
    125  O          6.6770   24.5470    4.3690 O.2   366  TYR366     -0.2718
    126  CB         5.5110   22.2450    2.4270 C.3   366  TYR366      0.0548
    127  CG         4.7490   21.2220    3.2310 C.ar  366  TYR366     -0.0200
    128  CD1        4.9070   19.8670    2.9790 C.ar  366  TYR366     -0.0009
    129  CD2        3.8820   21.6110    4.2530 C.ar  366  TYR366     -0.0009
    130  CE1        4.2350   18.9190    3.7160 C.ar  366  TYR366      0.0417
    131  CE2        3.1920   20.6750    4.9930 C.ar  366  TYR366      0.0417
    132  CZ         3.3790   19.3210    4.7200 C.ar  366  TYR366      0.1957
    133  OH         2.7080   18.3600    5.4440 O.3   366  TYR366     -0.2866
    134  N          6.7310   22.5600    5.4380 N.am  367  TRP367     -0.1976
    135  CA         6.5170   23.0870    6.7880 C.3   367  TRP367      0.1640
    136  C          7.7810   23.5160    7.5620 C.2   367  TRP367      0.2290
    137  O          7.6690   24.2050    8.5850 O.2   367  TRP367     -0.2864
    138  CB         5.7580   22.0500    7.6320 C.3   367  TRP367      0.0576
    139  CG         6.4430   20.7170    7.6920 C.ar  367  TRP367      0.0006
    140  CD1        6.2970   19.6720    6.8140 C.ar  367  TRP367      0.0946
    141  CD2        7.3920   20.2850    8.6720 C.ar  367  TRP367      0.0152
    142  NE1        7.0900   18.6130    7.1940 N.ar  367  TRP367     -0.2442
    143  CE2        7.7700   18.9600    8.3340 C.ar  367  TRP367      0.0810
    144  CE3        7.9440   20.8750    9.8130 C.ar  367  TRP367      0.0012
    145  CZ2        8.6970   18.2260    9.0960 C.ar  367  TRP367      0.0191
    146  CZ3        8.8470   20.1460   10.5700 C.ar  367  TRP367      0.0001
    147  CH2        9.2200   18.8380   10.2040 C.ar  367  TRP367      0.0015
    148  N         13.6880   15.1220   19.2970 N.3   395  GLU395     -0.1245
    149  CA        13.8580   15.1550   17.8390 C.3   395  GLU395      0.1567
    150  C         14.2210   16.5340   17.3730 C.2   395  GLU395      0.2260
    151  O         13.6650   17.5260   17.8480 O.2   395  GLU395     -0.2867
    152  CB        12.5780   14.7990   17.1070 C.3   395  GLU395      0.0388
    153  CG        12.4530   13.3900   16.6540 C.3   395  GLU395      0.1160
    154  CD        11.0650   13.1310   16.0740 C.2   395  GLU395      0.3649
    155  OE1       10.5820   14.0070   15.3070 O.co2 395  GLU395     -0.2457
    156  OE2       10.4590   12.0700   16.3970 O.co2 395  GLU395     -0.2457
    157  N          9.5720    8.7860    4.5460 N.3   449  GLU449     -0.1231
    158  CA         9.0450    9.9800    5.1940 C.3   449  GLU449      0.1699
    159  C          7.5190   10.1460    5.0190 C.2   449  GLU449      0.2592
    160  O          7.0400   11.1520    4.4830 O.2   449  GLU449     -0.2718
    161  CB         9.8230   11.1940    4.6770 C.3   449  GLU449      0.0402
    162  CG         9.4020   12.5630    5.2320 C.3   449  GLU449      0.1161
    163  CD         9.4190   12.6670    6.7720 C.2   449  GLU449      0.3649
    164  OE1       10.0700   11.8290    7.4530 O.co2 449  GLU449     -0.2457
    165  OE2        8.7640   13.6050    7.2940 O.co2 449  GLU449     -0.2457
    166  N          6.7640    9.1490    5.4810 N.am  450  TRP450     -0.1976
    167  CA         5.2740    9.1360    5.4070 C.3   450  TRP450      0.1640
    168  C          4.7280    9.6360    4.0670 C.2   450  TRP450      0.2290
    169  O          5.0860    9.0840    3.0340 O.2   450  TRP450     -0.2864
    170  CB         4.6220    9.8330    6.6210 C.3   450  TRP450      0.0576
    171  CG         5.1900    9.3360    7.9250 C.ar  450  TRP450      0.0006
    172  CD1        6.0220   10.0190    8.7660 C.ar  450  TRP450      0.0946
    173  CD2        5.0070    8.0390    8.5090 C.ar  450  TRP450      0.0152
    174  NE1        6.3440    9.2400    9.8430 N.ar  450  TRP450     -0.2442
    175  CE2        5.7420    8.0190    9.7130 C.ar  450  TRP450      0.0810
    176  CE3        4.2860    6.8990    8.1380 C.ar  450  TRP450      0.0012
    177  CZ2        5.7890    6.8990   10.5500 C.ar  450  TRP450      0.0191
    178  CZ3        4.3230    5.7850    8.9750 C.ar  450  TRP450      0.0001
    179  CH2        5.0750    5.7950   10.1680 C.ar  450  TRP450      0.0015
@<TRIPOS>BOND
     1   126   123    1
     2   126   127    1
     3   128   127   ar
     4   128   130   ar
     5   123   122    1
     6   123   124    1
     7   169   168    2
     8    63    65   ar
     9    63    61   ar
    10   127   129   ar
    11    65    64   ar
    12   130   132   ar
    13    61    60   ar
    14   168   167    1
    15   129   131   ar
    16   124   125    2
    17   124   134   am
    18   160   159    2
    19   157   158    1
    20   161   158    1
    21   161   162    1
    22   132   131   ar
    23   132   133    1
    24   159   158    1
    25   159   166   am
    26    64    62   ar
    27    58    57    2
    28    60    62   ar
    29    60    59    1
    30   162   163    1
    31   167   166    1
    32   167   170    1
    33   134   135    1
    34    50    49    2
    35    56    57    1
    36    56    59    1
    37    56    55    1
    38    57    66   am
    39   170   171    1
    40   163   165   ar
    41   163   164   ar
    42   135   136    1
    43   135   138    1
    44   140   142   ar
    45   140   139   ar
    46    49    48    1
    47   142   143   ar
    48    66    67    1
    49    51    48    1
    50    51    52    1
    51   136   137    2
    52   138   139    1
    53    67    68    1
    54    67    70    1
    55   139   141   ar
    56    73    75   ar
    57    73    71   ar
    58    48    47    1
    59    52    54   am
    60    52    53    2
    61    68    69    2
    62   171   173   ar
    63   171   172   ar
    64    75    74   ar
    65   176   173   ar
    66   176   178   ar
    67   143   141   ar
    68   143   145   ar
    69   173   175   ar
    70   141   144   ar
    71    71    70    1
    72    71    72   ar
    73   172   174   ar
    74   178   179   ar
    75   145   147   ar
    76    42    41    2
    77    74    72   ar
    78   175   174   ar
    79   175   177   ar
    80   144   146   ar
    81   179   177   ar
    82    46    44    1
    83   147   146   ar
    84    41    40    1
    85    43    40    1
    86    43    44    1
    87    45    44    1
    88    40    39    1
    89   118   117    1
    90   118   119    1
    91   117   114    1
    92     7     9   ar
    93     7     6   ar
    94   120   119    2
    95     9    11   ar
    96   119   121   am
    97     4     3    2
    98     5     6    1
    99     5     2    1
   100   108   110   ar
   101   108   106   ar
   102   110   111   ar
   103     6     8   ar
   104   115   114    1
   105   115   116    2
   106   114   113    1
   107   105   106    1
   108   105   102    1
   109    11    12    1
   110    11    10   ar
   111   104   103    2
   112     3     2    1
   113   106   107   ar
   114   111   112    1
   115   111   109   ar
   116    36    35    2
   117     2     1    1
   118   103   102    1
   119   107   109   ar
   120     8    10   ar
   121    32    30    1
   122   102   101    1
   123    37    38    1
   124    37    34    1
   125    35    34    1
   126    90    88    1
   127    34    33    1
   128    20    19   ar
   129    89    88    1
   130    31    30    1
   131   155   154   ar
   132    30    29    2
   133    88    85    1
   134    19    21   ar
   135    19    18    1
   136   154   156   ar
   137   154   153    1
   138    33    24   am
   139    25    24    2
   140    29    28    1
   141    99    97   ar
   142    99   100   ar
   143   153   152    1
   144    83    81   ar
   145    24    23    1
   146    85    86    1
   147    85    84    1
   148   152   149    1
   149    97    96   ar
   150    17    18    1
   151    17    14    1
   152   150   149    1
   153   150   151    2
   154    81    80    1
   155    81    82   ar
   156    16    15    2
   157    80    77    1
   158   100    98   ar
   159    28    27    1
   160    86    87    2
   161   149   148    1
   162    27    26    1
   163    23    26    1
   164    23    22    1
   165    96    98   ar
   166    96    95    1
   167    15    14    1
   168    14    13    1
   169    77    78    1
   170    77    76    1
   171    95    92    1
   172    78    79    2
   173    92    91    1
   174    92    93    1
   175    94    93    2
