@<TRIPOS>MOLECULE
tmp/4jieA01.pdb
 131 132 0 0 0
SMALL
GASTEIGER

@<TRIPOS>ATOM
      1  N          9.2940    3.3560    9.3980 N.3    38  GLN38      -0.1245
      2  CA        10.1470    4.1660    8.5450 C.3    38  GLN38       0.1566
      3  C         11.4760    3.4940    8.2050 C.2    38  GLN38       0.2260
      4  O         12.0470    3.7940    7.1630 O.2    38  GLN38      -0.2867
      5  CB        10.3590    5.5530    9.1570 C.3    38  GLN38       0.0367
      6  CG         9.0700    6.3690    9.1990 C.3    38  GLN38       0.0905
      7  CD         9.2460    7.7240    9.8530 C.2    38  GLN38       0.2608
      8  OE1        9.2030    7.8430   11.0810 O.2    38  GLN38      -0.2717
      9  NE2        9.4440    8.7610    9.0350 N.am   38  GLN38      -0.0878
     10  N          4.3920    4.6170   17.0240 N.3   139  HIS139     -0.1226
     11  CA         4.7910    5.6160   16.0390 C.3   139  HIS139      0.1752
     12  C          3.9570    5.5420   14.7570 C.2   139  HIS139      0.2596
     13  O          4.4190    5.0470   13.7070 O.2   139  HIS139     -0.2718
     14  CB         6.2830    5.5190   15.7090 C.3   139  HIS139      0.0759
     15  CG         6.8500    6.7890   15.1540 C.ar  139  HIS139      0.0818
     16  ND1        7.9740    7.3940   15.6760 N.ar  139  HIS139     -0.2268
     17  CD2        6.4250    7.5940   14.1500 C.ar  139  HIS139      0.1154
     18  CE1        8.2320    8.5000   15.0030 C.ar  139  HIS139      0.1986
     19  NE2        7.3040    8.6490   14.0750 N.ar  139  HIS139     -0.2212
     20  N          2.7320    6.0600   14.8670 N.am  140  TYR140     -0.1976
     21  CA         1.7140    6.0870   13.8020 C.3   140  TYR140      0.1639
     22  C          1.2180    4.7240   13.2850 C.2   140  TYR140      0.2290
     23  O          0.4970    4.6760   12.2860 O.2   140  TYR140     -0.2864
     24  CB         2.1460    6.9310   12.5900 C.3   140  TYR140      0.0560
     25  CG         2.7060    8.3110   12.8420 C.ar  140  TYR140     -0.0198
     26  CD1        3.4270    8.9480   11.8380 C.ar  140  TYR140     -0.0009
     27  CD2        2.5240    8.9920   14.0600 C.ar  140  TYR140     -0.0009
     28  CE1        3.9590   10.2140   12.0130 C.ar  140  TYR140      0.0417
     29  CE2        3.0640   10.2790   14.2470 C.ar  140  TYR140      0.0417
     30  CZ         3.7820   10.8730   13.2090 C.ar  140  TYR140      0.1957
     31  OH         4.3350   12.1250   13.3210 O.3   140  TYR140     -0.2866
     32  N          4.7860    8.6380   20.1360 N.3   184  ASN184     -0.1225
     33  CA         5.3520    9.7280   19.3800 C.3   184  ASN184      0.1785
     34  C          4.2560   10.6180   18.8020 C.2   184  ASN184      0.2597
     35  O          3.4230   10.1610   18.0110 O.2   184  ASN184     -0.2718
     36  CB         6.2360    9.2210   18.2420 C.3   184  ASN184      0.1169
     37  CG         6.8920   10.3570   17.4840 C.2   184  ASN184      0.2627
     38  OD1        7.8690   10.9380   17.9560 O.2   184  ASN184     -0.2716
     39  ND2        6.3450   10.6960   16.3150 N.am  184  ASN184     -0.0877
     40  N          4.2690   11.8830   19.2220 N.am  185  GLU185     -0.1979
     41  CA         3.4610   12.9640   18.6260 C.3   185  GLU185      0.1602
     42  C          1.9640   12.6600   18.5590 C.2   185  GLU185      0.2287
     43  O          1.3760   12.5960   17.4680 O.2   185  GLU185     -0.2864
     44  CB         4.0170   13.3440   17.2510 C.3   185  GLU185      0.0415
     45  CG         5.4480   13.8450   17.3340 C.3   185  GLU185      0.1163
     46  CD         6.0060   14.3390   16.0130 C.2   185  GLU185      0.3649
     47  OE1        5.3780   14.0820   14.9580 O.co2 185  GLU185     -0.2457
     48  OE2        7.0810   14.9900   16.0360 O.co2 185  GLU185     -0.2457
     49  N         11.4340   21.3080   15.5450 N.3   324  TYR324     -0.1241
     50  CA        12.0310   21.5650   14.2470 C.3   324  TYR324      0.1605
     51  C         11.9990   23.0390   13.8460 C.2   324  TYR324      0.2264
     52  O         12.9650   23.5580   13.2770 O.2   324  TYR324     -0.2867
     53  CB        11.2860   20.7700   13.1810 C.3   324  TYR324      0.0534
     54  CG        11.4420   19.2810   13.2870 C.ar  324  TYR324     -0.0201
     55  CD1       10.5330   18.5180   14.0190 C.ar  324  TYR324     -0.0009
     56  CD2       12.5020   18.6310   12.6500 C.ar  324  TYR324     -0.0009
     57  CE1       10.6810   17.1410   14.1270 C.ar  324  TYR324      0.0417
     58  CE2       12.6610   17.2550   12.7360 C.ar  324  TYR324      0.0417
     59  CZ        11.7450   16.5190   13.4750 C.ar  324  TYR324      0.1957
     60  OH        11.8910   15.1600   13.5550 O.3   324  TYR324     -0.2866
     61  N          6.7310   22.5600    5.4380 N.3   367  TRP367     -0.1241
     62  CA         6.5170   23.0870    6.7880 C.3   367  TRP367      0.1605
     63  C          7.7810   23.5160    7.5620 C.2   367  TRP367      0.2264
     64  O          7.6690   24.2050    8.5850 O.2   367  TRP367     -0.2867
     65  CB         5.7580   22.0500    7.6320 C.3   367  TRP367      0.0550
     66  CG         6.4430   20.7170    7.6920 C.ar  367  TRP367      0.0003
     67  CD1        6.2970   19.6720    6.8140 C.ar  367  TRP367      0.0946
     68  CD2        7.3920   20.2850    8.6720 C.ar  367  TRP367      0.0152
     69  NE1        7.0900   18.6130    7.1940 N.ar  367  TRP367     -0.2442
     70  CE2        7.7700   18.9600    8.3340 C.ar  367  TRP367      0.0810
     71  CE3        7.9440   20.8750    9.8130 C.ar  367  TRP367      0.0012
     72  CZ2        8.6970   18.2260    9.0960 C.ar  367  TRP367      0.0191
     73  CZ3        8.8470   20.1460   10.5700 C.ar  367  TRP367      0.0001
     74  CH2        9.2200   18.8380   10.2040 C.ar  367  TRP367      0.0015
     75  N         13.6880   15.1220   19.2970 N.3   395  GLU395     -0.1245
     76  CA        13.8580   15.1550   17.8390 C.3   395  GLU395      0.1567
     77  C         14.2210   16.5340   17.3730 C.2   395  GLU395      0.2260
     78  O         13.6650   17.5260   17.8480 O.2   395  GLU395     -0.2867
     79  CB        12.5780   14.7990   17.1070 C.3   395  GLU395      0.0388
     80  CG        12.4530   13.3900   16.6540 C.3   395  GLU395      0.1160
     81  CD        11.0650   13.1310   16.0740 C.2   395  GLU395      0.3649
     82  OE1       10.5820   14.0070   15.3070 O.co2 395  GLU395     -0.2457
     83  OE2       10.4590   12.0700   16.3970 O.co2 395  GLU395     -0.2457
     84  N         16.8660   13.6270   14.5650 N.3   442  TRP442     -0.1241
     85  CA        16.1210   12.8950   13.5500 C.3   442  TRP442      0.1605
     86  C         16.8030   13.2030   12.2090 C.2   442  TRP442      0.2264
     87  O         16.8230   14.3530   11.7730 O.2   442  TRP442     -0.2867
     88  CB        14.6320   13.3090   13.5130 C.3   442  TRP442      0.0550
     89  CG        13.8500   12.4190   12.5900 C.ar  442  TRP442      0.0003
     90  CD1       13.7340   12.5420   11.2340 C.ar  442  TRP442      0.0946
     91  CD2       13.1200   11.2340   12.9460 C.ar  442  TRP442      0.0152
     92  NE1       12.9890   11.5100   10.7250 N.ar  442  TRP442     -0.2442
     93  CE2       12.6000   10.6900   11.7490 C.ar  442  TRP442      0.0810
     94  CE3       12.8540   10.5810   14.1590 C.ar  442  TRP442      0.0012
     95  CZ2       11.8250    9.5250   11.7280 C.ar  442  TRP442      0.0191
     96  CZ3       12.0750    9.4240   14.1380 C.ar  442  TRP442      0.0001
     97  CH2       11.5660    8.9130   12.9310 C.ar  442  TRP442      0.0015
     98  N          9.5720    8.7860    4.5460 N.3   449  GLU449     -0.1231
     99  CA         9.0450    9.9800    5.1940 C.3   449  GLU449      0.1699
    100  C          7.5190   10.1460    5.0190 C.2   449  GLU449      0.2592
    101  O          7.0400   11.1520    4.4830 O.2   449  GLU449     -0.2718
    102  CB         9.8230   11.1940    4.6770 C.3   449  GLU449      0.0402
    103  CG         9.4020   12.5630    5.2320 C.3   449  GLU449      0.1161
    104  CD         9.4190   12.6670    6.7720 C.2   449  GLU449      0.3649
    105  OE1       10.0700   11.8290    7.4530 O.co2 449  GLU449     -0.2457
    106  OE2        8.7640   13.6050    7.2940 O.co2 449  GLU449     -0.2457
    107  N          6.7640    9.1490    5.4810 N.am  450  TRP450     -0.1976
    108  CA         5.2740    9.1360    5.4070 C.3   450  TRP450      0.1640
    109  C          4.7280    9.6360    4.0670 C.2   450  TRP450      0.2290
    110  O          5.0860    9.0840    3.0340 O.2   450  TRP450     -0.2864
    111  CB         4.6220    9.8330    6.6210 C.3   450  TRP450      0.0576
    112  CG         5.1900    9.3360    7.9250 C.ar  450  TRP450      0.0006
    113  CD1        6.0220   10.0190    8.7660 C.ar  450  TRP450      0.0946
    114  CD2        5.0070    8.0390    8.5090 C.ar  450  TRP450      0.0152
    115  NE1        6.3440    9.2400    9.8430 N.ar  450  TRP450     -0.2442
    116  CE2        5.7420    8.0190    9.7130 C.ar  450  TRP450      0.0810
    117  CE3        4.2860    6.8990    8.1380 C.ar  450  TRP450      0.0012
    118  CZ2        5.7890    6.8990   10.5500 C.ar  450  TRP450      0.0191
    119  CZ3        4.3230    5.7850    8.9750 C.ar  450  TRP450      0.0001
    120  CH2        5.0750    5.7950   10.1680 C.ar  450  TRP450      0.0015
    121  N         16.0920   12.9680    5.5310 N.3   458  PHE458     -0.1241
    122  CA        16.3220   13.5690    6.8520 C.3   458  PHE458      0.1605
    123  C         17.5740   13.0440    7.5410 C.2   458  PHE458      0.2264
    124  O         18.0230   13.6230    8.5360 O.2   458  PHE458     -0.2867
    125  CB        15.1270   13.2970    7.7640 C.3   458  PHE458      0.0534
    126  CG        14.1140   14.3990    7.7860 C.ar  458  PHE458     -0.0203
    127  CD1       14.2700   15.4910    8.6480 C.ar  458  PHE458     -0.0042
    128  CD2       12.9830   14.3380    6.9750 C.ar  458  PHE458     -0.0042
    129  CE1       13.3250   16.5120    8.6840 C.ar  458  PHE458     -0.0003
    130  CE2       12.0260   15.3510    7.0110 C.ar  458  PHE458     -0.0003
    131  CZ        12.1950   16.4420    7.8600 C.ar  458  PHE458     -0.0000
@<TRIPOS>BOND
     1   110   109    2
     2   109   108    1
     3   101   100    2
     4    98    99    1
     5   102    99    1
     6   102   103    1
     7   100    99    1
     8   100   107   am
     9   103   104    1
    10   108   107    1
    11   108   111    1
    12    61    62    1
    13   121   122    1
    14   111   112    1
    15   104   106   ar
    16   104   105   ar
    17    62    63    1
    18    62    65    1
    19    67    69   ar
    20    67    66   ar
    21   122   123    1
    22   122   125    1
    23   128   130   ar
    24   128   126   ar
    25   130   131   ar
    26     4     3    2
    27    69    70   ar
    28   123   124    2
    29    63    64    2
    30    65    66    1
    31    66    68   ar
    32   125   126    1
    33   126   127   ar
    34   131   129   ar
    35   112   114   ar
    36   112   113   ar
    37   117   114   ar
    38   117   119   ar
    39     3     2    1
    40    70    68   ar
    41    70    72   ar
    42   114   116   ar
    43     2     5    1
    44     2     1    1
    45   127   129   ar
    46    68    71   ar
    47   113   115   ar
    48   119   120   ar
    49     9     7   am
    50    72    74   ar
    51     5     6    1
    52     6     7    1
    53   116   115   ar
    54   116   118   ar
    55    71    73   ar
    56     7     8    2
    57   120   118   ar
    58    74    73   ar
    59    92    90   ar
    60    92    93   ar
    61    90    89   ar
    62    95    93   ar
    63    95    97   ar
    64    93    91   ar
    65    87    86    2
    66    26    28   ar
    67    26    25   ar
    68    28    30   ar
    69    86    85    1
    70    23    22    2
    71    24    25    1
    72    24    21    1
    73    89    91   ar
    74    89    88    1
    75    56    58   ar
    76    56    54   ar
    77    58    59   ar
    78    25    27   ar
    79    97    96   ar
    80    91    94   ar
    81    53    54    1
    82    53    50    1
    83    30    31    1
    84    30    29   ar
    85    52    51    2
    86    22    21    1
    87    54    55   ar
    88    59    60    1
    89    59    57   ar
    90    88    85    1
    91    85    84    1
    92    13    12    2
    93    21    20    1
    94    51    50    1
    95    55    57   ar
    96    27    29   ar
    97    19    17   ar
    98    19    18   ar
    99    96    94   ar
   100    17    15   ar
   101    50    49    1
   102    12    20   am
   103    12    11    1
   104    47    46   ar
   105    18    16   ar
   106    15    16   ar
   107    15    14    1
   108    82    81   ar
   109    14    11    1
   110    46    48   ar
   111    46    45    1
   112    11    10    1
   113    81    83   ar
   114    81    80    1
   115    39    37   am
   116    80    79    1
   117    79    76    1
   118    44    45    1
   119    44    41    1
   120    77    76    1
   121    77    78    2
   122    43    42    2
   123    37    38    2
   124    37    36    1
   125    76    75    1
   126    35    34    2
   127    36    33    1
   128    42    41    1
   129    41    40    1
   130    34    40   am
   131    34    33    1
   132    33    32    1
