@<TRIPOS>MOLECULE
tmp/4jihA00.pdb
 131 134 0 0 0
SMALL
GASTEIGER

@<TRIPOS>ATOM
      1  N        -24.3650  -21.4810    0.1260 N.3    23  TRP23      -0.1241
      2  CA       -24.7500  -20.9810   -1.1910 C.3    23  TRP23       0.1605
      3  C        -25.9280  -20.0020   -1.0680 C.2    23  TRP23       0.2264
      4  O        -26.9020  -20.2660   -0.3620 O.2    23  TRP23      -0.2867
      5  CB       -25.0700  -22.1390   -2.1470 C.3    23  TRP23       0.0550
      6  CG       -25.4840  -21.7100   -3.5230 C.ar   23  TRP23       0.0003
      7  CD1      -24.9820  -20.6590   -4.2470 C.ar   23  TRP23       0.0946
      8  CD2      -26.5040  -22.3100   -4.3400 C.ar   23  TRP23       0.0152
      9  NE1      -25.6240  -20.5730   -5.4640 N.ar   23  TRP23      -0.2442
     10  CE2      -26.5600  -21.5720   -5.5510 C.ar   23  TRP23       0.0810
     11  CE3      -27.3700  -23.4050   -4.1720 C.ar   23  TRP23       0.0012
     12  CZ2      -27.4530  -21.8950   -6.5930 C.ar   23  TRP23       0.0191
     13  CZ3      -28.2610  -23.7270   -5.2130 C.ar   23  TRP23       0.0001
     14  CH2      -28.2920  -22.9700   -6.4050 C.ar   23  TRP23       0.0015
     15  N        -17.0310  -20.3720   -5.7300 N.3    50  VAL50      -0.1231
     16  CA       -17.9840  -19.7110   -6.6130 C.3    50  VAL50       0.1692
     17  C        -19.0920  -18.9350   -5.8670 C.2    50  VAL50       0.2592
     18  O        -19.7390  -18.0500   -6.4430 O.2    50  VAL50      -0.2718
     19  CB       -18.5580  -20.6970   -7.6580 C.3    50  VAL50       0.0266
     20  CG1      -19.5480  -21.6390   -7.0140 C.3    50  VAL50       0.0020
     21  CG2      -19.1910  -19.9410   -8.8290 C.3    50  VAL50       0.0020
     22  N        -19.2820  -19.2380   -4.5860 N.am   51  TYR51      -0.1976
     23  CA       -20.2960  -18.5560   -3.7970 C.3    51  TYR51       0.1639
     24  C        -19.8220  -17.1370   -3.4700 C.2    51  TYR51       0.2290
     25  O        -20.6120  -16.2890   -3.0720 O.2    51  TYR51      -0.2864
     26  CB       -20.5970  -19.3230   -2.4970 C.3    51  TYR51       0.0560
     27  CG       -21.0650  -20.7660   -2.6660 C.ar   51  TYR51      -0.0198
     28  CD1      -21.5070  -21.2510   -3.8960 C.ar   51  TYR51      -0.0009
     29  CD2      -21.0720  -21.6370   -1.5870 C.ar   51  TYR51      -0.0009
     30  CE1      -21.9300  -22.5690   -4.0430 C.ar   51  TYR51       0.0417
     31  CE2      -21.4940  -22.9530   -1.7200 C.ar   51  TYR51       0.0417
     32  CZ       -21.9210  -23.4120   -2.9470 C.ar   51  TYR51       0.1957
     33  OH       -22.3320  -24.7130   -3.0750 O.3    51  TYR51      -0.2866
     34  N        -13.8970  -24.8530   -8.6340 N.3    82  TRP82      -0.1241
     35  CA       -14.7650  -24.5340   -9.7760 C.3    82  TRP82       0.1605
     36  C        -14.0920  -24.8920  -11.1240 C.2    82  TRP82       0.2264
     37  O        -12.8880  -24.7100  -11.2860 O.2    82  TRP82      -0.2867
     38  CB       -15.1630  -23.0520   -9.7310 C.3    82  TRP82       0.0550
     39  CG       -16.2530  -22.6740  -10.6910 C.ar   82  TRP82       0.0003
     40  CD1      -16.1380  -21.8660  -11.7870 C.ar   82  TRP82       0.0946
     41  CD2      -17.6260  -23.0940  -10.6440 C.ar   82  TRP82       0.0152
     42  NE1      -17.3560  -21.7590  -12.4240 N.ar   82  TRP82      -0.2442
     43  CE2      -18.2840  -22.5040  -11.7440 C.ar   82  TRP82       0.0810
     44  CE3      -18.3580  -23.9180   -9.7830 C.ar   82  TRP82       0.0012
     45  CZ2      -19.6430  -22.7050  -12.0030 C.ar   82  TRP82       0.0191
     46  CZ3      -19.7000  -24.1210  -10.0440 C.ar   82  TRP82       0.0001
     47  CH2      -20.3310  -23.5100  -11.1470 C.ar   82  TRP82       0.0015
     48  N        -16.1870  -29.4240   -7.7400 N.3   113  HIS113     -0.1226
     49  CA       -17.5390  -28.8880   -7.6220 C.3   113  HIS113      0.1752
     50  C        -18.4850  -29.4770   -8.6750 C.2   113  HIS113      0.2596
     51  O        -19.6370  -29.8340   -8.3750 O.2   113  HIS113     -0.2718
     52  CB       -17.5010  -27.3620   -7.7400 C.3   113  HIS113      0.0759
     53  CG       -18.6650  -26.6750   -7.1060 C.ar  113  HIS113      0.0818
     54  ND1      -18.5810  -25.4030   -6.5820 N.ar  113  HIS113     -0.2268
     55  CD2      -19.9440  -27.0780   -6.9150 C.ar  113  HIS113      0.1154
     56  CE1      -19.7580  -25.0520   -6.0980 C.ar  113  HIS113      0.1986
     57  NE2      -20.6020  -26.0520   -6.2830 N.ar  113  HIS113     -0.2212
     58  N        -17.9600  -29.6090   -9.8910 N.am  114  TRP114     -0.1976
     59  CA       -18.7260  -30.0410  -11.0470 C.3   114  TRP114      0.1640
     60  C        -17.7400  -30.7400  -11.9850 C.2   114  TRP114      0.2290
     61  O        -16.6050  -30.2720  -12.1700 O.2   114  TRP114     -0.2864
     62  CB       -19.3640  -28.8090  -11.7000 C.3   114  TRP114      0.0576
     63  CG       -20.2020  -29.0850  -12.8940 C.ar  114  TRP114      0.0006
     64  CD1      -19.8380  -28.9630  -14.2140 C.ar  114  TRP114      0.0946
     65  CD2      -21.5630  -29.5170  -12.8930 C.ar  114  TRP114      0.0152
     66  NE1      -20.8940  -29.3090  -15.0360 N.ar  114  TRP114     -0.2442
     67  CE2      -21.9630  -29.6530  -14.2480 C.ar  114  TRP114      0.0810
     68  CE3      -22.4820  -29.8080  -11.8800 C.ar  114  TRP114      0.0012
     69  CZ2      -23.2430  -30.0640  -14.6070 C.ar  114  TRP114      0.0191
     70  CZ3      -23.7420  -30.2220  -12.2320 C.ar  114  TRP114      0.0001
     71  CH2      -24.1180  -30.3470  -13.5880 C.ar  114  TRP114      0.0015
     72  N        -18.4650  -18.2920  -15.6490 N.3   125  PHE125     -0.1241
     73  CA       -19.4980  -19.0290  -16.3820 C.3   125  PHE125      0.1605
     74  C        -19.4010  -18.8460  -17.8980 C.2   125  PHE125      0.2264
     75  O        -20.3820  -18.4630  -18.5400 O.2   125  PHE125     -0.2867
     76  CB       -20.8870  -18.5940  -15.9110 C.3   125  PHE125      0.0534
     77  CG       -21.0350  -18.5650  -14.4160 C.ar  125  PHE125     -0.0203
     78  CD1      -21.4040  -19.7080  -13.7230 C.ar  125  PHE125     -0.0042
     79  CD2      -20.8010  -17.3930  -13.7020 C.ar  125  PHE125     -0.0042
     80  CE1      -21.5380  -19.6910  -12.3450 C.ar  125  PHE125     -0.0003
     81  CE2      -20.9330  -17.3650  -12.3220 C.ar  125  PHE125     -0.0003
     82  CZ       -21.2980  -18.5210  -11.6420 C.ar  125  PHE125     -0.0000
     83  N        -21.5090  -33.7470   -7.6070 N.3   163  ASN163     -0.1240
     84  CA       -22.2300  -33.9790   -8.8740 C.3   163  ASN163      0.1653
     85  C        -21.5980  -34.9940   -9.8160 C.2   163  ASN163      0.2266
     86  O        -21.6690  -34.8280  -11.0290 O.2   163  ASN163     -0.2867
     87  CB       -22.4760  -32.6680   -9.6400 C.3   163  ASN163      0.1155
     88  CG       -23.1420  -31.6310   -8.7810 C.2   163  ASN163      0.2627
     89  OD1      -22.5470  -30.5890   -8.4660 O.2   163  ASN163     -0.2716
     90  ND2      -24.3820  -31.9160   -8.3640 N.am  163  ASN163     -0.0877
     91  N        -27.1000  -32.2890   -0.7420 N.3   212  TYR212     -0.1241
     92  CA       -27.3090  -30.8650   -0.8600 C.3   212  TYR212      0.1605
     93  C        -28.7390  -30.5610   -1.2770 C.2   212  TYR212      0.2264
     94  O        -29.4780  -31.4650   -1.6630 O.2   212  TYR212     -0.2867
     95  CB       -26.2400  -30.1840   -1.7330 C.3   212  TYR212      0.0534
     96  CG       -26.3130  -30.2820   -3.2620 C.ar  212  TYR212     -0.0201
     97  CD1      -27.3830  -29.7550   -3.9730 C.ar  212  TYR212     -0.0009
     98  CD2      -25.2370  -30.8130   -3.9900 C.ar  212  TYR212     -0.0009
     99  CE1      -27.4090  -29.7910   -5.3550 C.ar  212  TYR212      0.0417
    100  CE2      -25.2490  -30.8540   -5.3580 C.ar  212  TYR212      0.0417
    101  CZ       -26.3350  -30.3400   -6.0510 C.ar  212  TYR212      0.1957
    102  OH       -26.3410  -30.3800   -7.4370 O.3   212  TYR212     -0.2866
    103  N        -34.1550  -19.6640  -10.1050 N.3   222  TRP222     -0.1241
    104  CA       -35.0420  -20.1810  -11.1480 C.3   222  TRP222      0.1605
    105  C        -36.2510  -20.9590  -10.6240 C.2   222  TRP222      0.2264
    106  O        -36.9130  -21.6390  -11.3920 O.2   222  TRP222     -0.2867
    107  CB       -34.2530  -21.0690  -12.1100 C.3   222  TRP222      0.0550
    108  CG       -33.5040  -22.1270  -11.3840 C.ar  222  TRP222      0.0003
    109  CD1      -33.9710  -23.3580  -11.0050 C.ar  222  TRP222      0.0946
    110  CD2      -32.1590  -22.0380  -10.9020 C.ar  222  TRP222      0.0152
    111  NE1      -32.9940  -24.0430  -10.3300 N.ar  222  TRP222     -0.2442
    112  CE2      -31.8700  -23.2590  -10.2510 C.ar  222  TRP222      0.0810
    113  CE3      -31.1680  -21.0530  -10.9630 C.ar  222  TRP222      0.0012
    114  CZ2      -30.6270  -23.5200   -9.6650 C.ar  222  TRP222      0.0191
    115  CZ3      -29.9320  -21.3130  -10.3790 C.ar  222  TRP222      0.0001
    116  CH2      -29.6760  -22.5360   -9.7350 C.ar  222  TRP222      0.0015
    117  N        -29.9390  -26.0180  -13.4020 N.3   302  VAL302     -0.1231
    118  CA       -29.8980  -24.8410  -14.2560 C.3   302  VAL302      0.1692
    119  C        -28.8180  -25.0050  -15.3360 C.2   302  VAL302      0.2591
    120  O        -28.9120  -24.4240  -16.4200 O.2   302  VAL302     -0.2718
    121  CB       -29.6530  -23.5810  -13.3980 C.3   302  VAL302      0.0266
    122  CG1      -28.3510  -23.7260  -12.5960 C.3   302  VAL302      0.0020
    123  CG2      -29.6590  -22.3260  -14.2470 C.3   302  VAL302      0.0020
    124  N        -27.8050  -25.8150  -15.0320 N.am  303  LEU303     -0.1980
    125  CA       -26.7720  -26.1760  -15.9990 C.3   303  LEU303      0.1596
    126  C        -27.2970  -27.2840  -16.9180 C.2   303  LEU303      0.2287
    127  O        -27.4330  -28.4390  -16.5030 O.2   303  LEU303     -0.2864
    128  CB       -25.4950  -26.6270  -15.2750 C.3   303  LEU303      0.0297
    129  CG       -24.1180  -26.3460  -15.9040 C.3   303  LEU303      0.0022
    130  CD1      -24.0860  -25.0150  -16.6550 C.3   303  LEU303      0.0001
    131  CD2      -23.0290  -26.3620  -14.8250 C.3   303  LEU303      0.0001
@<TRIPOS>BOND
     1    75    74    2
     2    74    73    1
     3   126   127    2
     4   126   125    1
     5   130   129    1
     6   120   119    2
     7    73    76    1
     8    73    72    1
     9   125   128    1
    10   125   124    1
    11    76    77    1
    12   129   128    1
    13   129   131    1
    14   119   124   am
    15   119   118    1
    16    66    67   ar
    17    66    64   ar
    18    69    67   ar
    19    69    71   ar
    20    77    78   ar
    21    77    79   ar
    22   118   117    1
    23   118   121    1
    24    67    65   ar
    25   123   121    1
    26    64    63   ar
    27    78    80   ar
    28    79    81   ar
    29    71    70   ar
    30   121   122    1
    31    63    65   ar
    32    63    62    1
    33    65    68   ar
    34    42    40   ar
    35    42    43   ar
    36    80    82   ar
    37    81    82   ar
    38    70    68   ar
    39    61    60    2
    40   107   108    1
    41   107   104    1
    42    45    43   ar
    43    45    47   ar
    44    60    59    1
    45    40    39   ar
    46    43    41   ar
    47    62    59    1
    48   106   105    2
    49   108   109   ar
    50   108   110   ar
    51    37    36    2
    52   104   105    1
    53   104   103    1
    54    47    46   ar
    55    36    35    1
    56    59    58    1
    57    86    85    2
    58   109   111   ar
    59   113   110   ar
    60   113   115   ar
    61   110   112   ar
    62    39    41   ar
    63    39    38    1
    64    41    44   ar
    65   115   116   ar
    66   111   112   ar
    67   112   114   ar
    68    46    44   ar
    69    58    50   am
    70    85    84    1
    71    35    38    1
    72    35    34    1
    73   116   114   ar
    74    87    84    1
    75    87    88    1
    76    84    83    1
    77    21    19    1
    78    88    89    2
    79    88    90   am
    80    50    51    2
    81    50    49    1
    82    48    49    1
    83    52    49    1
    84    52    53    1
    85    19    20    1
    86    19    16    1
    87   102   101    1
    88    53    55   ar
    89    53    54   ar
    90    55    57   ar
    91    16    17    1
    92    16    15    1
    93    12    14   ar
    94    12    10   ar
    95    54    56   ar
    96    18    17    2
    97    14    13   ar
    98    57    56   ar
    99   101   100   ar
   100   101    99   ar
   101    17    22   am
   102    10     9   ar
   103    10     8   ar
   104     9     7   ar
   105   100    98   ar
   106    99    97   ar
   107    13    11   ar
   108    22    23    1
   109     8    11   ar
   110     8     6   ar
   111     7     6   ar
   112    30    28   ar
   113    30    32   ar
   114    98    96   ar
   115    97    96   ar
   116    28    27   ar
   117    23    24    1
   118    23    26    1
   119     6     5    1
   120    24    25    2
   121    96    95    1
   122    33    32    1
   123    32    31   ar
   124    27    26    1
   125    27    29   ar
   126     5     2    1
   127    95    92    1
   128    31    29   ar
   129    94    93    2
   130    93    92    1
   131     2     3    1
   132     2     1    1
   133     3     4    2
   134    92    91    1
