@<TRIPOS>MOLECULE
tmp/4jiiA01.pdb
 207 214 0 0 0
SMALL
GASTEIGER

@<TRIPOS>ATOM
      1  N          6.5290   32.3350   -0.3300 N.3    23  TRP23      -0.1241
      2  CA         5.8860   32.3100    0.9770 C.3    23  TRP23       0.1605
      3  C          4.4850   32.9380    0.9240 C.2    23  TRP23       0.2264
      4  O          4.3260   34.0510    0.4240 O.2    23  TRP23      -0.2867
      5  CB         6.7540   32.9910    2.0380 C.3    23  TRP23       0.0550
      6  CG         6.0640   33.1060    3.3580 C.ar   23  TRP23       0.0003
      7  CD1        5.2970   32.1490    3.9690 C.ar   23  TRP23       0.0946
      8  CD2        6.0370   34.2510    4.2220 C.ar   23  TRP23       0.0152
      9  NE1        4.8090   32.6280    5.1670 N.ar   23  TRP23      -0.2442
     10  CE2        5.2460   33.9150    5.3430 C.ar   23  TRP23       0.0810
     11  CE3        6.6080   35.5300    4.1600 C.ar   23  TRP23       0.0012
     12  CZ2        5.0180   34.8080    6.3890 C.ar   23  TRP23       0.0191
     13  CZ3        6.3740   36.4150    5.1980 C.ar   23  TRP23       0.0001
     14  CH2        5.5850   36.0510    6.2960 C.ar   23  TRP23       0.0015
     15  N          9.2210   25.4320    5.5730 N.3    50  VAL50      -0.1231
     16  CA         8.1840   26.0230    6.4020 C.3    50  VAL50       0.1692
     17  C          7.0510   26.7070    5.6170 C.2    50  VAL50       0.2592
     18  O          6.0270   27.0490    6.1990 O.2    50  VAL50      -0.2718
     19  CB         8.8010   27.0080    7.4270 C.3    50  VAL50       0.0266
     20  CG1        9.1390   28.3230    6.7570 C.3    50  VAL50       0.0020
     21  CG2        7.8720   27.2170    8.6300 C.3    50  VAL50       0.0020
     22  N          7.2180   26.9010    4.3060 N.am   51  TYR51      -0.1976
     23  CA         6.1450   27.4970    3.4910 C.3    51  TYR51       0.1639
     24  C          5.1130   26.4460    3.0820 C.2    51  TYR51       0.2290
     25  O          4.0230   26.7760    2.6100 O.2    51  TYR51      -0.2864
     26  CB         6.6850   28.1900    2.2260 C.3    51  TYR51       0.0560
     27  CG         7.7350   29.2620    2.4760 C.ar   51  TYR51      -0.0198
     28  CD1        7.9300   29.8020    3.7420 C.ar   51  TYR51      -0.0009
     29  CD2        8.5370   29.7300    1.4430 C.ar   51  TYR51      -0.0009
     30  CE1        8.9060   30.7790    3.9770 C.ar   51  TYR51       0.0417
     31  CE2        9.5090   30.7070    1.6650 C.ar   51  TYR51       0.0417
     32  CZ         9.6950   31.2290    2.9350 C.ar   51  TYR51       0.1957
     33  OH        10.6620   32.2000    3.1610 O.3    51  TYR51      -0.2866
     34  N         14.7380   24.9150    8.5130 N.3    82  TRP82      -0.1228
     35  CA        13.9650   25.5280    9.5880 C.3    82  TRP82       0.1722
     36  C         14.5870   25.1690   10.9450 C.2    82  TRP82       0.2437
     37  O         15.0300   24.0410   11.1310 O.2    82  TRP82      -0.2733
     38  CB        12.4950   25.0650    9.5060 C.3    82  TRP82       0.0563
     39  CG        11.6000   25.7710   10.4850 C.ar   82  TRP82       0.0003
     40  CD1       11.0210   25.2410   11.6040 C.ar   82  TRP82       0.0946
     41  CD2       11.2150   27.1570   10.4550 C.ar   82  TRP82       0.0152
     42  NE1       10.2950   26.2130   12.2700 N.ar   82  TRP82      -0.2442
     43  CE2       10.4050   27.3960   11.5870 C.ar   82  TRP82       0.0810
     44  CE3       11.4890   28.2220    9.5890 C.ar   82  TRP82       0.0012
     45  CZ2        9.8490   28.6500   11.8600 C.ar   82  TRP82       0.0191
     46  CZ3       10.9440   29.4750    9.8720 C.ar   82  TRP82       0.0001
     47  CH2       10.1350   29.6750   10.9940 C.ar   82  TRP82       0.0015
     48  N         14.6260   26.1310   11.8910 N.am   83  PRO83      -0.2729
     49  CA        15.2470   26.0150   13.2150 C.3    83  PRO83       0.1401
     50  C         14.8650   24.8090   14.0780 C.2    83  PRO83       0.2269
     51  O         15.5840   24.5500   15.0430 O.2    83  PRO83      -0.2865
     52  CB        14.7850   27.2870   13.9170 C.3    83  PRO83       0.0296
     53  CG        14.6590   28.2700   12.8420 C.3    83  PRO83       0.0237
     54  CD        14.1900   27.5160   11.6350 C.3    83  PRO83       0.0939
     55  N         17.5480   29.0770    7.6920 N.3   113  HIS113     -0.1226
     56  CA        16.4060   29.9900    7.6290 C.3   113  HIS113      0.1752
     57  C         16.4390   31.0890    8.6790 C.2   113  HIS113      0.2596
     58  O         16.1710   32.2540    8.3730 O.2   113  HIS113     -0.2718
     59  CB        15.0980   29.1970    7.7390 C.3   113  HIS113      0.0759
     60  CG        13.9300   29.8790    7.1000 C.ar  113  HIS113      0.0818
     61  ND1       12.9170   29.1870    6.4660 N.ar  113  HIS113     -0.2268
     62  CD2       13.6190   31.1930    6.9890 C.ar  113  HIS113      0.1154
     63  CE1       12.0300   30.0470    5.9940 C.ar  113  HIS113      0.1986
     64  NE2       12.4340   31.2710    6.2940 N.ar  113  HIS113     -0.2212
     65  N         16.7640   30.7190    9.9110 N.am  114  TRP114     -0.1963
     66  CA        16.9150   31.6710   11.0060 C.3   114  TRP114      0.1756
     67  C         18.0560   31.1930   11.8980 C.2   114  TRP114      0.2461
     68  O         18.2530   29.9850   12.0580 O.2   114  TRP114     -0.2730
     69  CB        15.6350   31.7460   11.8330 C.3   114  TRP114      0.0590
     70  CG        14.4910   32.3430   11.0960 C.ar  114  TRP114      0.0006
     71  CD1       13.6260   31.6890   10.2670 C.ar  114  TRP114      0.0946
     72  CD2       14.0670   33.7190   11.1190 C.ar  114  TRP114      0.0152
     73  NE1       12.6890   32.5720    9.7680 N.ar  114  TRP114     -0.2442
     74  CE2       12.9380   33.8220   10.2730 C.ar  114  TRP114      0.0810
     75  CE3       14.5340   34.8740   11.7670 C.ar  114  TRP114      0.0012
     76  CZ2       12.2720   35.0310   10.0540 C.ar  114  TRP114      0.0191
     77  CZ3       13.8680   36.0800   11.5470 C.ar  114  TRP114      0.0001
     78  CH2       12.7490   36.1440   10.7000 C.ar  114  TRP114      0.0015
     79  N         18.7990   32.1320   12.4960 N.am  115  PRO115     -0.2716
     80  CA        19.9770   31.7550   13.2910 C.3   115  PRO115      0.1536
     81  C         19.6340   31.0350   14.6040 C.2   115  PRO115      0.2598
     82  O         20.4330   30.2290   15.0910 O.2   115  PRO115     -0.2715
     83  CB        20.6570   33.1030   13.5780 C.3   115  PRO115      0.0310
     84  CG        19.5480   34.1170   13.4880 C.3   115  PRO115      0.0237
     85  CD        18.6350   33.5930   12.4030 C.3   115  PRO115      0.0939
     86  N         18.4590   31.3200   15.1610 N.am  116  GLN116     -0.1978
     87  CA        18.0750   30.7470   16.4460 C.3   116  GLN116      0.1601
     88  C         17.4590   29.3590   16.3030 C.2   116  GLN116      0.2287
     89  O         16.5010   29.1810   15.5610 O.2   116  GLN116     -0.2864
     90  CB        17.1020   31.6560   17.1840 C.3   116  GLN116      0.0394
     91  CG        16.5640   31.0060   18.4400 C.3   116  GLN116      0.0908
     92  CD        17.6720   30.6940   19.4360 C.2   116  GLN116      0.2608
     93  OE1       18.4530   31.5770   19.7980 O.2   116  GLN116     -0.2717
     94  NE2       17.7520   29.4380   19.8780 N.am  116  GLN116     -0.0878
     95  N         15.3130   26.0460   17.4220 N.3   118  PHE118     -0.1241
     96  CA        14.1120   25.7570   18.2010 C.3   118  PHE118      0.1605
     97  C         14.0770   24.3090   18.6580 C.2   118  PHE118      0.2264
     98  O         14.7100   23.4330   18.0540 O.2   118  PHE118     -0.2867
     99  CB        12.8470   26.0280   17.3840 C.3   118  PHE118      0.0534
    100  CG        12.5520   27.4870   17.1870 C.ar  118  PHE118     -0.0203
    101  CD1       13.1730   28.4430   17.9690 C.ar  118  PHE118     -0.0042
    102  CD2       11.6490   27.9030   16.2190 C.ar  118  PHE118     -0.0042
    103  CE1       12.9020   29.7960   17.7920 C.ar  118  PHE118     -0.0003
    104  CE2       11.3740   29.2530   16.0390 C.ar  118  PHE118     -0.0003
    105  CZ        12.0020   30.1980   16.8260 C.ar  118  PHE118     -0.0000
    106  N          6.5770   26.0270   15.5940 N.3   125  PHE125     -0.1241
    107  CA         6.8960   27.1350   16.4810 C.3   125  PHE125      0.1605
    108  C          6.6460   26.7410   17.9290 C.2   125  PHE125      0.2264
    109  O          5.7110   27.2510   18.5410 O.2   125  PHE125     -0.2867
    110  CB         6.0380   28.3630   16.1640 C.3   125  PHE125      0.0534
    111  CG         6.2390   28.9220   14.7750 C.ar  125  PHE125     -0.0203
    112  CD1        7.0140   30.0580   14.5730 C.ar  125  PHE125     -0.0042
    113  CD2        5.6410   28.3210   13.6750 C.ar  125  PHE125     -0.0042
    114  CE1        7.1930   30.5810   13.2930 C.ar  125  PHE125     -0.0003
    115  CE2        5.8250   28.8380   12.3920 C.ar  125  PHE125     -0.0003
    116  CZ         6.5970   29.9690   12.2060 C.ar  125  PHE125     -0.0000
    117  N         14.6280   40.0030    0.9100 N.3   212  TYR212     -0.1241
    118  CA        13.2660   39.5030    0.9810 C.3   212  TYR212      0.1605
    119  C         12.2620   40.5850    1.4020 C.2   212  TYR212      0.2264
    120  O         12.6590   41.6780    1.8230 O.2   212  TYR212     -0.2867
    121  CB        13.1790   38.2220    1.8240 C.3   212  TYR212      0.0534
    122  CG        13.2150   38.3330    3.3510 C.ar  212  TYR212     -0.0201
    123  CD1       12.2110   38.9870    4.0560 C.ar  212  TYR212     -0.0009
    124  CD2       14.2160   37.6960    4.0910 C.ar  212  TYR212     -0.0009
    125  CE1       12.2200   39.0380    5.4600 C.ar  212  TYR212      0.0417
    126  CE2       14.2350   37.7470    5.4850 C.ar  212  TYR212      0.0417
    127  CZ        13.2360   38.4170    6.1700 C.ar  212  TYR212      0.1957
    128  OH        13.2530   38.4660    7.5570 O.3   212  TYR212     -0.2866
    129  N          0.2120   39.3280   10.0980 N.3   222  TRP222     -0.1241
    130  CA         0.2790   40.2550   11.2160 C.3   222  TRP222      0.1605
    131  C          0.2510   41.7200   10.8250 C.2   222  TRP222      0.2264
    132  O          0.3820   42.5820   11.6900 O.2   222  TRP222     -0.2867
    133  CB         1.5050   39.9640   12.0900 C.3   222  TRP222      0.0550
    134  CG         2.8060   39.9050   11.3350 C.ar  222  TRP222      0.0003
    135  CD1        3.6220   40.9560   11.0210 C.ar  222  TRP222      0.0946
    136  CD2        3.4440   38.7320   10.8050 C.ar  222  TRP222      0.0152
    137  NE1        4.7210   40.5090   10.3240 N.ar  222  TRP222     -0.2442
    138  CE2        4.6360   39.1500   10.1770 C.ar  222  TRP222      0.0810
    139  CE3        3.1160   37.3720   10.7910 C.ar  222  TRP222      0.0012
    140  CZ2        5.5110   38.2500    9.5470 C.ar  222  TRP222      0.0191
    141  CZ3        3.9850   36.4810   10.1670 C.ar  222  TRP222      0.0001
    142  CH2        5.1670   36.9250    9.5560 C.ar  222  TRP222      0.0015
    143  N          8.9760   41.9380    8.9390 N.3   301  CYS301     -0.1221
    144  CA         9.1000   40.5500    9.3410 C.3   301  CYS301      0.1808
    145  C          9.7380   40.4020   10.7300 C.2   301  CYS301      0.2601
    146  O         10.9220   40.0520   10.8560 O.2   301  CYS301     -0.2717
    147  CB         9.8860   39.7890    8.2830 C.3   301  CYS301      0.0970
    148  SG         9.5230   38.0610    8.3100 S.3   301  CYS301     -0.0800
    149  N          8.9520   40.6820   11.7710 N.am  302  ASN302     -0.1960
    150  CA         9.4500   40.6270   13.1470 C.3   302  ASN302      0.1819
    151  C          8.3330   40.3960   14.1670 C.2   302  ASN302      0.2621
    152  O          8.1070   41.2150   15.0530 O.2   302  ASN302     -0.2715
    153  CB        10.2240   41.9050   13.5040 C.3   302  ASN302      0.1195
    154  CG        11.0100   41.7640   14.8010 C.2   302  ASN302      0.2630
    155  OD1       11.3810   40.6570   15.2010 O.2   302  ASN302     -0.2716
    156  ND2       11.2640   42.8890   15.4660 N.am  302  ASN302     -0.0877
    157  N          7.6520   39.2640   14.0550 N.am  303  VAL303     -0.1963
    158  CA         6.4250   39.0470   14.8060 C.3   303  VAL303      0.1727
    159  C          6.6290   38.0890   15.9870 C.2   303  VAL303      0.2616
    160  O          5.8450   38.0730   16.9370 O.2   303  VAL303     -0.2715
    161  CB         5.3070   38.5210   13.8620 C.3   303  VAL303      0.0290
    162  CG1        5.7210   37.1950   13.2310 C.3   303  VAL303      0.0023
    163  CG2        3.9590   38.4100   14.5870 C.3   303  VAL303      0.0023
    164  N          7.7000   37.3070   15.9390 N.am  304  LEU304     -0.1977
    165  CA         7.9000   36.2400   16.9120 C.3   304  LEU304      0.1596
    166  C          8.6490   36.7140   18.1630 C.2   304  LEU304      0.2287
    167  O          9.7790   37.2040   18.0720 O.2   304  LEU304     -0.2864
    168  CB         8.6450   35.0820   16.2470 C.3   304  LEU304      0.0297
    169  CG         8.5340   33.6940   16.8740 C.3   304  LEU304      0.0022
    170  CD1        7.0880   33.1910   16.8490 C.3   304  LEU304      0.0001
    171  CD2        9.4640   32.7390   16.1460 C.3   304  LEU304      0.0001
    172  N         11.0010   36.2650   20.5380 N.3   306  SER306     -0.1217
    173  CA        12.1370   35.3510   20.6600 C.3   306  SER306      0.1889
    174  C         13.4150   36.0350   21.1520 C.2   306  SER306      0.2288
    175  O         14.4850   35.4270   21.1250 O.2   306  SER306     -0.2866
    176  CB        12.4070   34.6360   19.3210 C.3   306  SER306      0.2089
    177  OG        12.7290   35.5620   18.2870 O.3   306  SER306     -0.2183
    178  N         19.1260   35.4550   18.9870 N.3   312  TYR312     -0.1228
    179  CA        18.2070   36.4060   18.3850 C.3   312  TYR312      0.1721
    180  C         19.0210   37.4630   17.6510 C.2   312  TYR312      0.2437
    181  O         19.8550   38.1280   18.2610 O.2   312  TYR312     -0.2733
    182  CB        17.3190   37.0470   19.4540 C.3   312  TYR312      0.0547
    183  CG        16.3230   38.0410   18.9000 C.ar  312  TYR312     -0.0200
    184  CD1       15.1510   37.6170   18.2820 C.ar  312  TYR312     -0.0009
    185  CD2       16.5520   39.4030   18.9890 C.ar  312  TYR312     -0.0009
    186  CE1       14.2320   38.5340   17.7650 C.ar  312  TYR312      0.0417
    187  CE2       15.6380   40.3240   18.4740 C.ar  312  TYR312      0.0417
    188  CZ        14.4830   39.8840   17.8620 C.ar  312  TYR312      0.1957
    189  OH        13.5800   40.7960   17.3540 O.3   312  TYR312     -0.2866
    190  N         18.7820   37.6190   16.3330 N.am  313  PRO313     -0.2718
    191  CA        19.6120   38.4550   15.4500 C.3   313  PRO313      0.1535
    192  C         19.3890   39.9640   15.4970 C.2   313  PRO313      0.2598
    193  O         20.3120   40.7070   15.1540 O.2   313  PRO313     -0.2715
    194  CB        19.2470   37.9520   14.0510 C.3   313  PRO313      0.0310
    195  CG        17.8330   37.4370   14.1940 C.3   313  PRO313      0.0237
    196  CD        17.8080   36.8110   15.5750 C.3   313  PRO313      0.0939
    197  N         18.2050   40.4220   15.8940 N.am  314  PHE314     -0.1974
    198  CA        17.8590   41.8330   15.6920 C.3   314  PHE314      0.1639
    199  C         18.1360   42.7450   16.8860 C.2   314  PHE314      0.2290
    200  O         17.7130   43.9010   16.8960 O.2   314  PHE314     -0.2864
    201  CB        16.4100   41.9710   15.2330 C.3   314  PHE314      0.0560
    202  CG        16.0990   41.1680   14.0030 C.ar  314  PHE314     -0.0200
    203  CD1       14.8430   40.6140   13.8160 C.ar  314  PHE314     -0.0042
    204  CD2       17.0730   40.9570   13.0330 C.ar  314  PHE314     -0.0042
    205  CE1       14.5600   39.8570   12.6750 C.ar  314  PHE314     -0.0003
    206  CE2       16.8000   40.2010   11.8920 C.ar  314  PHE314     -0.0003
    207  CZ        15.5420   39.6550   11.7100 C.ar  314  PHE314     -0.0000
@<TRIPOS>BOND
     1     1     2    1
     2     4     3    2
     3   117   118    1
     4     3     2    1
     5     2     5    1
     6   118   119    1
     7   118   121    1
     8   119   120    2
     9    29    31   ar
    10    29    27   ar
    11    31    32   ar
    12   121   122    1
    13     5     6    1
    14    26    27    1
    15    26    23    1
    16    27    28   ar
    17    25    24    2
    18    32    33    1
    19    32    30   ar
    20    24    23    1
    21   122   123   ar
    22   122   124   ar
    23     6     7   ar
    24     6     8   ar
    25    23    22    1
    26    28    30   ar
    27     7     9   ar
    28   123   125   ar
    29   124   126   ar
    30    11     8   ar
    31    11    13   ar
    32     8    10   ar
    33    22    17   am
    34     9    10   ar
    35    13    14   ar
    36    10    12   ar
    37   125   127   ar
    38   126   127   ar
    39    15    16    1
    40    17    18    2
    41    17    16    1
    42    63    64   ar
    43    63    61   ar
    44   127   128    1
    45    64    62   ar
    46    14    12   ar
    47    16    19    1
    48    61    60   ar
    49    20    19    1
    50    62    60   ar
    51    60    59    1
    52    19    21    1
    53    56    55    1
    54    56    59    1
    55    56    57    1
    56   147   148    1
    57   147   144    1
    58    58    57    2
    59    34    35    1
    60    57    65   am
    61   143   144    1
    62   144   145    1
    63    38    35    1
    64    38    39    1
    65   140   142   ar
    66   140   138   ar
    67   142   141   ar
    68    35    36    1
    69    44    46   ar
    70    44    41   ar
    71    73    71   ar
    72    73    74   ar
    73    46    47   ar
    74    65    66    1
    75    76    74   ar
    76    76    78   ar
    77   129   130    1
    78   141   139   ar
    79   138   137   ar
    80   138   136   ar
    81    71    70   ar
    82    74    72   ar
    83   137   135   ar
    84    41    39   ar
    85    41    43   ar
    86    39    40   ar
    87    78    77   ar
    88   145   146    2
    89   145   149   am
    90   139   136   ar
    91   136   134   ar
    92   131   130    1
    93   131   132    2
    94    36    37    2
    95    36    48   am
    96    47    45   ar
    97    66    69    1
    98    66    67    1
    99   135   134   ar
   100    70    72   ar
   101    70    69    1
   102    72    75   ar
   103   130   133    1
   104   134   133    1
   105    77    75   ar
   106    43    45   ar
   107    43    42   ar
   108    40    42   ar
   109    54    48    1
   110    54    53    1
   111   207   206   ar
   112   207   205   ar
   113   149   150    1
   114    48    49    1
   115   206   204   ar
   116    67    68    2
   117    67    79   am
   118   116   115   ar
   119   116   114   ar
   120   115   113   ar
   121    85    79    1
   122    85    84    1
   123    79    80    1
   124   205   203   ar
   125    53    52    1
   126   204   202   ar
   127   150   153    1
   128   150   151    1
   129    49    52    1
   130    49    50    1
   131   162   161    1
   132    80    83    1
   133    80    81    1
   134   114   112   ar
   135    84    83    1
   136   153   154    1
   137   113   111   ar
   138   203   202   ar
   139   161   163    1
   140   161   158    1
   141   202   201    1
   142   194   195    1
   143   194   191    1
   144   157   151   am
   145   157   158    1
   146    50    51    2
   147   151   152    2
   148   195   196    1
   149   112   111   ar
   150    81    82    2
   151    81    86   am
   152   111   110    1
   153   154   155    2
   154   154   156   am
   155   158   159    1
   156   193   192    2
   157    86    87    1
   158   201   198    1
   159   191   192    1
   160   191   190    1
   161   192   197   am
   162    89    88    2
   163   196   190    1
   164   106   107    1
   165   198   197    1
   166   198   199    1
   167   164   159   am
   168   164   165    1
   169   159   160    2
   170   104   102   ar
   171   104   105   ar
   172   171   169    1
   173   110   107    1
   174   102   100   ar
   175   168   169    1
   176   168   165    1
   177    88    87    1
   178   190   180   am
   179    87    90    1
   180   107   108    1
   181   105   103   ar
   182   170   169    1
   183   199   200    2
   184   165   166    1
   185    90    91    1
   186   100    99    1
   187   100   101   ar
   188   189   188    1
   189    99    96    1
   190    95    96    1
   191   180   181    2
   192   180   179    1
   193   186   188   ar
   194   186   184   ar
   195   103   101   ar
   196   188   187   ar
   197   108   109    2
   198    98    97    2
   199   167   166    2
   200    96    97    1
   201   184   183   ar
   202   177   176    1
   203   179   178    1
   204   179   182    1
   205    91    92    1
   206   187   185   ar
   207   183   185   ar
   208   183   182    1
   209   176   173    1
   210    92    93    2
   211    92    94   am
   212   172   173    1
   213   173   174    1
   214   175   174    2
