@<TRIPOS>MOLECULE
tmp/4jikA00.pdb
 167 157 0 0 0
SMALL
GASTEIGER

@<TRIPOS>ATOM
      1  N         14.7540   -6.9550    3.5520 N.3    12  LEU12      -0.1231
      2  CA        15.4250   -6.0170    4.4440 C.3    12  LEU12       0.1693
      3  C         15.5390   -6.5010    5.8850 C.2    12  LEU12       0.2593
      4  O         16.3640   -6.0060    6.6480 O.2    12  LEU12      -0.2718
      5  CB        14.7510   -4.6470    4.3870 C.3    12  LEU12       0.0284
      6  CG        15.1540   -3.7940    3.1860 C.3    12  LEU12       0.0019
      7  CD1       14.4020   -2.4770    3.1860 C.3    12  LEU12       0.0001
      8  CD2       16.6540   -3.5600    3.1810 C.3    12  LEU12       0.0001
      9  N         14.7120   -7.4680    6.2490 N.am   13  GLY13      -0.1942
     10  CA        14.7210   -8.0130    7.5980 C.3    13  GLY13       0.2014
     11  C         13.5360   -8.9440    7.7700 C.2    13  GLY13       0.2639
     12  O         13.0680   -9.5450    6.8030 O.2    13  GLY13      -0.2714
     13  N         13.0420   -9.0550    8.9980 N.am   14  GLU14      -0.1963
     14  CA        11.9030   -9.9160    9.2730 C.3    14  GLU14       0.1733
     15  C         11.5650   -9.9780   10.7530 C.2    14  GLU14       0.2616
     16  O         12.4500  -10.1090   11.6000 O.2    14  GLU14      -0.2715
     17  CB        12.1690  -11.3290    8.7570 C.3    14  GLU14       0.0429
     18  CG        12.9500  -12.1970    9.7290 C.3    14  GLU14       0.1163
     19  CD        13.3680  -13.5120    9.1210 C.2    14  GLU14       0.3649
     20  OE1       14.5290  -13.6170    8.6720 O.co2  14  GLU14      -0.2457
     21  OE2       12.5340  -14.4420    9.0860 O.co2  14  GLU14      -0.2457
     22  N         10.2730   -9.9120   11.0540 N.am   15  GLY15      -0.1955
     23  CA         9.7990  -10.0010   12.4260 C.3    15  GLY15       0.1869
     24  C          9.4340  -11.4490   12.7190 C.2    15  GLY15       0.2309
     25  O          9.9970  -12.3700   12.1280 O.2    15  GLY15      -0.2863
     26  N         10.2940   -8.3820    6.0580 N.3    19  VAL19      -0.1245
     27  CA        10.1940   -6.9990    5.6320 C.3    19  VAL19       0.1561
     28  C         10.9470   -6.8760    4.3230 C.2    19  VAL19       0.2260
     29  O         12.1380   -7.1750    4.2600 O.2    19  VAL19      -0.2867
     30  CB        10.7610   -6.0350    6.6900 C.3    19  VAL19       0.0252
     31  CG1       11.1480   -4.7210    6.0490 C.3    19  VAL19       0.0019
     32  CG2        9.7560   -5.8120    7.7970 C.3    19  VAL19       0.0019
     33  N          8.8170    0.4920    2.2240 N.3    32  ALA32      -0.1245
     34  CA         9.0670   -0.7860    2.8710 C.3    32  ALA32       0.1562
     35  C          7.7930   -1.6240    2.8720 C.2    32  ALA32       0.2260
     36  O          6.7020   -1.1090    3.1040 O.2    32  ALA32      -0.2867
     37  CB         9.5680   -0.5710    4.3050 C.3    32  ALA32       0.0290
     38  N          6.0510   -5.0020    4.5590 N.3    34  LYS34      -0.1245
     39  CA         6.0940   -6.0280    5.5940 C.3    34  LYS34       0.1561
     40  C          5.0620   -7.1050    5.2930 C.2    34  LYS34       0.2260
     41  O          3.8820   -6.8080    5.0980 O.2    34  LYS34      -0.2867
     42  CB         5.8270   -5.4140    6.9690 C.3    34  LYS34       0.0271
     43  CG         5.9520   -6.3980    8.1220 C.3    34  LYS34       0.0035
     44  CD         5.7640   -5.7050    9.4590 C.3    34  LYS34       0.0206
     45  CE         5.1580   -6.6440   10.4870 C.3    34  LYS34       0.1093
     46  NZ         5.2910   -6.1110   11.8710 N.3    34  LYS34      -0.1314
     47  N          7.5220    5.6000   12.0560 N.3    54  VAL54      -0.1245
     48  CA         7.4480    5.0530   10.7060 C.3    54  VAL54       0.1561
     49  C          6.0290    5.2470   10.1510 C.2    54  VAL54       0.2260
     50  O          5.0520    4.8210   10.7650 O.2    54  VAL54      -0.2867
     51  CB         7.8630    3.5750   10.6740 C.3    54  VAL54       0.0252
     52  CG1        7.4690    2.9430    9.3490 C.3    54  VAL54       0.0019
     53  CG2        9.3580    3.4370   10.9100 C.3    54  VAL54       0.0019
     54  N          4.9750    0.5640    4.4310 N.3    68  LEU68      -0.1231
     55  CA         5.4930    1.5340    5.3860 C.3    68  LEU68       0.1693
     56  C          6.6160    2.4130    4.8750 C.2    68  LEU68       0.2592
     57  O          7.3360    2.0580    3.9450 O.2    68  LEU68      -0.2718
     58  CB         5.9550    0.8100    6.6480 C.3    68  LEU68       0.0284
     59  CG         5.0330   -0.2980    7.1480 C.3    68  LEU68       0.0019
     60  CD1        5.8290   -1.4120    7.8190 C.3    68  LEU68       0.0001
     61  CD2        3.9980    0.2780    8.0970 C.3    68  LEU68       0.0001
     62  N          6.7780    3.5580    5.5180 N.am   69  GLU69      -0.1966
     63  CA         7.8330    4.4910    5.1690 C.3    69  GLU69       0.1733
     64  C          9.1660    3.7500    5.2070 C.2    69  GLU69       0.2616
     65  O          9.4590    3.0390    6.1660 O.2    69  GLU69      -0.2715
     66  CB         7.8360    5.6460    6.1630 C.3    69  GLU69       0.0429
     67  CG         9.0680    6.4990    6.1460 C.3    69  GLU69       0.1163
     68  CD         9.0020    7.6030    7.1800 C.2    69  GLU69       0.3649
     69  OE1        8.1580    7.5080    8.0950 O.co2  69  GLU69      -0.2457
     70  OE2        9.7800    8.5700    7.0730 O.co2  69  GLU69      -0.2457
     71  N          9.9480    3.8820    4.1400 N.am   70  TYR70      -0.1960
     72  CA        11.2350    3.1980    4.0390 C.3    70  TYR70       0.1771
     73  C         12.3370    3.9390    4.7790 C.2    70  TYR70       0.2620
     74  O         12.5510    5.1270    4.5660 O.2    70  TYR70      -0.2715
     75  CB        11.6290    3.0230    2.5670 C.3    70  TYR70       0.0574
     76  CG        13.0100    2.4490    2.3570 C.ar   70  TYR70      -0.0198
     77  CD1       13.3780    1.2420    2.9380 C.ar   70  TYR70      -0.0009
     78  CD2       13.9380    3.0980    1.5480 C.ar   70  TYR70      -0.0009
     79  CE1       14.6340    0.7080    2.7350 C.ar   70  TYR70       0.0417
     80  CE2       15.1970    2.5650    1.3370 C.ar   70  TYR70       0.0417
     81  CZ        15.5380    1.3740    1.9380 C.ar   70  TYR70       0.1957
     82  OH        16.7890    0.8420    1.7360 O.3    70  TYR70      -0.2866
     83  N         13.0310    3.2250    5.6540 N.am   71  CYS71      -0.1954
     84  CA        14.1350    3.7970    6.4180 C.3    71  CYS71       0.1843
     85  C         15.4120    3.0960    5.9680 C.2    71  CYS71       0.2626
     86  O         15.7280    2.0010    6.4210 O.2    71  CYS71      -0.2714
     87  CB        13.9030    3.6060    7.9220 C.3    71  CYS71       0.0997
     88  SG        12.3020    4.2680    8.5060 S.3    71  CYS71      -0.0797
     89  N         16.1060    3.7160    5.0230 N.am   72  SER72      -0.1936
     90  CA        17.3100    3.1310    4.4330 C.3    72  SER72       0.2055
     91  C         18.4900    3.0270    5.3940 C.2    72  SER72       0.2644
     92  O         19.4490    2.3040    5.1250 O.2    72  SER72      -0.2714
     93  CB        17.7200    3.9190    3.1900 C.3    72  SER72       0.2130
     94  OG        18.0910    5.2460    3.5360 O.3    72  SER72      -0.2179
     95  N         18.4260    3.7660    6.4990 N.am   73  GLY73      -0.1939
     96  CA        19.5070    3.7770    7.4910 C.3    73  GLY73       0.2014
     97  C         19.5680    2.5060    8.3320 C.2    73  GLY73       0.2639
     98  O         20.5620    2.2480    9.0110 O.2    73  GLY73      -0.2714
     99  N         18.5000    1.7210    8.2980 N.am   74  GLY74      -0.1939
    100  CA        18.4510    0.4630    9.0410 C.3    74  GLY74       0.2014
    101  C         18.0960    0.6510   10.5080 C.2    74  GLY74       0.2638
    102  O         17.5450    1.6800   10.8960 O.2    74  GLY74      -0.2714
    103  N         18.4240   -0.3570   11.3170 N.am   75  GLU75      -0.1977
    104  CA        18.1330   -0.3450   12.7470 C.3    75  GLU75       0.1602
    105  C         19.1710    0.3960   13.5680 C.2    75  GLU75       0.2287
    106  O         20.3690    0.3220   13.3060 O.2    75  GLU75      -0.2864
    107  CB        18.0280   -1.7770   13.2820 C.3    75  GLU75       0.0415
    108  CG        16.9330   -2.6270   12.6550 C.3    75  GLU75       0.1163
    109  CD        17.0110   -4.0720   13.1020 C.2    75  GLU75       0.3649
    110  OE1       17.8030   -4.3650   14.0130 O.co2  75  GLU75      -0.2457
    111  OE2       16.2960   -4.9190   12.5370 O.co2  75  GLU75      -0.2457
    112  N         22.2110   -1.6040   14.8820 N.3    78  ASP78      -0.1239
    113  CA        23.4740   -1.7700   14.1670 C.3    78  ASP78       0.1674
    114  C         24.4280   -0.5780   14.2310 C.2    78  ASP78       0.2266
    115  O         25.5630   -0.6500   13.7330 O.2    78  ASP78      -0.2867
    116  CB        23.2320   -2.2290   12.7270 C.3    78  ASP78       0.1410
    117  CG        22.5560   -3.5960   12.6580 C.2    78  ASP78       0.3668
    118  OD1       23.0420   -4.5330   13.3250 O.co2  78  ASP78      -0.2456
    119  OD2       21.5190   -3.7220   11.9750 O.co2  78  ASP78      -0.2456
    120  N         13.0100   -0.7890   21.6370 N.3   116  LYS116     -0.1245
    121  CA        14.3380   -1.3700   21.6930 C.3   116  LYS116      0.1561
    122  C         15.0210   -0.9940   20.3970 C.2   116  LYS116      0.2260
    123  O         14.3680   -0.5640   19.4560 O.2   116  LYS116     -0.2867
    124  CB        14.2830   -2.8980   21.9010 C.3   116  LYS116      0.0271
    125  CG        13.4960   -3.6720   20.8540 C.3   116  LYS116      0.0035
    126  CD        13.5220   -5.1890   21.1750 C.3   116  LYS116      0.0206
    127  CE        12.7720   -6.0020   20.1280 C.3   116  LYS116      0.1093
    128  NZ        12.5440   -7.4120   20.5860 N.3   116  LYS116     -0.1314
    129  N         16.2240   -2.5490   17.9880 N.3   118  GLU118     -0.1231
    130  CA        15.8030   -3.2870   16.8050 C.3   118  GLU118      0.1699
    131  C         14.5310   -2.6880   16.2170 C.2   118  GLU118      0.2592
    132  O         14.2170   -2.9130   15.0410 O.2   118  GLU118     -0.2718
    133  CB        15.5550   -4.7590   17.1560 C.3   118  GLU118      0.0402
    134  CG        16.7980   -5.5000   17.6170 C.3   118  GLU118      0.1161
    135  CD        16.9500   -5.5000   19.1170 C.2   118  GLU118      0.3649
    136  OE1       16.5350   -4.5120   19.7600 O.co2 118  GLU118     -0.2457
    137  OE2       17.4780   -6.4900   19.6590 O.co2 118  GLU118     -0.2457
    138  N         13.7790   -1.9540   17.0470 N.am  119  ASN119     -0.1974
    139  CA        12.5220   -1.3400   16.6090 C.3   119  ASN119      0.1688
    140  C         12.6120    0.1720   16.4260 C.2   119  ASN119      0.2292
    141  O         11.5930    0.8630   16.4120 O.2   119  ASN119     -0.2864
    142  CB        11.3790   -1.6890   17.5670 C.3   119  ASN119      0.1181
    143  CG        11.0350   -3.1650   17.5510 C.2   119  ASN119      0.2629
    144  OD1       11.3210   -3.8690   16.5900 O.2   119  ASN119     -0.2716
    145  ND2       10.4130   -3.6330   18.6120 N.am  119  ASN119     -0.0877
    146  N         14.3340    2.6630   13.7440 N.3   121  LEU121     -0.1245
    147  CA        15.0150    2.7240   12.4540 C.3   121  LEU121      0.1561
    148  C         15.5120    4.1160   12.1250 C.2   121  LEU121      0.2260
    149  O         15.1400    5.0950   12.7740 O.2   121  LEU121     -0.2867
    150  CB        14.1000    2.2150   11.3410 C.3   121  LEU121      0.0270
    151  CG        13.3580    0.9000   11.6130 C.3   121  LEU121      0.0019
    152  CD1       12.4270    0.5720   10.4480 C.3   121  LEU121      0.0001
    153  CD2       14.3360   -0.2500   11.8740 C.3   121  LEU121      0.0001
    154  N          9.3650    2.1310   15.1390 N.3   131  SER131     -0.1202
    155  CA         8.7930    1.1180   14.2510 C.3   131  SER131      0.2020
    156  C          8.2590   -0.1290   14.9720 C.2   131  SER131      0.2618
    157  O          8.4520   -0.3070   16.1850 O.2   131  SER131     -0.2717
    158  CB         9.8580    0.7130   13.2090 C.3   131  SER131      0.2103
    159  OG         9.5100   -0.4680   12.5090 O.3   131  SER131     -0.2182
    160  N          7.5740   -0.9850   14.2120 N.am  132  ASP132     -0.1973
    161  CA         7.0420   -2.2440   14.7330 C.3   132  ASP132      0.1709
    162  C          5.9890   -2.0600   15.8160 C.2   132  ASP132      0.2293
    163  O          6.2650   -2.2470   17.0030 O.2   132  ASP132     -0.2864
    164  CB         8.1790   -3.1250   15.2560 C.3   132  ASP132      0.1436
    165  CG         9.2270   -3.4440   14.1800 C.2   132  ASP132      0.3671
    166  OD1        9.5730   -4.6270   14.0240 O.co2 132  ASP132     -0.2456
    167  OD2        9.7310   -2.5070   13.5300 O.co2 132  ASP132     -0.2456
@<TRIPOS>BOND
     1    80    78   ar
     2    80    81   ar
     3    78    76   ar
     4    82    81    1
     5    81    79   ar
     6    33    34    1
     7    76    75    1
     8    76    77   ar
     9    75    72    1
    10    79    77   ar
    11    34    35    1
    12    34    37    1
    13    35    36    2
    14     8     6    1
    15     7     6    1
    16     6     5    1
    17    93    94    1
    18    93    90    1
    19     1     2    1
    20    57    56    2
    21    72    71    1
    22    72    73    1
    23    71    64   am
    24    29    28    2
    25    28    27    1
    26     5     2    1
    27    54    55    1
    28    90    89    1
    29    90    91    1
    30     2     3    1
    31    38    39    1
    32    74    73    2
    33    73    83   am
    34    56    55    1
    35    56    62   am
    36    89    85   am
    37    41    40    2
    38    92    91    2
    39    63    64    1
    40    63    62    1
    41    63    66    1
    42    64    65    2
    43    40    39    1
    44    55    58    1
    45    91    95   am
    46    39    42    1
    47    27    26    1
    48    27    30    1
    49    83    84    1
    50     3     9   am
    51     3     4    2
    52    85    84    1
    53    85    86    2
    54    31    30    1
    55    67    66    1
    56    67    68    1
    57     9    10    1
    58    84    87    1
    59    95    96    1
    60    58    59    1
    61    30    32    1
    62    12    11    2
    63    42    43    1
    64    70    68   ar
    65    59    60    1
    66    59    61    1
    67    68    69   ar
    68    96    97    1
    69    10    11    1
    70    11    13   am
    71    87    88    1
    72    43    44    1
    73    99    97   am
    74    99   100    1
    75    97    98    2
    76    20    19   ar
    77    17    14    1
    78    17    18    1
    79    13    14    1
    80   100   101    1
    81    21    19   ar
    82    19    18    1
    83    14    15    1
    84    52    51    1
    85    44    45    1
    86    49    48    1
    87    49    50    2
    88   152   151    1
    89    45    46    1
    90   101   102    2
    91   101   103   am
    92    51    48    1
    93    51    53    1
    94    48    47    1
    95    15    22   am
    96    15    16    2
    97    22    23    1
    98   103   104    1
    99   150   151    1
   100   150   147    1
   101   151   153    1
   102   119   117   ar
   103   148   147    1
   104   148   149    2
   105    25    24    2
   106    23    24    1
   107   147   146    1
   108   159   158    1
   109   111   109   ar
   110   108   109    1
   111   108   107    1
   112   117   116    1
   113   117   118   ar
   114   116   113    1
   115   104   107    1
   116   104   105    1
   117   109   110   ar
   118   158   155    1
   119   106   105    2
   120   167   165   ar
   121   115   114    2
   122   166   165   ar
   123   113   114    1
   124   113   112    1
   125   165   164    1
   126   160   161    1
   127   160   156   am
   128   155   156    1
   129   155   154    1
   130   161   164    1
   131   161   162    1
   132   156   157    2
   133   132   131    2
   134   162   163    2
   135   131   130    1
   136   131   138   am
   137   141   140    2
   138   140   139    1
   139   144   143    2
   140   139   138    1
   141   139   142    1
   142   130   133    1
   143   130   129    1
   144   133   134    1
   145   143   142    1
   146   143   145   am
   147   134   135    1
   148   135   137   ar
   149   135   136   ar
   150   123   122    2
   151   127   128    1
   152   127   126    1
   153   122   121    1
   154   125   126    1
   155   125   124    1
   156   120   121    1
   157   121   124    1
