@<TRIPOS>MOLECULE
tmp/4jinA00.pdb
 172 162 0 0 0
SMALL
GASTEIGER

@<TRIPOS>ATOM
      1  N         16.7430   -3.8230    1.9840 N.3    51  ILE51      -0.1231
      2  CA        16.4140   -4.5760    3.1990 C.3    51  ILE51       0.1692
      3  C         15.0690   -5.2920    3.0810 C.2    51  ILE51       0.2593
      4  O         14.9360   -6.4440    3.4790 O.2    51  ILE51      -0.2718
      5  CB        16.3190   -3.6610    4.4310 C.3    51  ILE51       0.0266
      6  CG1       17.6740   -3.0840    4.8020 C.3    51  ILE51       0.0019
      7  CG2       15.7630   -4.4260    5.6120 C.3    51  ILE51       0.0020
      8  CD1       17.5680   -2.0620    5.9200 C.3    51  ILE51       0.0001
      9  N         14.0560   -4.6040    2.5650 N.am   52  SER52      -0.1938
     10  CA        12.7890   -5.2680    2.2750 C.3    52  SER52       0.2055
     11  C         12.0660   -4.5900    1.1360 C.2    52  SER52       0.2644
     12  O         12.2320   -3.3930    0.8990 O.2    52  SER52      -0.2714
     13  CB        11.8840   -5.3750    3.5060 C.3    52  SER52       0.2130
     14  OG        11.3920   -4.1160    3.8840 O.3    52  SER52      -0.2179
     15  N         11.2880   -5.3850    0.4170 N.am   53  THR53      -0.1936
     16  CA        10.4770   -4.9130   -0.6900 C.3    53  THR53       0.2028
     17  C          9.0160   -5.1200   -0.3060 C.2    53  THR53       0.2642
     18  O          8.6970   -6.0210    0.4610 O.2    53  THR53      -0.2714
     19  CB        10.7760   -5.7300   -1.9450 C.3    53  THR53       0.1808
     20  OG1       10.6980   -7.1260   -1.6300 O.3    53  THR53      -0.2208
     21  CG2       12.1670   -5.4180   -2.4590 C.3    53  THR53       0.0379
     22  N          8.1270   -4.2870   -0.8280 N.am   54  GLY54      -0.1954
     23  CA         6.7210   -4.4040   -0.4920 C.3    54  GLY54       0.1869
     24  C          5.8480   -3.6350   -1.4580 C.2    54  GLY54       0.2309
     25  O          6.3500   -3.0010   -2.3910 O.2    54  GLY54      -0.2863
     26  N          3.4540   -1.1290   -0.5480 N.3    56  GLU56      -0.1231
     27  CA         3.3980    0.2770   -0.1560 C.3    56  GLU56       0.1699
     28  C          4.7690    0.9250    0.0510 C.2    56  GLU56       0.2592
     29  O          4.8910    2.1410   -0.0360 O.2    56  GLU56      -0.2718
     30  CB         2.5630    0.4390    1.1160 C.3    56  GLU56       0.0402
     31  CG         1.0680    0.2860    0.8990 C.3    56  GLU56       0.1161
     32  CD         0.4340   -0.7010    1.8660 C.2    56  GLU56       0.3649
     33  OE1        1.0950   -1.7110    2.2030 O.co2  56  GLU56      -0.2457
     34  OE2       -0.7230   -0.4660    2.2860 O.co2  56  GLU56      -0.2457
     35  N          5.7940    0.1280    0.3460 N.am   57  ALA57      -0.1980
     36  CA         7.0850    0.7100    0.7030 C.3    57  ALA57       0.1597
     37  C          8.2840   -0.2110    0.5100 C.2    57  ALA57       0.2287
     38  O          8.1850   -1.4290    0.6690 O.2    57  ALA57      -0.2864
     39  CB         7.0550    1.2260    2.1420 C.3    57  ALA57       0.0319
     40  N         12.4520   -0.6570    1.8030 N.3    59  VAL59      -0.1245
     41  CA        13.3970   -0.2360    2.8270 C.3    59  VAL59       0.1561
     42  C         14.8260   -0.5800    2.4330 C.2    59  VAL59       0.2260
     43  O         15.1040   -1.7220    2.0940 O.2    59  VAL59      -0.2867
     44  CB        13.0880   -0.8990    4.1790 C.3    59  VAL59       0.0252
     45  CG1       14.0640   -0.4070    5.2300 C.3    59  VAL59       0.0019
     46  CG2       11.6390   -0.6330    4.6020 C.3    59  VAL59       0.0019
     47  N         17.7000    2.4510    8.7280 N.3    74  ALA74      -0.1245
     48  CA        16.7780    1.9040    7.7480 C.3    74  ALA74       0.1562
     49  C         16.1770    3.1230    7.0820 C.2    74  ALA74       0.2260
     50  O         15.7700    4.0560    7.7680 O.2    74  ALA74      -0.2867
     51  CB        15.7000    1.0860    8.4080 C.3    74  ALA74       0.0290
     52  N         13.1810    4.0450    4.8040 N.3    76  LYS76      -0.1245
     53  CA        11.9190    3.4670    4.3640 C.3    76  LYS76       0.1561
     54  C         11.3150    4.4010    3.3440 C.2    76  LYS76       0.2260
     55  O         11.0700    5.5570    3.6310 O.2    76  LYS76      -0.2867
     56  CB        10.9760    3.3100    5.5530 C.3    76  LYS76       0.0271
     57  CG         9.6060    2.7150    5.2200 C.3    76  LYS76       0.0035
     58  CD         8.9270    2.2920    6.5190 C.3    76  LYS76       0.0206
     59  CE         7.7530    1.3530    6.2790 C.3    76  LYS76       0.1093
     60  NZ         7.2360    0.8100    7.5680 N.3    76  LYS76      -0.1314
     61  N          8.1520    5.1220    0.9730 N.3    78  TYR78      -0.1241
     62  CA         6.7820    4.8130    0.5470 C.3    78  TYR78       0.1605
     63  C          6.6690    5.0780   -0.9530 C.2    78  TYR78       0.2264
     64  O          7.0620    6.1520   -1.4170 O.2    78  TYR78      -0.2867
     65  CB         5.7410    5.6700    1.3090 C.3    78  TYR78       0.0534
     66  CG         5.3530    5.1200    2.6650 C.ar   78  TYR78      -0.0201
     67  CD1        4.1890    4.3810    2.8280 C.ar   78  TYR78      -0.0009
     68  CD2        6.1740    5.3220    3.7800 C.ar   78  TYR78      -0.0009
     69  CE1        3.8410    3.8450    4.0670 C.ar   78  TYR78       0.0417
     70  CE2        5.8390    4.8020    5.0240 C.ar   78  TYR78       0.0417
     71  CZ         4.6740    4.0600    5.1630 C.ar   78  TYR78       0.1957
     72  OH         4.3430    3.5410    6.3980 O.3    78  TYR78      -0.2866
     73  N          3.7950    7.4520   10.3480 N.3   116  GLU116     -0.1245
     74  CA         4.6950    6.4050   10.8120 C.3   116  GLU116      0.1567
     75  C          5.7850    7.0080   11.6990 C.2   116  GLU116      0.2260
     76  O          6.0750    6.4870   12.7700 O.2   116  GLU116     -0.2867
     77  CB         5.3010    5.6030    9.6560 C.3   116  GLU116      0.0388
     78  CG         6.2130    4.4910   10.1600 C.3   116  GLU116      0.1160
     79  CD         6.5530    3.4240    9.1150 C.2   116  GLU116      0.3649
     80  OE1        6.0350    3.4600    7.9770 O.co2 116  GLU116     -0.2457
     81  OE2        7.3490    2.5350    9.4560 O.co2 116  GLU116     -0.2457
     82  N         12.1790    0.9530   16.3720 N.3   131  PRO131     -0.2116
     83  CA        13.4060    1.6350   15.9410 C.3   131  PRO131      0.1372
     84  C         13.3120    3.1150   16.3120 C.2   131  PRO131      0.2244
     85  O         12.2330    3.6880   16.2020 O.2   131  PRO131     -0.2868
     86  CB        13.3900    1.4620   14.4160 C.3   131  PRO131      0.0268
     87  CG        12.4550    0.3090   14.1600 C.3   131  PRO131      0.0207
     88  CD        11.4170    0.4150   15.2300 C.3   131  PRO131      0.0892
     89  N         15.1450    5.8560   10.1150 N.3   143  MET143     -0.1230
     90  CA        15.0600    5.3830   11.4820 C.3   143  MET143      0.1702
     91  C         16.2310    4.4770   11.7930 C.2   143  MET143      0.2592
     92  O         16.9180    4.0260   10.8870 O.2   143  MET143     -0.2718
     93  CB        13.7470    4.5960   11.6750 C.3   143  MET143      0.0401
     94  CG        13.7220    3.2640   10.9510 C.3   143  MET143      0.0596
     95  SD        12.1210    2.4270   11.0060 S.3   143  MET143     -0.1393
     96  CE        11.4350    2.8670    9.4310 C.3   143  MET143      0.0692
     97  N         16.4280    4.2040   13.0780 N.am  144  GLU144     -0.1966
     98  CA        17.4150    3.2540   13.5540 C.3   144  GLU144      0.1733
     99  C         17.3630    1.9060   12.8270 C.2   144  GLU144      0.2616
    100  O         16.2930    1.3130   12.6600 O.2   144  GLU144     -0.2715
    101  CB        17.2220    3.0260   15.0510 C.3   144  GLU144      0.0429
    102  CG        18.2390    2.0610   15.6680 C.3   144  GLU144      0.1163
    103  CD        17.9400    1.7620   17.1300 C.2   144  GLU144      0.3649
    104  OE1       16.8330    2.1130   17.6160 O.co2 144  GLU144     -0.2457
    105  OE2       18.8180    1.1790   17.7940 O.co2 144  GLU144     -0.2457
    106  N         18.5270    1.4300   12.4000 N.am  145  PHE145     -0.1960
    107  CA        18.6310    0.1000   11.7840 C.3   145  PHE145      0.1771
    108  C         18.6850   -0.9580   12.8860 C.2   145  PHE145      0.2619
    109  O         19.5160   -0.8850   13.7850 O.2   145  PHE145     -0.2715
    110  CB        19.8790    0.0240   10.8880 C.3   145  PHE145      0.0574
    111  CG        20.1410   -1.3530   10.2900 C.ar  145  PHE145     -0.0200
    112  CD1       21.0870   -2.2020   10.8540 C.ar  145  PHE145     -0.0042
    113  CD2       19.4670   -1.7740    9.1530 C.ar  145  PHE145     -0.0042
    114  CE1       21.3340   -3.4640   10.3010 C.ar  145  PHE145     -0.0003
    115  CE2       19.6970   -3.0340    8.5950 C.ar  145  PHE145     -0.0003
    116  CZ        20.6320   -3.8820    9.1640 C.ar  145  PHE145     -0.0000
    117  N         17.7710   -1.9180   12.8410 N.am  146  ILE146     -0.1977
    118  CA        17.7450   -2.9840   13.8320 C.3   146  ILE146      0.1596
    119  C         18.4640   -4.2050   13.2620 C.2   146  ILE146      0.2287
    120  O         18.0090   -4.8350   12.2970 O.2   146  ILE146     -0.2864
    121  CB        16.3200   -3.3540   14.2770 C.3   146  ILE146      0.0276
    122  CG1       15.5370   -2.0940   14.6930 C.3   146  ILE146      0.0022
    123  CG2       16.3820   -4.3390   15.4610 C.3   146  ILE146      0.0022
    124  CD1       16.2580   -1.2790   15.7720 C.3   146  ILE146      0.0001
    125  N         19.9170   -7.2580    8.7880 N.3   152  PRO152     -0.2116
    126  CA        18.7210   -6.9580    9.5800 C.3   152  PRO152      0.1372
    127  C         18.4330   -8.0940   10.5410 C.2   152  PRO152      0.2244
    128  O         18.7490   -9.2580   10.2440 O.2   152  PRO152     -0.2868
    129  CB        17.6100   -6.8870    8.5310 C.3   152  PRO152      0.0268
    130  CG        18.3090   -6.7010    7.2260 C.3   152  PRO152      0.0207
    131  CD        19.6090   -7.4110    7.3570 C.3   152  PRO152      0.0892
    132  N          6.2110   -8.9910   11.4640 N.3   197  ASN197     -0.1240
    133  CA         6.7010   -7.6300   11.7310 C.3   197  ASN197      0.1653
    134  C          7.1570   -7.4370   13.1690 C.2   197  ASN197      0.2266
    135  O          7.0970   -6.3400   13.7180 O.2   197  ASN197     -0.2867
    136  CB         5.6650   -6.5710   11.3420 C.3   197  ASN197      0.1155
    137  CG         4.3030   -6.8570   11.9150 C.2   197  ASN197      0.2627
    138  OD1        4.1680   -7.5580   12.9200 O.2   197  ASN197     -0.2716
    139  ND2        3.2730   -6.3240   11.2730 N.am  197  ASN197     -0.0877
    140  N         10.7370   -8.3060   15.1790 N.3   199  MET199     -0.1245
    141  CA        12.1090   -8.7480   15.0590 C.3   199  MET199      0.1570
    142  C         12.6590   -9.1120   16.4380 C.2   199  MET199      0.2261
    143  O         12.1090   -8.6980   17.4620 O.2   199  MET199     -0.2867
    144  CB        12.9770   -7.6510   14.4180 C.3   199  MET199      0.0387
    145  CG        12.8160   -7.5040   12.9120 C.3   199  MET199      0.0595
    146  SD        13.9830   -6.2690   12.2240 S.3   199  MET199     -0.1393
    147  CE        13.9120   -6.6460   10.4720 C.3   199  MET199      0.0692
    148  N          8.5860   -3.4140   14.2890 N.3   207  ILE207     -0.1231
    149  CA         9.3780   -2.6590   13.3120 C.3   207  ILE207      0.1692
    150  C          8.5930   -1.9500   12.2290 C.2   207  ILE207      0.2592
    151  O          9.1770   -1.2100   11.4320 O.2   207  ILE207     -0.2718
    152  CB        10.4130   -3.5450   12.5950 C.3   207  ILE207      0.0266
    153  CG1        9.6880   -4.5870   11.7350 C.3   207  ILE207      0.0019
    154  CG2       11.3460   -4.1820   13.6050 C.3   207  ILE207      0.0020
    155  CD1       10.4630   -5.0000   10.5160 C.3   207  ILE207      0.0001
    156  N          7.2890   -2.1820   12.1610 N.am  208  ASP208     -0.1974
    157  CA         6.4770   -1.3730   11.2600 C.3   208  ASP208      0.1709
    158  C          5.3310   -0.6820   11.9850 C.2   208  ASP208      0.2293
    159  O          4.2880   -1.2870   12.2360 O.2   208  ASP208     -0.2864
    160  CB         5.9350   -2.1720   10.0810 C.3   208  ASP208      0.1436
    161  CG         4.8310   -1.4350    9.3650 C.2   208  ASP208      0.3671
    162  OD1        5.1110   -0.3950    8.7250 O.co2 208  ASP208     -0.2456
    163  OD2        3.6720   -1.8770    9.4760 O.co2 208  ASP208     -0.2456
    164  N          1.4740    0.8060   10.1520 N.3   211  GLN211     -0.1245
    165  CA         0.2440    0.0360   10.0520 C.3   211  GLN211      0.1566
    166  C         -0.4710    0.0310   11.4140 C.2   211  GLN211      0.2260
    167  O         -0.8260   -1.0090   11.9520 O.2   211  GLN211     -0.2867
    168  CB         0.5570   -1.3790    9.5510 C.3   211  GLN211      0.0367
    169  CG        -0.6610   -2.2120    9.2040 C.3   211  GLN211      0.0905
    170  CD        -0.3880   -3.2430    8.1260 C.2   211  GLN211      0.2608
    171  OE1        0.7270   -3.7690    8.0090 O.2   211  GLN211     -0.2717
    172  NE2       -1.4090   -3.5300    7.3190 N.am  211  GLN211     -0.0878
@<TRIPOS>BOND
     1    21    19    1
     2    25    24    2
     3    19    20    1
     4    19    16    1
     5    24    23    1
     6    64    63    2
     7    63    62    1
     8    22    23    1
     9    22    17   am
    10    16    17    1
    11    16    15    1
    12    26    27    1
    13    17    18    2
    14    27    28    1
    15    27    30    1
    16    29    28    2
    17    28    35   am
    18    35    36    1
    19    15    11   am
    20    37    38    2
    21    37    36    1
    22    62    61    1
    23    62    65    1
    24    36    39    1
    25    31    30    1
    26    31    32    1
    27    12    11    2
    28    11    10    1
    29    65    66    1
    30    40    41    1
    31    32    33   ar
    32    32    34   ar
    33     1     2    1
    34    43    42    2
    35    10     9    1
    36    10    13    1
    37    42    41    1
    38     9     3   am
    39    66    67   ar
    40    66    68   ar
    41    41    44    1
    42    67    69   ar
    43     3     2    1
    44     3     4    2
    45     2     5    1
    46    54    55    2
    47    54    53    1
    48    13    14    1
    49    68    70   ar
    50    69    71   ar
    51    44    46    1
    52    44    45    1
    53    53    52    1
    54    53    56    1
    55     5     6    1
    56     5     7    1
    57     6     8    1
    58    70    71   ar
    59    71    72    1
    60    57    56    1
    61    57    58    1
    62    59    58    1
    63    59    60    1
    64    49    48    1
    65    49    50    2
    66   130   131    1
    67   130   129    1
    68   172   170   am
    69   131   125    1
    70    48    51    1
    71    48    47    1
    72    80    79   ar
    73   171   170    2
    74   170   169    1
    75   129   126    1
    76   115   113   ar
    77   115   116   ar
    78   162   161   ar
    79   125   126    1
    80    79    81   ar
    81    79    78    1
    82   113   111   ar
    83   116   114   ar
    84   169   168    1
    85   161   163   ar
    86   161   160    1
    87    96    95    1
    88   168   165    1
    89   126   127    1
    90    77    78    1
    91    77    74    1
    92   165   164    1
    93   165   166    1
    94   160   157    1
    95    89    90    1
    96   128   127    2
    97   111   112   ar
    98   111   110    1
    99   114   112   ar
   100    73    74    1
   101   147   146    1
   102   155   153    1
   103    74    75    1
   104    92    91    2
   105   110   107    1
   106    94    95    1
   107    94    93    1
   108   157   158    1
   109   157   156    1
   110   139   137   am
   111   136   133    1
   112   136   137    1
   113   166   167    2
   114   151   150    2
   115   132   133    1
   116    90    93    1
   117    90    91    1
   118    75    76    2
   119   133   134    1
   120   153   152    1
   121   107   106    1
   122   107   108    1
   123    91    97   am
   124   137   138    2
   125   158   159    2
   126   156   150   am
   127   146   145    1
   128   150   149    1
   129   120   119    2
   130   106    99   am
   131   152   149    1
   132   152   154    1
   133   100    99    2
   134    99    98    1
   135   117   108   am
   136   117   118    1
   137   108   109    2
   138   145   144    1
   139    97    98    1
   140   134   135    2
   141   119   118    1
   142   149   148    1
   143    98   101    1
   144   118   121    1
   145    87    86    1
   146    87    88    1
   147   121   122    1
   148   121   123    1
   149    86    83    1
   150   144   141    1
   151   122   124    1
   152   101   102    1
   153   141   140    1
   154   141   142    1
   155    88    82    1
   156   102   103    1
   157    83    84    1
   158    83    82    1
   159    85    84    2
   160   142   143    2
   161   103   104   ar
   162   103   105   ar
