@<TRIPOS>MOLECULE
tmp/4jipA00.pdb
 221 216 0 0 0
SMALL
GASTEIGER

@<TRIPOS>ATOM
      1  N         -6.3000    6.2650    1.6200 N.3    21  ALA21      -0.1231
      2  CA        -5.9600    4.9320    2.1000 C.3    21  ALA21       0.1679
      3  C         -5.8670    4.9280    3.6220 C.2    21  ALA21       0.2434
      4  O         -5.5960    5.9690    4.2270 O.2    21  ALA21      -0.2733
      5  CB        -4.6480    4.4610    1.4810 C.3    21  ALA21       0.0304
      6  N         -6.1060    3.7580    4.2470 N.am   22  PRO22      -0.2718
      7  CA        -5.8920    3.6110    5.6950 C.3    22  PRO22       0.1535
      8  C         -4.4190    3.7830    6.0580 C.2    22  PRO22       0.2598
      9  O         -3.5590    3.1570    5.4310 O.2    22  PRO22      -0.2715
     10  CB        -6.3340    2.1620    5.9770 C.3    22  PRO22       0.0310
     11  CG        -6.2390    1.4580    4.6410 C.3    22  PRO22       0.0237
     12  CD        -6.6090    2.5140    3.6310 C.3    22  PRO22       0.0939
     13  N         -4.1380    4.6140    7.0590 N.am   23  LEU23      -0.1964
     14  CA        -2.7580    4.9080    7.4420 C.3    23  LEU23       0.1728
     15  C         -2.5430    4.9670    8.9590 C.2    23  LEU23       0.2617
     16  O         -2.8290    5.9830    9.6000 O.2    23  LEU23      -0.2715
     17  CB        -2.2960    6.2160    6.7920 C.3    23  LEU23       0.0311
     18  CG        -2.3090    6.3080    5.2580 C.3    23  LEU23       0.0022
     19  CD1       -2.4570    7.7580    4.8260 C.3    23  LEU23       0.0001
     20  CD2       -1.0600    5.6870    4.6410 C.3    23  LEU23       0.0001
     21  N         -2.0390    3.8660    9.5130 N.am   24  THR24      -0.1937
     22  CA        -1.5920    3.7840   10.9070 C.3    24  THR24       0.2028
     23  C         -0.5840    4.8950   11.2110 C.2    24  THR24       0.2642
     24  O          0.4640    4.9740   10.5660 O.2    24  THR24      -0.2714
     25  CB        -0.9260    2.4030   11.1860 C.3    24  THR24       0.1808
     26  OG1       -1.8880    1.3600   10.9990 O.3    24  THR24      -0.2208
     27  CG2       -0.3740    2.3250   12.6050 C.3    24  THR24       0.0379
     28  N         -0.9090    5.7460   12.1860 N.am   25  ARG25      -0.1977
     29  CA        -0.0760    6.9070   12.5450 C.3    25  ARG25       0.1597
     30  C          0.3960    6.8740   14.0100 C.2    25  ARG25       0.2287
     31  O          1.2450    7.6780   14.4190 O.2    25  ARG25      -0.2864
     32  CB        -0.8280    8.2210   12.2810 C.3    25  ARG25       0.0334
     33  CG        -1.4180    8.3680   10.8810 C.3    25  ARG25       0.0492
     34  CD        -0.3750    8.1240    9.7970 C.3    25  ARG25       0.2205
     35  NE         0.7930    8.9780    9.9830 N.pl3  25  ARG25      -0.0865
     36  CZ         0.8860   10.2310    9.5370 C.cat  25  ARG25       0.5346
     37  NH1        1.9880   10.9370    9.7580 N.pl3  25  ARG25       0.1354
     38  NH2       -0.1190   10.7810    8.8670 N.pl3  25  ARG25       0.1354
     39  N         -5.9630    1.6790   10.6660 N.3    54  GLY54      -0.1225
     40  CA        -6.4370    0.4540   11.2800 C.3    54  GLY54       0.1811
     41  C         -6.9370    0.7290   12.6900 C.2    54  GLY54       0.2280
     42  O         -6.2370    1.3430   13.4950 O.2    54  GLY54      -0.2866
     43  N        -11.6380    1.3010    9.3100 N.3    96  GLN96      -0.1245
     44  CA       -11.0100    0.0300    8.9520 C.3    96  GLN96       0.1566
     45  C        -10.8970   -0.8650   10.1870 C.2    96  GLN96       0.2260
     46  O         -9.9020   -0.7990   10.9220 O.2    96  GLN96      -0.2867
     47  CB        -9.6300    0.2180    8.2980 C.3    96  GLN96       0.0367
     48  CG        -9.0400   -1.1030    7.7790 C.3    96  GLN96       0.0905
     49  CD        -7.5980   -1.0110    7.2870 C.2    96  GLN96       0.2608
     50  OE1       -6.7380   -0.4190    7.9380 O.2    96  GLN96      -0.2717
     51  NE2       -7.3300   -1.6170    6.1300 N.am   96  GLN96      -0.0878
     52  N        -10.0690   -3.8010   12.5130 N.3    98  TRP98      -0.1241
     53  CA        -8.7860   -4.4700   12.4130 C.3    98  TRP98       0.1605
     54  C         -8.6230   -5.5900   13.4480 C.2    98  TRP98       0.2264
     55  O         -9.0920   -5.4890   14.5790 O.2    98  TRP98      -0.2867
     56  CB        -7.7000   -3.4120   12.6320 C.3    98  TRP98       0.0550
     57  CG        -6.3460   -3.7620   12.1220 C.ar   98  TRP98       0.0003
     58  CD1       -6.0140   -4.8100   11.3250 C.ar   98  TRP98       0.0946
     59  CD2       -5.1320   -3.0430   12.3760 C.ar   98  TRP98       0.0152
     60  NE1       -4.6670   -4.7910   11.0580 N.ar   98  TRP98      -0.2442
     61  CE2       -4.1010   -3.7190   11.6970 C.ar   98  TRP98       0.0810
     62  CE3       -4.8170   -1.8930   13.1130 C.ar   98  TRP98       0.0012
     63  CZ2       -2.7740   -3.2850   11.7300 C.ar   98  TRP98       0.0191
     64  CZ3       -3.4980   -1.4600   13.1390 C.ar   98  TRP98       0.0001
     65  CH2       -2.4940   -2.1560   12.4530 C.ar   98  TRP98       0.0015
     66  N        -10.4990   -5.0250    7.3810 N.3   177  HIS177     -0.1241
     67  CA        -9.0890   -5.2300    7.0640 C.3   177  HIS177      0.1621
     68  C         -8.7900   -6.7330    6.9160 C.2   177  HIS177      0.2264
     69  O         -8.6920   -7.4640    7.9060 O.2   177  HIS177     -0.2867
     70  CB        -8.1830   -4.5890    8.1280 C.3   177  HIS177      0.0745
     71  CG        -6.7590   -4.4370    7.6980 C.ar  177  HIS177      0.0817
     72  ND1       -6.2200   -5.1050    6.6150 N.ar  177  HIS177     -0.2268
     73  CD2       -5.7490   -3.6780    8.2040 C.ar  177  HIS177      0.1154
     74  CE1       -4.9520   -4.7690    6.4770 C.ar  177  HIS177      0.1986
     75  NE2       -4.6410   -3.9090    7.4240 N.ar  177  HIS177     -0.2212
     76  N         -2.6120   -7.4100    4.0410 N.3   180  ASN180     -0.1240
     77  CA        -1.3160   -7.1240    4.6450 C.3   180  ASN180      0.1653
     78  C         -0.8510   -8.0790    5.7570 C.2   180  ASN180      0.2266
     79  O         -0.2230   -7.6560    6.7330 O.2   180  ASN180     -0.2867
     80  CB        -1.2840   -5.6600    5.1070 C.3   180  ASN180      0.1155
     81  CG        -1.5080   -4.6880    3.9580 C.2   180  ASN180      0.2627
     82  OD1       -1.2050   -5.0000    2.7990 O.2   180  ASN180     -0.2716
     83  ND2       -2.0440   -3.5090    4.2680 N.am  180  ASN180     -0.0877
     84  N         -2.4110   -9.7010    8.1110 N.3   182  TYR182     -0.1241
     85  CA        -3.0560   -9.7050    9.4260 C.3   182  TYR182      0.1605
     86  C         -3.9580  -10.9230    9.6140 C.2   182  TYR182      0.2264
     87  O         -3.9130  -11.8410    8.7920 O.2   182  TYR182     -0.2867
     88  CB        -3.7500   -8.3720    9.7080 C.3   182  TYR182      0.0534
     89  CG        -2.7200   -7.2770    9.7710 C.ar  182  TYR182     -0.0201
     90  CD1       -1.8530   -7.1840   10.8480 C.ar  182  TYR182     -0.0009
     91  CD2       -2.5570   -6.3860    8.7170 C.ar  182  TYR182     -0.0009
     92  CE1       -0.8800   -6.2100   10.8900 C.ar  182  TYR182      0.0417
     93  CE2       -1.5870   -5.4090    8.7520 C.ar  182  TYR182      0.0417
     94  CZ        -0.7530   -5.3270    9.8380 C.ar  182  TYR182      0.1957
     95  OH         0.2110   -4.3570    9.8690 O.3   182  TYR182     -0.2866
     96  N        -10.7940   -4.8740    2.5490 N.3   229  ARG229     -0.1245
     97  CA        -9.5320   -4.6830    1.8450 C.3   229  ARG229      0.1563
     98  C         -8.8210   -6.0150    1.6480 C.2   229  ARG229      0.2260
     99  O         -8.6860   -6.7860    2.5850 O.2   229  ARG229     -0.2867
    100  CB        -8.6200   -3.7190    2.6010 C.3   229  ARG229      0.0307
    101  CG        -7.3760   -3.3250    1.8120 C.3   229  ARG229      0.0489
    102  CD        -6.6030   -2.1940    2.4750 C.3   229  ARG229      0.2205
    103  NE        -6.1590   -1.2020    1.4970 N.pl3 229  ARG229     -0.0865
    104  CZ        -5.0380   -0.4960    1.6020 C.cat 229  ARG229      0.5346
    105  NH1       -4.2400   -0.6740    2.6440 N.pl3 229  ARG229      0.1354
    106  NH2       -4.7110    0.3870    0.6660 N.pl3 229  ARG229      0.1354
    107  N         -5.1280   -3.9670   -2.7520 N.3   266  VAL266     -0.1245
    108  CA        -3.7350   -3.5610   -2.8130 C.3   266  VAL266      0.1561
    109  C         -3.0930   -4.3310   -3.9510 C.2   266  VAL266      0.2260
    110  O         -3.0300   -5.5590   -3.9080 O.2   266  VAL266     -0.2867
    111  CB        -2.9760   -3.8460   -1.4950 C.3   266  VAL266      0.0252
    112  CG1       -1.4960   -3.5400   -1.6610 C.3   266  VAL266      0.0019
    113  CG2       -3.5480   -3.0230   -0.3570 C.3   266  VAL266      0.0019
    114  N          2.6330   -4.3310   -0.8050 N.3   270  THR270     -0.1203
    115  CA         2.1180   -3.1420   -0.1240 C.3   270  THR270      0.1994
    116  C          3.2340   -2.1160    0.0750 C.2   270  THR270      0.2618
    117  O          4.1820   -2.3580    0.8250 O.2   270  THR270     -0.2717
    118  CB         1.4810   -3.4800    1.2470 C.3   270  THR270      0.1784
    119  OG1        0.6060   -4.6070    1.1100 O.3   270  THR270     -0.2211
    120  CG2        0.6950   -2.2730    1.7870 C.3   270  THR270      0.0376
    121  N          3.1280   -0.9850   -0.6200 N.am  271  GLY271     -0.1956
    122  CA         4.1740    0.0240   -0.5930 C.3   271  GLY271      0.1869
    123  C          5.3940   -0.3760   -1.4110 C.2   271  GLY271      0.2309
    124  O          6.4230    0.3070   -1.3760 O.2   271  GLY271     -0.2863
    125  N         -5.3750    0.3300   -5.0990 N.3   304  ASN304     -0.1225
    126  CA        -4.2930    0.9980   -4.3870 C.3   304  ASN304      0.1785
    127  C         -2.9220    0.4190   -4.7210 C.2   304  ASN304      0.2597
    128  O         -2.8180   -0.7500   -5.1060 O.2   304  ASN304     -0.2718
    129  CB        -4.5250    0.9410   -2.8700 C.3   304  ASN304      0.1169
    130  CG        -3.2840    1.3250   -2.0730 C.2   304  ASN304      0.2627
    131  OD1       -2.4500    0.4750   -1.7560 O.2   304  ASN304     -0.2716
    132  ND2       -3.1430    2.6140   -1.7710 N.am  304  ASN304     -0.0877
    133  N         -1.9120    1.2900   -4.6090 N.am  305  ASN305     -0.1960
    134  CA        -0.4770    0.9780   -4.4900 C.3   305  ASN305      0.1819
    135  C          0.3880    1.5350   -5.6160 C.2   305  ASN305      0.2622
    136  O          0.3220    1.0680   -6.7490 O.2   305  ASN305     -0.2715
    137  CB        -0.1820   -0.5120   -4.2600 C.3   305  ASN305      0.1195
    138  CG         1.2470   -0.7570   -3.8640 C.2   305  ASN305      0.2630
    139  OD1        1.7820   -0.0990   -2.9650 O.2   305  ASN305     -0.2716
    140  ND2        1.8890   -1.6940   -4.5450 N.am  305  ASN305     -0.0877
    141  N          1.1950    2.5400   -5.2930 N.am  306  GLY306     -0.1940
    142  CA         2.1000    3.1450   -6.2590 C.3   306  GLY306      0.2014
    143  C          1.4300    3.9650   -7.3420 C.2   306  GLY306      0.2638
    144  O          2.0380    4.2370   -8.3730 O.2   306  GLY306     -0.2714
    145  N          0.1820    4.3610   -7.1250 N.am  307  TYR307     -0.1973
    146  CA        -0.5120    5.2060   -8.0890 C.3   307  TYR307      0.1639
    147  C         -0.0710    6.6590   -7.9860 C.2   307  TYR307      0.2290
    148  O          0.1740    7.1540   -6.8840 O.2   307  TYR307     -0.2864
    149  CB        -2.0170    5.1420   -7.8550 C.3   307  TYR307      0.0560
    150  CG        -2.6840    3.9490   -8.4890 C.ar  307  TYR307     -0.0198
    151  CD1       -2.9750    3.9410   -9.8440 C.ar  307  TYR307     -0.0009
    152  CD2       -3.0370    2.8370   -7.7330 C.ar  307  TYR307     -0.0009
    153  CE1       -3.5910    2.8580  -10.4320 C.ar  307  TYR307      0.0417
    154  CE2       -3.6560    1.7440   -8.3180 C.ar  307  TYR307      0.0417
    155  CZ        -3.9320    1.7640   -9.6660 C.ar  307  TYR307      0.1957
    156  OH        -4.5480    0.6910  -10.2630 O.3   307  TYR307     -0.2866
    157  N         -7.1370    4.6610   -4.2360 N.3   325  ALA325     -0.1231
    158  CA        -6.7570    5.0110   -2.8720 C.3   325  ALA325      0.1694
    159  C         -5.2850    5.4120   -2.7990 C.2   325  ALA325      0.2592
    160  O         -4.4140    4.6640   -3.2450 O.2   325  ALA325     -0.2718
    161  CB        -7.0460    3.8580   -1.9160 C.3   325  ALA325      0.0304
    162  N         -5.0190    6.5900   -2.2410 N.am  326  PHE326     -0.1962
    163  CA        -3.6530    7.0640   -2.0300 C.3   326  PHE326      0.1771
    164  C         -3.2840    7.0210   -0.5480 C.2   326  PHE326      0.2620
    165  O         -4.0210    7.5210    0.3070 O.2   326  PHE326     -0.2715
    166  CB        -3.4740    8.5010   -2.5520 C.3   326  PHE326      0.0574
    167  CG        -3.8560    8.6830   -4.0010 C.ar  326  PHE326     -0.0200
    168  CD1       -5.1810    8.8710   -4.3630 C.ar  326  PHE326     -0.0042
    169  CD2       -2.8880    8.6760   -5.0020 C.ar  326  PHE326     -0.0042
    170  CE1       -5.5340    9.0340   -5.6910 C.ar  326  PHE326     -0.0003
    171  CE2       -3.2370    8.8380   -6.3320 C.ar  326  PHE326     -0.0003
    172  CZ        -4.5600    9.0190   -6.6780 C.ar  326  PHE326     -0.0000
    173  N         -2.1400    6.4170   -0.2510 N.am  327  GLY327     -0.1940
    174  CA        -1.6240    6.4020    1.1040 C.3   327  GLY327      0.2014
    175  C         -0.7050    7.5860    1.3480 C.2   327  GLY327      0.2639
    176  O         -1.1480    8.6460    1.8020 O.2   327  GLY327     -0.2714
    177  N          0.5710    7.4050    1.0180 N.am  328  LYS328     -0.1963
    178  CA         1.6070    8.3790    1.3430 C.3   328  LYS328      0.1728
    179  C          1.3170    9.7850    0.8260 C.2   328  LYS328      0.2616
    180  O          1.6950   10.7620    1.4610 O.2   328  LYS328     -0.2715
    181  CB         2.9820    7.8910    0.8710 C.3   328  LYS328      0.0311
    182  CG         3.4460    6.6160    1.5730 C.3   328  LYS328      0.0038
    183  CD         4.8960    6.2560    1.2430 C.3   328  LYS328      0.0206
    184  CE         5.0910    6.0120   -0.2440 C.3   328  LYS328      0.1093
    185  NZ         4.2510    4.8870   -0.7430 N.3   328  LYS328     -0.1314
    186  N          0.6350    9.8830   -0.3110 N.am  329  ALA329     -0.1977
    187  CA         0.3170   11.1780   -0.8980 C.3   329  ALA329      0.1597
    188  C         -0.6690   11.9510   -0.0250 C.2   329  ALA329      0.2287
    189  O         -0.6660   13.1780   -0.0120 O.2   329  ALA329     -0.2864
    190  CB        -0.2350   11.0090   -2.3010 C.3   329  ALA329      0.0319
    191  N         -0.8960   11.4390    3.3370 N.3   331  ILE331     -0.1245
    192  CA        -0.1010   11.8510    4.4800 C.3   331  ILE331      0.1561
    193  C          0.4420   13.2480    4.1950 C.2   331  ILE331      0.2260
    194  O          0.2700   14.1660    4.9910 O.2   331  ILE331     -0.2867
    195  CB         1.0890   10.8890    4.7360 C.3   331  ILE331      0.0252
    196  CG1        0.5940    9.5210    5.2250 C.3   331  ILE331      0.0019
    197  CG2        2.0610   11.4950    5.7380 C.3   331  ILE331      0.0019
    198  CD1        1.7050    8.5930    5.6810 C.3   331  ILE331      0.0001
    199  N          6.0110    9.2740   10.0480 N.3   354  PHE354     -0.1227
    200  CA         4.8290    8.4560    9.7740 C.3   354  PHE354      0.1736
    201  C          4.1960    7.9650   11.0750 C.2   354  PHE354      0.2595
    202  O          2.9840    8.0650   11.2670 O.2   354  PHE354     -0.2718
    203  CB         5.1780    7.2580    8.8830 C.3   354  PHE354      0.0547
    204  CG         5.3560    7.6090    7.4250 C.ar  354  PHE354     -0.0202
    205  CD1        5.2000    8.9200    6.9840 C.ar  354  PHE354     -0.0042
    206  CD2        5.6680    6.6220    6.4930 C.ar  354  PHE354     -0.0042
    207  CE1        5.3610    9.2420    5.6410 C.ar  354  PHE354     -0.0003
    208  CE2        5.8300    6.9340    5.1510 C.ar  354  PHE354     -0.0003
    209  CZ         5.6770    8.2450    4.7230 C.ar  354  PHE354     -0.0000
    210  N          5.0360    7.4640   11.9730 N.am  355  TYR355     -0.1976
    211  CA         4.5720    6.7680   13.1670 C.3   355  TYR355      0.1639
    212  C          4.8850    7.5030   14.4690 C.2   355  TYR355      0.2290
    213  O          6.0250    7.9180   14.6960 O.2   355  TYR355     -0.2864
    214  CB         5.2080    5.3810   13.2160 C.3   355  TYR355      0.0560
    215  CG         5.1250    4.6440   11.9070 C.ar  355  TYR355     -0.0198
    216  CD1        3.9230    4.1020   11.4730 C.ar  355  TYR355     -0.0009
    217  CD2        6.2430    4.4930   11.0990 C.ar  355  TYR355     -0.0009
    218  CE1        3.8360    3.4220   10.2800 C.ar  355  TYR355      0.0417
    219  CE2        6.1640    3.8120    9.8930 C.ar  355  TYR355      0.0417
    220  CZ         4.9540    3.2780    9.4930 C.ar  355  TYR355      0.1957
    221  OH         4.8470    2.5950    8.3020 O.3   355  TYR355     -0.2866
@<TRIPOS>BOND
     1   153   151   ar
     2   153   155   ar
     3   156   155    1
     4   151   150   ar
     5   155   154   ar
     6   150   149    1
     7   150   152   ar
     8   144   143    2
     9   154   152   ar
    10   146   147    1
    11   146   149    1
    12   146   145    1
    13   147   148    2
    14   143   145   am
    15   143   142    1
    16   136   135    2
    17   172   171   ar
    18   172   170   ar
    19   171   169   ar
    20   142   141    1
    21   170   168   ar
    22   135   141   am
    23   135   134    1
    24   128   127    2
    25   125   126    1
    26   169   167   ar
    27   127   133   am
    28   127   126    1
    29   133   134    1
    30   140   138   am
    31   134   137    1
    32   126   129    1
    33   168   167   ar
    34   137   138    1
    35   157   158    1
    36   167   166    1
    37   109   110    2
    38   109   108    1
    39   138   139    2
    40   160   159    2
    41   158   159    1
    42   158   161    1
    43   129   130    1
    44   108   107    1
    45   108   111    1
    46   159   162   am
    47   166   163    1
    48   190   187    1
    49   162   163    1
    50   130   132   am
    51   130   131    2
    52   163   164    1
    53   112   111    1
    54   111   113    1
    55   123   124    2
    56   123   122    1
    57   187   186    1
    58   187   188    1
    59   114   115    1
    60   185   184    1
    61   121   122    1
    62   121   116   am
    63   164   173   am
    64   164   165    2
    65   186   179   am
    66   173   174    1
    67   184   183    1
    68   115   116    1
    69   115   118    1
    70   188   189    2
    71   116   117    2
    72   106   104    1
    73   179   178    1
    74   179   180    2
    75   181   178    1
    76   181   182    1
    77   177   178    1
    78   177   175   am
    79   174   175    1
    80   119   118    1
    81   183   182    1
    82   118   120    1
    83   175   176    2
    84     5     2    1
    85   103   104    2
    86   103   102    1
    87   104   105    1
    88     1     2    1
    89    98    97    1
    90    98    99    2
    91   101   102    1
    92   101   100    1
    93    97    96    1
    94    97   100    1
    95     2     3    1
    96    82    81    2
    97   191   192    1
    98     3     4    2
    99     3     6   am
   100    12     6    1
   101    12    11    1
   102    81    83   am
   103    81    80    1
   104    76    77    1
   105   193   192    1
   106   193   194    2
   107     6     7    1
   108   192   195    1
   109    11    10    1
   110    20    18    1
   111    77    80    1
   112    77    78    1
   113   209   208   ar
   114   209   207   ar
   115   195   196    1
   116   195   197    1
   117    19    18    1
   118   208   206   ar
   119   196   198    1
   120    18    17    1
   121     9     8    2
   122   207   205   ar
   123     7    10    1
   124     7     8    1
   125    78    79    2
   126     8    13   am
   127    51    49   am
   128    74    72   ar
   129    74    75   ar
   130   206   204   ar
   131    72    71   ar
   132    17    14    1
   133    68    67    1
   134    68    69    2
   135   205   204   ar
   136    13    14    1
   137    67    66    1
   138    67    70    1
   139    49    48    1
   140    49    50    2
   141    75    73   ar
   142   204   203    1
   143    14    15    1
   144    71    70    1
   145    71    73   ar
   146    48    47    1
   147    84    85    1
   148    47    44    1
   149   221   220    1
   150    91    93   ar
   151    91    89   ar
   152    93    94   ar
   153    87    86    2
   154    38    36    1
   155   203   200    1
   156    44    43    1
   157    44    45    1
   158    15    21   am
   159    15    16    2
   160    85    86    1
   161    85    88    1
   162   220   219   ar
   163   220   218   ar
   164    21    22    1
   165    36    37    1
   166    36    35    2
   167    88    89    1
   168    89    90   ar
   169   200   199    1
   170   200   201    1
   171    34    35    1
   172    34    33    1
   173    94    95    1
   174    94    92   ar
   175   219   217   ar
   176    45    46    2
   177   218   216   ar
   178    24    23    2
   179    39    40    1
   180    90    92   ar
   181    33    32    1
   182    22    25    1
   183    22    23    1
   184    26    25    1
   185    60    58   ar
   186    60    61   ar
   187   201   202    2
   188   201   210   am
   189   217   215   ar
   190    25    27    1
   191    23    28   am
   192    40    41    1
   193    58    57   ar
   194   216   215   ar
   195    61    63   ar
   196    61    59   ar
   197    63    65   ar
   198   215   214    1
   199   210   211    1
   200    57    59   ar
   201    57    56    1
   202    28    29    1
   203    32    29    1
   204    59    62   ar
   205    53    52    1
   206    53    56    1
   207    53    54    1
   208    65    64   ar
   209    29    30    1
   210    41    42    2
   211    62    64   ar
   212   211   214    1
   213   211   212    1
   214    54    55    2
   215    30    31    2
   216   212   213    2
