@<TRIPOS>MOLECULE
tmp/4jipA01.pdb
 126 120 0 0 0
SMALL
GASTEIGER

@<TRIPOS>ATOM
      1  N         -6.1060    3.7580    4.2470 N.3    22  PRO22      -0.2116
      2  CA        -5.8920    3.6110    5.6950 C.3    22  PRO22       0.1372
      3  C         -4.4190    3.7830    6.0580 C.2    22  PRO22       0.2244
      4  O         -3.5590    3.1570    5.4310 O.2    22  PRO22      -0.2868
      5  CB        -6.3340    2.1620    5.9770 C.3    22  PRO22       0.0268
      6  CG        -6.2390    1.4580    4.6410 C.3    22  PRO22       0.0207
      7  CD        -6.6090    2.5140    3.6310 C.3    22  PRO22       0.0892
      8  N         -2.0390    3.8660    9.5130 N.3    24  THR24      -0.1218
      9  CA        -1.5920    3.7840   10.9070 C.3    24  THR24       0.1862
     10  C         -0.5840    4.8950   11.2110 C.2    24  THR24       0.2287
     11  O          0.4640    4.9740   10.5660 O.2    24  THR24      -0.2866
     12  CB        -0.9260    2.4030   11.1860 C.3    24  THR24       0.1770
     13  OG1       -1.8880    1.3600   10.9990 O.3    24  THR24      -0.2211
     14  CG2       -0.3740    2.3250   12.6050 C.3    24  THR24       0.0375
     15  N         -5.9630    1.6790   10.6660 N.3    54  GLY54      -0.1225
     16  CA        -6.4370    0.4540   11.2800 C.3    54  GLY54       0.1811
     17  C         -6.9370    0.7290   12.6900 C.2    54  GLY54       0.2280
     18  O         -6.2370    1.3430   13.4950 O.2    54  GLY54      -0.2866
     19  N         -0.0440   -2.6180   17.4470 N.3    64  TYR64      -0.1241
     20  CA         0.8440   -1.4640   17.4810 C.3    64  TYR64       0.1605
     21  C          0.4050   -0.5140   18.5790 C.2    64  TYR64       0.2264
     22  O         -0.7760   -0.4230   18.9010 O.2    64  TYR64      -0.2867
     23  CB         0.8640   -0.7510   16.1170 C.3    64  TYR64       0.0534
     24  CG         1.2360   -1.6600   14.9610 C.ar   64  TYR64      -0.0201
     25  CD1        0.2910   -2.4880   14.3760 C.ar   64  TYR64      -0.0009
     26  CD2        2.5340   -1.7000   14.4650 C.ar   64  TYR64      -0.0009
     27  CE1        0.6230   -3.3310   13.3280 C.ar   64  TYR64       0.0417
     28  CE2        2.8770   -2.5420   13.4030 C.ar   64  TYR64       0.0417
     29  CZ         1.9110   -3.3550   12.8440 C.ar   64  TYR64       0.1957
     30  OH         2.2180   -4.2000   11.8020 O.3    64  TYR64      -0.2866
     31  N        -11.6380    1.3010    9.3100 N.3    96  GLN96      -0.1245
     32  CA       -11.0100    0.0300    8.9520 C.3    96  GLN96       0.1566
     33  C        -10.8970   -0.8650   10.1870 C.2    96  GLN96       0.2260
     34  O         -9.9020   -0.7990   10.9220 O.2    96  GLN96      -0.2867
     35  CB        -9.6300    0.2180    8.2980 C.3    96  GLN96       0.0367
     36  CG        -9.0400   -1.1030    7.7790 C.3    96  GLN96       0.0905
     37  CD        -7.5980   -1.0110    7.2870 C.2    96  GLN96       0.2608
     38  OE1       -6.7380   -0.4190    7.9380 O.2    96  GLN96      -0.2717
     39  NE2       -7.3300   -1.6170    6.1300 N.am   96  GLN96      -0.0878
     40  N        -10.0690   -3.8010   12.5130 N.3    98  TRP98      -0.1241
     41  CA        -8.7860   -4.4700   12.4130 C.3    98  TRP98       0.1605
     42  C         -8.6230   -5.5900   13.4480 C.2    98  TRP98       0.2264
     43  O         -9.0920   -5.4890   14.5790 O.2    98  TRP98      -0.2867
     44  CB        -7.7000   -3.4120   12.6320 C.3    98  TRP98       0.0550
     45  CG        -6.3460   -3.7620   12.1220 C.ar   98  TRP98       0.0003
     46  CD1       -6.0140   -4.8100   11.3250 C.ar   98  TRP98       0.0946
     47  CD2       -5.1320   -3.0430   12.3760 C.ar   98  TRP98       0.0152
     48  NE1       -4.6670   -4.7910   11.0580 N.ar   98  TRP98      -0.2442
     49  CE2       -4.1010   -3.7190   11.6970 C.ar   98  TRP98       0.0810
     50  CE3       -4.8170   -1.8930   13.1130 C.ar   98  TRP98       0.0012
     51  CZ2       -2.7740   -3.2850   11.7300 C.ar   98  TRP98       0.0191
     52  CZ3       -3.4980   -1.4600   13.1390 C.ar   98  TRP98       0.0001
     53  CH2       -2.4940   -2.1560   12.4530 C.ar   98  TRP98       0.0015
     54  N        -10.4990   -5.0250    7.3810 N.3   177  HIS177     -0.1241
     55  CA        -9.0890   -5.2300    7.0640 C.3   177  HIS177      0.1621
     56  C         -8.7900   -6.7330    6.9160 C.2   177  HIS177      0.2264
     57  O         -8.6920   -7.4640    7.9060 O.2   177  HIS177     -0.2867
     58  CB        -8.1830   -4.5890    8.1280 C.3   177  HIS177      0.0745
     59  CG        -6.7590   -4.4370    7.6980 C.ar  177  HIS177      0.0817
     60  ND1       -6.2200   -5.1050    6.6150 N.ar  177  HIS177     -0.2268
     61  CD2       -5.7490   -3.6780    8.2040 C.ar  177  HIS177      0.1154
     62  CE1       -4.9520   -4.7690    6.4770 C.ar  177  HIS177      0.1986
     63  NE2       -4.6410   -3.9090    7.4240 N.ar  177  HIS177     -0.2212
     64  N         -2.6120   -7.4100    4.0410 N.3   180  ASN180     -0.1240
     65  CA        -1.3160   -7.1240    4.6450 C.3   180  ASN180      0.1653
     66  C         -0.8510   -8.0790    5.7570 C.2   180  ASN180      0.2266
     67  O         -0.2230   -7.6560    6.7330 O.2   180  ASN180     -0.2867
     68  CB        -1.2840   -5.6600    5.1070 C.3   180  ASN180      0.1155
     69  CG        -1.5080   -4.6880    3.9580 C.2   180  ASN180      0.2627
     70  OD1       -1.2050   -5.0000    2.7990 O.2   180  ASN180     -0.2716
     71  ND2       -2.0440   -3.5090    4.2680 N.am  180  ASN180     -0.0877
     72  N         -2.4110   -9.7010    8.1110 N.3   182  TYR182     -0.1241
     73  CA        -3.0560   -9.7050    9.4260 C.3   182  TYR182      0.1605
     74  C         -3.9580  -10.9230    9.6140 C.2   182  TYR182      0.2264
     75  O         -3.9130  -11.8410    8.7920 O.2   182  TYR182     -0.2867
     76  CB        -3.7500   -8.3720    9.7080 C.3   182  TYR182      0.0534
     77  CG        -2.7200   -7.2770    9.7710 C.ar  182  TYR182     -0.0201
     78  CD1       -1.8530   -7.1840   10.8480 C.ar  182  TYR182     -0.0009
     79  CD2       -2.5570   -6.3860    8.7170 C.ar  182  TYR182     -0.0009
     80  CE1       -0.8800   -6.2100   10.8900 C.ar  182  TYR182      0.0417
     81  CE2       -1.5870   -5.4090    8.7520 C.ar  182  TYR182      0.0417
     82  CZ        -0.7530   -5.3270    9.8380 C.ar  182  TYR182      0.1957
     83  OH         0.2110   -4.3570    9.8690 O.3   182  TYR182     -0.2866
     84  N        -10.7940   -4.8740    2.5490 N.3   229  ARG229     -0.1245
     85  CA        -9.5320   -4.6830    1.8450 C.3   229  ARG229      0.1563
     86  C         -8.8210   -6.0150    1.6480 C.2   229  ARG229      0.2260
     87  O         -8.6860   -6.7860    2.5850 O.2   229  ARG229     -0.2867
     88  CB        -8.6200   -3.7190    2.6010 C.3   229  ARG229      0.0307
     89  CG        -7.3760   -3.3250    1.8120 C.3   229  ARG229      0.0489
     90  CD        -6.6030   -2.1940    2.4750 C.3   229  ARG229      0.2205
     91  NE        -6.1590   -1.2020    1.4970 N.pl3 229  ARG229     -0.0865
     92  CZ        -5.0380   -0.4960    1.6020 C.cat 229  ARG229      0.5346
     93  NH1       -4.2400   -0.6740    2.6440 N.pl3 229  ARG229      0.1354
     94  NH2       -4.7110    0.3870    0.6660 N.pl3 229  ARG229      0.1354
     95  N          3.9320   -8.3180    2.8710 N.3   236  ALA236     -0.1231
     96  CA         3.7970   -7.6390    4.1630 C.3   236  ALA236      0.1694
     97  C          3.6520   -8.6340    5.2980 C.2   236  ALA236      0.2592
     98  O          2.8650   -9.5810    5.1990 O.2   236  ALA236     -0.2718
     99  CB         2.5870   -6.6840    4.1560 C.3   236  ALA236      0.0304
    100  N          4.4250   -8.4120    6.3630 N.am  237  ASN237     -0.1974
    101  CA         4.3570   -9.2220    7.5700 C.3   237  ASN237      0.1688
    102  C          4.6150  -10.7210    7.3450 C.2   237  ASN237      0.2292
    103  O          3.9310  -11.5820    7.9170 O.2   237  ASN237     -0.2864
    104  CB         3.0340   -8.9630    8.2860 C.3   237  ASN237      0.1181
    105  CG         2.9430   -7.5380    8.8190 C.2   237  ASN237      0.2629
    106  OD1        3.7840   -7.1100    9.6080 O.2   237  ASN237     -0.2716
    107  ND2        1.9510   -6.7870    8.3500 N.am  237  ASN237     -0.0877
    108  N          2.6330   -4.3310   -0.8050 N.3   270  THR270     -0.1218
    109  CA         2.1180   -3.1420   -0.1240 C.3   270  THR270      0.1862
    110  C          3.2340   -2.1160    0.0750 C.2   270  THR270      0.2287
    111  O          4.1820   -2.3580    0.8250 O.2   270  THR270     -0.2866
    112  CB         1.4810   -3.4800    1.2470 C.3   270  THR270      0.1770
    113  OG1        0.6060   -4.6070    1.1100 O.3   270  THR270     -0.2211
    114  CG2        0.6950   -2.2730    1.7870 C.3   270  THR270      0.0375
    115  N          5.0360    7.4640   11.9730 N.3   355  TYR355     -0.1241
    116  CA         4.5720    6.7680   13.1670 C.3   355  TYR355      0.1605
    117  C          4.8850    7.5030   14.4690 C.2   355  TYR355      0.2264
    118  O          6.0250    7.9180   14.6960 O.2   355  TYR355     -0.2867
    119  CB         5.2080    5.3810   13.2160 C.3   355  TYR355      0.0534
    120  CG         5.1250    4.6440   11.9070 C.ar  355  TYR355     -0.0201
    121  CD1        3.9230    4.1020   11.4730 C.ar  355  TYR355     -0.0009
    122  CD2        6.2430    4.4930   11.0990 C.ar  355  TYR355     -0.0009
    123  CE1        3.8360    3.4220   10.2800 C.ar  355  TYR355      0.0417
    124  CE2        6.1640    3.8120    9.8930 C.ar  355  TYR355      0.0417
    125  CZ         4.9540    3.2780    9.4930 C.ar  355  TYR355      0.1957
    126  OH         4.8470    2.5950    8.3020 O.3   355  TYR355     -0.2866
@<TRIPOS>BOND
     1   108   109    1
     2   109   110    1
     3   109   112    1
     4   110   111    2
     5    94    92    1
     6   113   112    1
     7   112   114    1
     8    91    92    2
     9    91    90    1
    10    92    93    1
    11    86    85    1
    12    86    87    2
    13    89    90    1
    14    89    88    1
    15    85    84    1
    16    85    88    1
    17    70    69    2
    18    95    96    1
    19     7     1    1
    20     7     6    1
    21    69    71   am
    22    69    68    1
    23    64    65    1
    24    99    96    1
    25    96    97    1
    26     1     2    1
    27     6     5    1
    28    65    68    1
    29    65    66    1
    30    98    97    2
    31    97   100   am
    32     4     3    2
    33     2     5    1
    34     2     3    1
    35    66    67    2
    36    39    37   am
    37   100   101    1
    38    62    60   ar
    39    62    63   ar
    40    60    59   ar
    41    56    55    1
    42    56    57    2
    43    55    54    1
    44    55    58    1
    45    37    36    1
    46    37    38    2
    47   102   101    1
    48   102   103    2
    49    63    61   ar
    50   101   104    1
    51    59    58    1
    52    59    61   ar
    53    36    35    1
    54    72    73    1
    55   104   105    1
    56    35    32    1
    57   126   125    1
    58   107   105   am
    59    79    81   ar
    60    79    77   ar
    61    81    82   ar
    62    75    74    2
    63   105   106    2
    64    32    31    1
    65    32    33    1
    66    73    74    1
    67    73    76    1
    68   125   124   ar
    69   125   123   ar
    70     8     9    1
    71    76    77    1
    72    77    78   ar
    73    82    83    1
    74    82    80   ar
    75   124   122   ar
    76    33    34    2
    77   123   121   ar
    78    11    10    2
    79    15    16    1
    80    78    80   ar
    81     9    12    1
    82     9    10    1
    83    13    12    1
    84    48    46   ar
    85    48    49   ar
    86   122   120   ar
    87    12    14    1
    88    16    17    1
    89    46    45   ar
    90   121   120   ar
    91    49    51   ar
    92    49    47   ar
    93    51    53   ar
    94    30    29    1
    95   120   119    1
    96   115   116    1
    97    45    47   ar
    98    45    44    1
    99    47    50   ar
   100    41    40    1
   101    41    44    1
   102    41    42    1
   103    53    52   ar
   104    17    18    2
   105    29    27   ar
   106    29    28   ar
   107    50    52   ar
   108   116   119    1
   109   116   117    1
   110    27    25   ar
   111    28    26   ar
   112    42    43    2
   113    25    24   ar
   114    26    24   ar
   115   117   118    2
   116    24    23    1
   117    23    20    1
   118    19    20    1
   119    20    21    1
   120    21    22    2
