@<TRIPOS>MOLECULE
tmp/4jiqA01.pdb
 115 110 0 0 0
SMALL
GASTEIGER

@<TRIPOS>ATOM
      1  N          2.2990   -3.6840    9.8940 N.3    24  THR24      -0.1218
      2  CA         1.9300   -3.6500   11.3040 C.3    24  THR24       0.1862
      3  C          0.9010   -4.7340   11.6110 C.2    24  THR24       0.2287
      4  O         -0.1230   -4.8250   10.9380 O.2    24  THR24      -0.2866
      5  CB         1.3480   -2.2770   11.6880 C.3    24  THR24       0.1770
      6  OG1        2.4000   -1.3060   11.7160 O.3    24  THR24      -0.2211
      7  CG2        0.6830   -2.3370   13.0570 C.3    24  THR24       0.0375
      8  N          6.3170   -1.0720   11.1150 N.3    54  GLY54      -0.1225
      9  CA         6.7230    0.2060   11.6630 C.3    54  GLY54       0.1811
     10  C          7.0940    0.1070   13.1290 C.2    54  GLY54       0.2280
     11  O          6.3190   -0.3900   13.9480 O.2    54  GLY54      -0.2866
     12  N         -0.2040    3.4000   18.0440 N.3    64  TYR64      -0.1241
     13  CA        -1.1290    2.2710   18.1550 C.3    64  TYR64       0.1605
     14  C         -0.7110    1.3180   19.2750 C.2    64  TYR64       0.2264
     15  O          0.4500    1.2930   19.6790 O.2    64  TYR64      -0.2867
     16  CB        -1.2230    1.5100   16.8270 C.3    64  TYR64       0.0534
     17  CG        -1.5220    2.3840   15.6300 C.ar   64  TYR64      -0.0201
     18  CD1       -2.8280    2.7310   15.3040 C.ar   64  TYR64      -0.0009
     19  CD2       -0.4960    2.8690   14.8260 C.ar   64  TYR64      -0.0009
     20  CE1       -3.1030    3.5330   14.2120 C.ar   64  TYR64       0.0417
     21  CE2       -0.7610    3.6700   13.7340 C.ar   64  TYR64       0.0417
     22  CZ        -2.0650    3.9990   13.4300 C.ar   64  TYR64       0.1957
     23  OH        -2.3280    4.7980   12.3420 O.3    64  TYR64      -0.2866
     24  N         11.9950   -0.5870   10.0350 N.3    96  GLN96      -0.1245
     25  CA        11.3160    0.6310    9.6240 C.3    96  GLN96       0.1566
     26  C         11.1130    1.5260   10.8390 C.2    96  GLN96       0.2260
     27  O         10.1550    1.3570   11.5910 O.2    96  GLN96      -0.2867
     28  CB         9.9750    0.3310    8.9470 C.3    96  GLN96       0.0367
     29  CG         9.4870    1.4640    8.0510 C.3    96  GLN96       0.0905
     30  CD         8.0110    1.3670    7.7100 C.2    96  GLN96       0.2608
     31  OE1        7.2000    0.9370    8.5290 O.2    96  GLN96      -0.2717
     32  NE2        7.6560    1.7730    6.4960 N.am   96  GLN96      -0.0878
     33  N         10.0280    4.6120   12.9960 N.3    98  TRP98      -0.1241
     34  CA         8.7190    5.2280   12.8420 C.3    98  TRP98       0.1605
     35  C          8.4780    6.3860   13.8080 C.2    98  TRP98       0.2264
     36  O          8.9390    6.3670   14.9480 O.2    98  TRP98      -0.2867
     37  CB         7.6600    4.1510   13.0690 C.3    98  TRP98       0.0550
     38  CG         6.2950    4.4660   12.5560 C.ar   98  TRP98       0.0003
     39  CD1        5.9350    5.4950   11.7370 C.ar   98  TRP98       0.0946
     40  CD2        5.1000    3.7310   12.8300 C.ar   98  TRP98       0.0152
     41  NE1        4.5870    5.4440   11.4830 N.ar   98  TRP98      -0.2442
     42  CE2        4.0510    4.3710   12.1430 C.ar   98  TRP98       0.0810
     43  CE3        4.8160    2.5930   13.5910 C.ar   98  TRP98       0.0012
     44  CZ2        2.7370    3.9100   12.1950 C.ar   98  TRP98       0.0191
     45  CZ3        3.5150    2.1380   13.6410 C.ar   98  TRP98       0.0001
     46  CH2        2.4910    2.7950   12.9480 C.ar   98  TRP98       0.0015
     47  N         -5.6900    2.2160   17.7790 N.3   128  TYR128     -0.1241
     48  CA        -5.9030    1.0660   18.6500 C.3   128  TYR128      0.1605
     49  C         -5.4630    1.4190   20.0640 C.2   128  TYR128      0.2264
     50  O         -4.2960    1.7300   20.2940 O.2   128  TYR128     -0.2867
     51  CB        -5.0880   -0.1400   18.1790 C.3   128  TYR128      0.0534
     52  CG        -5.3530   -0.5830   16.7590 C.ar  128  TYR128     -0.0201
     53  CD1       -4.7320    0.0470   15.6910 C.ar  128  TYR128     -0.0009
     54  CD2       -6.2010   -1.6500   16.4870 C.ar  128  TYR128     -0.0009
     55  CE1       -4.9580   -0.3520   14.3970 C.ar  128  TYR128      0.0417
     56  CE2       -6.4340   -2.0610   15.1870 C.ar  128  TYR128      0.0417
     57  CZ        -5.8070   -1.4050   14.1460 C.ar  128  TYR128      0.1957
     58  OH        -6.0270   -1.8000   12.8480 O.3   128  TYR128     -0.2866
     59  N         10.6170    5.8260    7.8330 N.3   177  HIS177     -0.1241
     60  CA         9.2040    5.8890    7.4780 C.3   177  HIS177      0.1621
     61  C          8.7780    7.3310    7.2090 C.2   177  HIS177      0.2264
     62  O          8.6140    8.1230    8.1360 O.2   177  HIS177     -0.2867
     63  CB         8.3410    5.2690    8.5800 C.3   177  HIS177      0.0745
     64  CG         6.9370    4.9710    8.1580 C.ar  177  HIS177      0.0817
     65  ND1        6.0830    4.1880    8.9060 N.ar  177  HIS177     -0.2268
     66  CD2        6.2340    5.3510    7.0630 C.ar  177  HIS177      0.1154
     67  CE1        4.9180    4.1000    8.2930 C.ar  177  HIS177      0.1986
     68  NE2        4.9810    4.7950    7.1720 N.ar  177  HIS177     -0.2212
     69  N          2.5130    7.5500    4.2200 N.3   180  ASN180     -0.1240
     70  CA         1.1910    7.2970    4.8140 C.3   180  ASN180      0.1653
     71  C          0.7180    8.3120    5.8490 C.2   180  ASN180      0.2266
     72  O          0.0010    7.9690    6.7900 O.2   180  ASN180     -0.2867
     73  CB         1.1220    5.8810    5.3910 C.3   180  ASN180      0.1155
     74  CG         1.4460    4.8240    4.3550 C.2   180  ASN180      0.2627
     75  OD1        1.3930    5.0830    3.1500 O.2   180  ASN180     -0.2716
     76  ND2        1.7780    3.6280    4.8140 N.am  180  ASN180     -0.0877
     77  N          2.2810   10.3280    8.1360 N.3   182  TYR182     -0.1241
     78  CA         2.8330   10.4020    9.4820 C.3   182  TYR182      0.1605
     79  C          3.7350   11.6190    9.6470 C.2   182  TYR182      0.2264
     80  O          3.7000   12.5140    8.8040 O.2   182  TYR182     -0.2867
     81  CB         3.5240    9.0870    9.8550 C.3   182  TYR182      0.0534
     82  CG         2.5400    7.9500    9.9910 C.ar  182  TYR182     -0.0201
     83  CD1        1.6170    7.9340   11.0300 C.ar  182  TYR182     -0.0009
     84  CD2        2.5140    6.9070    9.0750 C.ar  182  TYR182     -0.0009
     85  CE1        0.7050    6.9060   11.1630 C.ar  182  TYR182      0.0417
     86  CE2        1.5990    5.8700    9.2020 C.ar  182  TYR182      0.0417
     87  CZ         0.6990    5.8770   10.2480 C.ar  182  TYR182      0.1957
     88  OH        -0.2110    4.8530   10.3840 O.3   182  TYR182     -0.2866
     89  N         -4.6780    8.8050    6.6100 N.3   237  ASN237     -0.1240
     90  CA        -4.6650    9.6160    7.8250 C.3   237  ASN237      0.1653
     91  C         -4.8960   11.1120    7.6070 C.2   237  ASN237      0.2266
     92  O         -4.1380   11.9460    8.1130 O.2   237  ASN237     -0.2867
     93  CB        -3.3790    9.3790    8.6220 C.3   237  ASN237      0.1155
     94  CG        -3.2850    7.9690    9.1700 C.2   237  ASN237      0.2627
     95  OD1       -4.2180    7.4680    9.7950 O.2   237  ASN237     -0.2716
     96  ND2       -2.1540    7.3190    8.9300 N.am  237  ASN237     -0.0877
     97  N         -2.4370    3.9800   -0.7330 N.3   270  THR270     -0.1218
     98  CA        -2.0310    2.8100    0.0370 C.3   270  THR270      0.1862
     99  C         -3.2370    1.9260    0.3200 C.2   270  THR270      0.2287
    100  O         -4.1780    2.3450    0.9940 O.2   270  THR270     -0.2866
    101  CB        -1.3690    3.2040    1.3690 C.3   270  THR270      0.1770
    102  OG1       -0.2270    4.0320    1.1110 O.3   270  THR270     -0.2211
    103  CG2       -0.9310    1.9600    2.1340 C.3   270  THR270      0.0375
    104  N         -4.8920   -7.4350   12.2280 N.3   355  TYR355     -0.1241
    105  CA        -4.4400   -6.6910   13.4040 C.3   355  TYR355      0.1605
    106  C         -4.8760   -7.3570   14.7040 C.2   355  TYR355      0.2264
    107  O         -6.0120   -7.8160   14.8240 O.2   355  TYR355     -0.2867
    108  CB        -4.9750   -5.2590   13.3750 C.3   355  TYR355      0.0534
    109  CG        -4.7520   -4.5320   12.0710 C.ar  355  TYR355     -0.0201
    110  CD1       -3.5170   -3.9730   11.7670 C.ar  355  TYR355     -0.0009
    111  CD2       -5.7790   -4.3940   11.1490 C.ar  355  TYR355     -0.0009
    112  CE1       -3.3110   -3.3030   10.5790 C.ar  355  TYR355      0.0417
    113  CE2       -5.5830   -3.7230    9.9570 C.ar  355  TYR355      0.0417
    114  CZ        -4.3460   -3.1810    9.6770 C.ar  355  TYR355      0.1957
    115  OH        -4.1420   -2.5160    8.4920 O.3   355  TYR355     -0.2866
@<TRIPOS>BOND
     1    97    98    1
     2    98    99    1
     3    98   101    1
     4    99   100    2
     5   102   101    1
     6   101   103    1
     7    75    74    2
     8    69    70    1
     9    74    76   am
    10    74    73    1
    11    70    73    1
    12    70    71    1
    13    71    72    2
    14    32    30   am
    15    89    90    1
    16    66    68   ar
    17    66    64   ar
    18    68    67   ar
    19    61    60    1
    20    61    62    2
    21    60    59    1
    22    60    63    1
    23    91    90    1
    24    91    92    2
    25    30    29    1
    26    30    31    2
    27    90    93    1
    28    29    28    1
    29    77    78    1
    30    64    63    1
    31    64    65   ar
    32    67    65   ar
    33   115   114    1
    34    93    94    1
    35    80    79    2
    36    96    94   am
    37    28    25    1
    38    84    86   ar
    39    84    82   ar
    40    94    95    2
    41    86    87   ar
    42    78    79    1
    43    78    81    1
    44    25    24    1
    45    25    26    1
    46   114   113   ar
    47   114   112   ar
    48    81    82    1
    49     1     2    1
    50   113   111   ar
    51    82    83   ar
    52    87    88    1
    53    87    85   ar
    54   112   110   ar
    55    26    27    2
    56     4     3    2
    57    83    85   ar
    58     8     9    1
    59   111   109   ar
    60     2     3    1
    61     2     5    1
    62    41    39   ar
    63    41    42   ar
    64     9    10    1
    65     5     6    1
    66     5     7    1
    67    39    38   ar
    68   110   109   ar
    69   109   108    1
    70    42    44   ar
    71    42    40   ar
    72    44    46   ar
    73   104   105    1
    74    23    22    1
    75    38    40   ar
    76    38    37    1
    77    40    43   ar
    78    34    33    1
    79    34    37    1
    80    34    35    1
    81    58    57    1
    82    46    45   ar
    83    10    11    2
    84   108   105    1
    85   105   106    1
    86    22    21   ar
    87    22    20   ar
    88    43    45   ar
    89    21    19   ar
    90    35    36    2
    91    57    55   ar
    92    57    56   ar
    93    20    18   ar
    94    55    53   ar
    95   106   107    2
    96    19    17   ar
    97    56    54   ar
    98    18    17   ar
    99    17    16    1
   100    53    52   ar
   101    54    52   ar
   102    52    51    1
   103    16    13    1
   104    47    48    1
   105    12    13    1
   106    13    14    1
   107    51    48    1
   108    48    49    1
   109    14    15    2
   110    49    50    2
