@<TRIPOS>MOLECULE
tmp/4jirA00.pdb
 130 132 0 0 0
SMALL
GASTEIGER

@<TRIPOS>ATOM
      1  N          2.8310    8.6360   16.5270 N.3    21  TRP21      -0.1241
      2  CA         1.6010    9.2850   16.9860 C.3    21  TRP21       0.1605
      3  C          1.9540   10.2860   18.0850 C.2    21  TRP21       0.2264
      4  O          2.6420    9.9320   19.0540 O.2    21  TRP21      -0.2867
      5  CB         0.5970    8.2520   17.5310 C.3    21  TRP21       0.0550
      6  CG        -0.6700    8.8540   18.1110 C.ar   21  TRP21       0.0003
      7  CD1       -1.3430    9.9520   17.6500 C.ar   21  TRP21       0.0946
      8  CD2       -1.4080    8.3840   19.2570 C.ar   21  TRP21       0.0152
      9  NE1       -2.4490   10.1920   18.4330 N.ar   21  TRP21      -0.2442
     10  CE2       -2.5050    9.2520   19.4310 C.ar   21  TRP21       0.0810
     11  CE3       -1.2340    7.3250   20.1570 C.ar   21  TRP21       0.0012
     12  CZ2       -3.4380    9.0860   20.4690 C.ar   21  TRP21       0.0191
     13  CZ3       -2.1590    7.1590   21.1830 C.ar   21  TRP21       0.0001
     14  CH2       -3.2470    8.0370   21.3300 C.ar   21  TRP21       0.0015
     15  N         -3.4680    9.7850    9.6470 N.3    48  VAL48      -0.1231
     16  CA        -4.1430   10.5060   10.7150 C.3    48  VAL48       0.1692
     17  C         -3.1680   11.1580   11.7090 C.2    48  VAL48       0.2592
     18  O         -3.5650   12.0470   12.4640 O.2    48  VAL48      -0.2718
     19  CB        -5.1230    9.5900   11.4660 C.3    48  VAL48       0.0266
     20  CG1       -4.3520    8.6630   12.4010 C.3    48  VAL48       0.0020
     21  CG2       -6.1510   10.4100   12.2370 C.3    48  VAL48       0.0020
     22  N         -1.9020   10.7370   11.7280 N.am   49  TYR49      -0.1976
     23  CA        -0.9430   11.3760   12.6580 C.3    49  TYR49       0.1639
     24  C         -0.5030   12.7430   12.1430 C.2    49  TYR49       0.2290
     25  O          0.1150   13.5290   12.8800 O.2    49  TYR49      -0.2864
     26  CB         0.2920   10.4990   12.9250 C.3    49  TYR49       0.0560
     27  CG        -0.0360    9.1350   13.4940 C.ar   49  TYR49      -0.0198
     28  CD1       -1.2750    8.8810   14.0830 C.ar   49  TYR49      -0.0009
     29  CD2        0.8900    8.0990   13.4390 C.ar   49  TYR49      -0.0009
     30  CE1       -1.5900    7.6160   14.5910 C.ar   49  TYR49       0.0417
     31  CE2        0.5850    6.8310   13.9490 C.ar   49  TYR49       0.0417
     32  CZ        -0.6570    6.6020   14.5210 C.ar   49  TYR49       0.1957
     33  OH        -0.9660    5.3470   15.0210 O.3    49  TYR49      -0.2866
     34  N         -6.8880    5.5120    6.9280 N.3    80  TRP80      -0.1241
     35  CA        -7.7870    6.1140    7.9060 C.3    80  TRP80       0.1605
     36  C         -9.2600    5.7350    7.6620 C.2    80  TRP80       0.2264
     37  O         -9.6310    5.2970    6.5730 O.2    80  TRP80      -0.2867
     38  CB        -7.5880    7.6330    8.0250 C.3    80  TRP80       0.0550
     39  CG        -8.4510    8.1930    9.1140 C.ar   80  TRP80       0.0003
     40  CD1       -9.4770    9.0860    8.9730 C.ar   80  TRP80       0.0946
     41  CD2       -8.4210    7.8310   10.5090 C.ar   80  TRP80       0.0152
     42  NE1      -10.0700    9.3220   10.1950 N.ar   80  TRP80      -0.2442
     43  CE2       -9.4440    8.5650   11.1510 C.ar   80  TRP80       0.0810
     44  CE3       -7.6230    6.9640   11.2710 C.ar   80  TRP80       0.0012
     45  CZ2       -9.6810    8.4720   12.5260 C.ar   80  TRP80       0.0191
     46  CZ3       -7.8610    6.8670   12.6380 C.ar   80  TRP80       0.0001
     47  CH2       -8.8890    7.6170   13.2520 C.ar   80  TRP80       0.0015
     48  N         -6.5030    0.9100    9.6350 N.3   111  HIS111     -0.1226
     49  CA        -6.2300    1.5020   10.9480 C.3   111  HIS111      0.1752
     50  C         -7.2010    1.0680   12.0560 C.2   111  HIS111      0.2596
     51  O         -6.7770    0.7610   13.1780 O.2   111  HIS111     -0.2718
     52  CB        -6.2050    3.0280   10.8260 C.3   111  HIS111      0.0759
     53  CG        -5.3980    3.7090   11.8860 C.ar  111  HIS111      0.0818
     54  ND1       -4.7720    4.9210   11.6780 N.ar  111  HIS111     -0.2268
     55  CD2       -5.1140    3.3500   13.1610 C.ar  111  HIS111      0.1154
     56  CE1       -4.1440    5.2820   12.7830 C.ar  111  HIS111      0.1986
     57  NE2       -4.3370    4.3460   13.6980 N.ar  111  HIS111     -0.2212
     58  N         -8.4940    1.0670   11.7430 N.am  112  TRP112     -0.1976
     59  CA        -9.5390    0.5800   12.6440 C.3   112  TRP112      0.1640
     60  C        -10.5480   -0.1460   11.7690 C.2   112  TRP112      0.2290
     61  O        -10.7070    0.2200   10.5970 O.2   112  TRP112     -0.2864
     62  CB       -10.2450    1.7490   13.3370 C.3   112  TRP112      0.0576
     63  CG        -9.4230    2.4740   14.3530 C.ar  112  TRP112      0.0006
     64  CD1       -8.6180    3.5590   14.1390 C.ar  112  TRP112      0.0946
     65  CD2       -9.3330    2.1780   15.7570 C.ar  112  TRP112      0.0152
     66  NE1       -8.0290    3.9520   15.3230 N.ar  112  TRP112     -0.2442
     67  CE2       -8.4530    3.1210   16.3290 C.ar  112  TRP112      0.0810
     68  CE3       -9.9180    1.2080   16.5830 C.ar  112  TRP112      0.0012
     69  CZ2       -8.1310    3.1160   17.6900 C.ar  112  TRP112      0.0191
     70  CZ3       -9.6030    1.2040   17.9320 C.ar  112  TRP112      0.0001
     71  CH2       -8.7160    2.1590   18.4750 C.ar  112  TRP112      0.0015
     72  N        -13.0880   12.7660   12.1150 N.3   123  PHE123     -0.1241
     73  CA       -14.0790   12.1760   13.0100 C.3   123  PHE123      0.1605
     74  C        -15.3980   12.9170   12.8710 C.2   123  PHE123      0.2264
     75  O        -15.6730   13.8430   13.6410 O.2   123  PHE123     -0.2867
     76  CB       -13.6330   12.2850   14.4750 C.3   123  PHE123      0.0534
     77  CG       -12.7100   11.1890   14.9200 C.ar  123  PHE123     -0.0203
     78  CD1      -11.3320   11.3290   14.8010 C.ar  123  PHE123     -0.0042
     79  CD2      -13.2200   10.0210   15.4680 C.ar  123  PHE123     -0.0042
     80  CE1      -10.4750   10.3150   15.2160 C.ar  123  PHE123     -0.0003
     81  CE2      -12.3700    9.0020   15.8820 C.ar  123  PHE123     -0.0003
     82  CZ       -10.9990    9.1520   15.7590 C.ar  123  PHE123     -0.0000
     83  N         -6.3410   -3.0190   15.4430 N.3   161  ASN161     -0.1240
     84  CA        -7.4980   -2.9630   16.3270 C.3   161  ASN161      0.1653
     85  C         -8.6440   -3.8820   15.8980 C.2   161  ASN161      0.2266
     86  O         -9.8060   -3.5820   16.1710 O.2   161  ASN161     -0.2867
     87  CB        -8.0090   -1.5200   16.4450 C.3   161  ASN161      0.1155
     88  CG        -6.9390   -0.5600   16.9100 C.2   161  ASN161      0.2627
     89  OD1       -6.4470   -0.6610   18.0460 O.2   161  ASN161     -0.2716
     90  ND2       -6.5780    0.3940   16.0440 N.am  161  ASN161     -0.0877
     91  N          1.2440   -1.8530   20.3130 N.3   210  TYR210     -0.1241
     92  CA         1.3440   -0.3980   20.3970 C.3   210  TYR210      0.1605
     93  C          1.0970    0.1380   21.8110 C.2   210  TYR210      0.2264
     94  O          0.5910   -0.5840   22.6760 O.2   210  TYR210     -0.2867
     95  CB         0.4900    0.3150   19.3300 C.3   210  TYR210      0.0534
     96  CG        -1.0190    0.3960   19.5230 C.ar  210  TYR210     -0.0201
     97  CD1       -1.5800    1.0670   20.6110 C.ar  210  TYR210     -0.0009
     98  CD2       -1.8850   -0.1180   18.5590 C.ar  210  TYR210     -0.0009
     99  CE1       -2.9470    1.1880   20.7540 C.ar  210  TYR210      0.0417
    100  CE2       -3.2520   -0.0020   18.6950 C.ar  210  TYR210      0.0417
    101  CZ        -3.7800    0.6490   19.7910 C.ar  210  TYR210      0.1957
    102  OH        -5.1510    0.7710   19.9100 O.3   210  TYR210     -0.2866
    103  N         -5.7710   12.2940   26.9470 N.3   220  TRP220     -0.1241
    104  CA        -6.7600   12.1730   28.0190 C.3   220  TRP220      0.1605
    105  C         -6.1840   11.8540   29.4220 C.2   220  TRP220      0.2264
    106  O         -6.9350   11.6300   30.3750 O.2   220  TRP220     -0.2867
    107  CB        -7.8720   11.1920   27.6010 C.3   220  TRP220      0.0550
    108  CG        -7.3660    9.9830   26.8360 C.ar  220  TRP220      0.0003
    109  CD1       -7.0410    8.7650   27.3640 C.ar  220  TRP220      0.0946
    110  CD2       -7.1320    9.8770   25.4170 C.ar  220  TRP220      0.0152
    111  NE1       -6.6200    7.9130   26.3710 N.ar  220  TRP220     -0.2442
    112  CE2       -6.6630    8.5690   25.1680 C.ar  220  TRP220      0.0810
    113  CE3       -7.2750   10.7580   24.3380 C.ar  220  TRP220      0.0012
    114  CZ2       -6.3300    8.1220   23.8800 C.ar  220  TRP220      0.0191
    115  CZ3       -6.9490   10.3100   23.0570 C.ar  220  TRP220      0.0001
    116  CH2       -6.4810    9.0060   22.8420 C.ar  220  TRP220      0.0015
    117  N         -6.4380    3.3650   24.1420 N.3   299  CYS299     -0.1235
    118  CA        -7.1780    3.6850   22.9260 C.3   299  CYS299      0.1677
    119  C         -8.4520    2.8630   22.8400 C.2   299  CYS299      0.2270
    120  O         -8.4390    1.7410   22.3160 O.2   299  CYS299     -0.2867
    121  CB        -6.3150    3.4010   21.6990 C.3   299  CYS299      0.0956
    122  SG        -4.8390    4.4320   21.6330 S.3   299  CYS299     -0.0801
    123  N        -11.3670    4.1090   21.4630 N.3   301  LEU301     -0.1245
    124  CA       -12.1960    4.6520   20.3770 C.3   301  LEU301      0.1561
    125  C        -13.6250    4.9620   20.8580 C.2   301  LEU301      0.2260
    126  O        -14.6110    4.5290   20.2580 O.2   301  LEU301     -0.2867
    127  CB       -12.2220    3.6740   19.1920 C.3   301  LEU301      0.0270
    128  CG       -12.6250    4.2690   17.8320 C.3   301  LEU301      0.0019
    129  CD1      -11.4770    5.1050   17.2580 C.3   301  LEU301      0.0001
    130  CD2      -13.0840    3.1790   16.8500 C.3   301  LEU301      0.0001
@<TRIPOS>BOND
     1    37    36    2
     2    34    35    1
     3    36    35    1
     4    35    38    1
     5    38    39    1
     6    40    39   ar
     7    40    42   ar
     8    39    41   ar
     9    48    49    1
    10    15    16    1
    11    42    43   ar
    12    41    43   ar
    13    41    44   ar
    14    61    60    2
    15    16    19    1
    16    16    17    1
    17    52    49    1
    18    52    53    1
    19    49    50    1
    20    43    45   ar
    21    44    46   ar
    22    19    21    1
    23    19    20    1
    24    54    53   ar
    25    54    56   ar
    26    17    22   am
    27    17    18    2
    28    22    23    1
    29    58    50   am
    30    58    59    1
    31    60    59    1
    32    53    55   ar
    33    50    51    2
    34    72    73    1
    35    24    23    1
    36    24    25    2
    37    45    47   ar
    38    46    47   ar
    39    59    62    1
    40    23    26    1
    41    56    57   ar
    42    74    73    1
    43    74    75    2
    44    26    27    1
    45    73    76    1
    46    55    57   ar
    47    62    63    1
    48    29    27   ar
    49    29    31   ar
    50    27    28   ar
    51    31    32   ar
    52    28    30   ar
    53    64    63   ar
    54    64    66   ar
    55    63    65   ar
    56    76    77    1
    57    32    30   ar
    58    32    33    1
    59    78    77   ar
    60    78    80   ar
    61    77    79   ar
    62    80    82   ar
    63    66    67   ar
    64    83    84    1
    65    79    81   ar
    66    65    67   ar
    67    65    68   ar
    68    82    81   ar
    69    85    86    2
    70    85    84    1
    71    90    88   am
    72    84    87    1
    73    67    69   ar
    74    87    88    1
    75     1     2    1
    76    68    70   ar
    77   130   128    1
    78    88    89    2
    79     2     5    1
    80     2     3    1
    81   129   128    1
    82     5     6    1
    83     7     6   ar
    84     7     9   ar
    85    69    71   ar
    86   128   127    1
    87    70    71   ar
    88     3     4    2
    89     6     8   ar
    90     9    10   ar
    91    98   100   ar
    92    98    96   ar
    93   100   101   ar
    94   127   124    1
    95     8    10   ar
    96     8    11   ar
    97    95    96    1
    98    95    92    1
    99    10    12   ar
   100    96    97   ar
   101   101   102    1
   102   101    99   ar
   103    11    13   ar
   104   126   125    2
   105    91    92    1
   106   124   125    1
   107   124   123    1
   108    92    93    1
   109    12    14   ar
   110    97    99   ar
   111    13    14   ar
   112   122   121    1
   113   121   118    1
   114    93    94    2
   115   120   119    2
   116   119   118    1
   117   116   115   ar
   118   116   114   ar
   119   118   117    1
   120   115   113   ar
   121   114   112   ar
   122   113   110   ar
   123   112   110   ar
   124   112   111   ar
   125   110   108   ar
   126   111   109   ar
   127   108   109   ar
   128   108   107    1
   129   103   104    1
   130   107   104    1
   131   104   105    1
   132   105   106    2
