@<TRIPOS>MOLECULE
tmp/4jitB00.pdb
 147 145 0 0 0
SMALL
GASTEIGER

@<TRIPOS>ATOM
      1  N        -34.5990   22.4920  -19.5860 N.3    36  GLY36      -0.1225
      2  CA       -34.5070   21.6770  -18.3870 C.3    36  GLY36       0.1811
      3  C        -33.4070   20.6310  -18.3800 C.2    36  GLY36       0.2280
      4  O        -32.8190   20.3500  -17.3370 O.2    36  GLY36      -0.2866
      5  N        -52.2120   22.4030  -25.1780 N.3    67  ARG67      -0.1245
      6  CA       -50.8470   22.9190  -25.2400 C.3    67  ARG67       0.1563
      7  C        -50.3710   23.1010  -26.6870 C.2    67  ARG67       0.2260
      8  O        -50.6010   22.2420  -27.5410 O.2    67  ARG67      -0.2867
      9  CB       -49.9040   21.9890  -24.4700 C.3    67  ARG67       0.0307
     10  CG       -48.4890   22.5050  -24.2990 C.3    67  ARG67       0.0489
     11  CD       -47.6990   21.5940  -23.3670 C.3    67  ARG67       0.2205
     12  NE       -48.2900   21.5530  -22.0310 N.pl3  67  ARG67      -0.0865
     13  CZ       -47.8820   20.7500  -21.0530 C.cat  67  ARG67       0.5346
     14  NH1      -46.8810   19.9020  -21.2560 N.pl3  67  ARG67       0.1354
     15  NH2      -48.4820   20.7890  -19.8700 N.pl3  67  ARG67       0.1354
     16  N        -34.0520   14.8960  -20.2010 N.3    86  ASP86      -0.1225
     17  CA       -34.7220   16.0690  -19.6630 C.3    86  ASP86       0.1805
     18  C        -34.4930   16.0490  -18.1520 C.2    86  ASP86       0.2598
     19  O        -34.0330   15.0390  -17.6180 O.2    86  ASP86      -0.2718
     20  CB       -36.2130   16.0060  -19.9790 C.3    86  ASP86       0.1424
     21  CG       -36.8320   17.3790  -20.1610 C.2    86  ASP86       0.3668
     22  OD1      -36.1740   18.3980  -19.8370 O.co2  86  ASP86      -0.2456
     23  OD2      -37.9900   17.4390  -20.6330 O.co2  86  ASP86      -0.2456
     24  N        -34.8130   17.1410  -17.4590 N.am   87  ASP87      -0.1960
     25  CA       -34.6760   17.1740  -16.0030 C.3    87  ASP87       0.1840
     26  C        -35.7750   16.3680  -15.2970 C.2    87  ASP87       0.2622
     27  O        -35.4910   15.5900  -14.3830 O.2    87  ASP87      -0.2715
     28  CB       -34.6100   18.6130  -15.4690 C.3    87  ASP87       0.1450
     29  CG       -35.7950   19.4520  -15.9030 C.2    87  ASP87       0.3671
     30  OD1      -36.4320   19.0810  -16.9140 O.co2  87  ASP87      -0.2456
     31  OD2      -36.0860   20.4800  -15.2450 O.co2  87  ASP87      -0.2456
     32  N        -37.0240   16.5410  -15.7190 N.am   88  LEU88      -0.1963
     33  CA       -38.1210   15.8340  -15.0650 C.3    88  LEU88       0.1728
     34  C        -39.2730   15.4730  -15.9980 C.2    88  LEU88       0.2616
     35  O        -39.4900   16.1030  -17.0310 O.2    88  LEU88      -0.2715
     36  CB       -38.6590   16.6420  -13.8840 C.3    88  LEU88       0.0311
     37  CG       -39.8710   17.5300  -14.1730 C.3    88  LEU88       0.0022
     38  CD1      -41.0810   17.0640  -13.3730 C.3    88  LEU88       0.0001
     39  CD2      -39.5550   18.9990  -13.8970 C.3    88  LEU88       0.0001
     40  N        -40.0130   14.4440  -15.6130 N.am   89  VAL89      -0.1963
     41  CA       -41.1750   14.0120  -16.3720 C.3    89  VAL89       0.1727
     42  C        -42.4360   14.2620  -15.5270 C.2    89  VAL89       0.2616
     43  O        -42.4510   14.0200  -14.3160 O.2    89  VAL89      -0.2715
     44  CB       -41.0240   12.5330  -16.8260 C.3    89  VAL89       0.0290
     45  CG1      -41.7750   11.5910  -15.9050 C.3    89  VAL89       0.0023
     46  CG2      -41.4690   12.3710  -18.2670 C.3    89  VAL89       0.0023
     47  N        -43.4800   14.7910  -16.1560 N.am   90  ASP90      -0.1957
     48  CA       -44.6400   15.2670  -15.4070 C.3    90  ASP90       0.1840
     49  C        -45.9460   14.6220  -15.8620 C.2    90  ASP90       0.2623
     50  O        -46.6600   14.0260  -15.0580 O.2    90  ASP90      -0.2715
     51  CB       -44.7350   16.7950  -15.4960 C.3    90  ASP90       0.1450
     52  CG       -46.0000   17.3470  -14.8590 C.2    90  ASP90       0.3671
     53  OD1      -46.5360   16.7140  -13.9220 O.co2  90  ASP90      -0.2456
     54  OD2      -46.4590   18.4230  -15.2980 O.co2  90  ASP90      -0.2456
     55  N        -46.2530   14.7570  -17.1480 N.am   91  THR91      -0.1937
     56  CA       -47.4690   14.1880  -17.7180 C.3    91  THR91       0.2028
     57  C        -47.1230   13.2980  -18.9030 C.2    91  THR91       0.2643
     58  O        -47.9020   12.4060  -19.2740 O.2    91  THR91      -0.2714
     59  CB       -48.4420   15.2810  -18.2030 C.3    91  THR91       0.1808
     60  OG1      -47.8370   16.0170  -19.2750 O.3    91  THR91      -0.2208
     61  CG2      -48.7860   16.2330  -17.0690 C.3    91  THR91       0.0379
     62  N        -45.9600   13.5550  -19.4980 N.am   92  GLY92      -0.1939
     63  CA       -45.4700   12.7530  -20.6020 C.3    92  GLY92       0.2014
     64  C        -45.5960   13.4250  -21.9570 C.2    92  GLY92       0.2639
     65  O        -45.2900   12.8150  -22.9820 O.2    92  GLY92      -0.2714
     66  N        -46.0390   14.6810  -21.9670 N.am   93  GLY93      -0.1939
     67  CA       -46.2570   15.4070  -23.2100 C.3    93  GLY93       0.2014
     68  C        -44.9880   15.6400  -24.0080 C.2    93  GLY93       0.2639
     69  O        -44.9340   15.3620  -25.2090 O.2    93  GLY93      -0.2714
     70  N        -43.9680   16.1630  -23.3380 N.am   94  THR94      -0.1950
     71  CA       -42.6580   16.3500  -23.9460 C.3    94  THR94       0.1897
     72  C        -42.0600   15.0020  -24.3440 C.2    94  THR94       0.2313
     73  O        -41.4220   14.8720  -25.3910 O.2    94  THR94      -0.2863
     74  CB       -41.7130   17.0480  -22.9600 C.3    94  THR94       0.1794
     75  OG1      -42.2810   18.3090  -22.5820 O.3    94  THR94      -0.2208
     76  CG2      -40.3330   17.2620  -23.5740 C.3    94  THR94       0.0378
     77  N        -42.6890   11.9590  -12.0800 N.3   113  LYS113     -0.1245
     78  CA       -43.9510   11.9310  -11.3520 C.3   113  LYS113      0.1561
     79  C        -44.7320   10.7250  -11.8530 C.2   113  LYS113      0.2260
     80  O        -44.4690   10.2460  -12.9580 O.2   113  LYS113     -0.2867
     81  CB       -44.7270   13.2250  -11.5890 C.3   113  LYS113      0.0271
     82  CG       -44.1860   14.4100  -10.8170 C.3   113  LYS113      0.0035
     83  CD       -44.9110   15.6900  -11.1770 C.3   113  LYS113      0.0206
     84  CE       -44.3980   16.8570  -10.3530 C.3   113  LYS113      0.1093
     85  NZ       -44.9220   18.1620  -10.8470 N.3   113  LYS113     -0.1314
     86  N        -44.5080   20.4860   -6.2890 N.3   132  TRP132     -0.1227
     87  CA       -43.7570   21.3380   -7.2030 C.3   132  TRP132      0.1737
     88  C        -42.2600   21.2440   -6.9200 C.2   132  TRP132      0.2595
     89  O        -41.8120   21.4430   -5.7880 O.2   132  TRP132     -0.2718
     90  CB       -44.2280   22.7880   -7.1230 C.3   132  TRP132      0.0564
     91  CG       -43.4040   23.7290   -7.9510 C.ar  132  TRP132      0.0003
     92  CD1      -42.3730   24.5140   -7.5160 C.ar  132  TRP132      0.0946
     93  CD2      -43.5330   23.9820   -9.3550 C.ar  132  TRP132      0.0152
     94  NE1      -41.8550   25.2410   -8.5610 N.ar  132  TRP132     -0.2442
     95  CE2      -42.5490   24.9330   -9.7020 C.ar  132  TRP132      0.0810
     96  CE3      -44.3830   23.4990  -10.3540 C.ar  132  TRP132      0.0012
     97  CZ2      -42.3940   25.4100  -11.0020 C.ar  132  TRP132      0.0191
     98  CZ3      -44.2280   23.9750  -11.6450 C.ar  132  TRP132      0.0001
     99  CH2      -43.2420   24.9200  -11.9570 C.ar  132  TRP132      0.0015
    100  N        -41.4990   20.9330   -7.9630 N.am  133  ILE133     -0.1966
    101  CA       -40.0550   20.7740   -7.8700 C.3   133  ILE133      0.1727
    102  C        -39.3460   22.0920   -8.1840 C.2   133  ILE133      0.2616
    103  O        -39.4170   22.5770   -9.3080 O.2   133  ILE133     -0.2715
    104  CB       -39.5800   19.7240   -8.8910 C.3   133  ILE133      0.0290
    105  CG1      -40.4230   18.4540   -8.7810 C.3   133  ILE133      0.0022
    106  CG2      -38.1060   19.4270   -8.7160 C.3   133  ILE133      0.0023
    107  CD1      -40.1340   17.4510   -9.8740 C.3   133  ILE133      0.0001
    108  N        -38.6620   22.6770   -7.2090 N.am  134  GLU134     -0.1963
    109  CA       -37.9330   23.9120   -7.4670 C.3   134  GLU134      0.1733
    110  C        -36.4830   23.5900   -7.8480 C.2   134  GLU134      0.2616
    111  O        -35.6750   23.2140   -6.9910 O.2   134  GLU134     -0.2715
    112  CB       -37.9980   24.8380   -6.2480 C.3   134  GLU134      0.0429
    113  CG       -37.8460   26.3340   -6.5650 C.3   134  GLU134      0.1163
    114  CD       -39.0810   26.9580   -7.2140 C.2   134  GLU134      0.3649
    115  OE1      -39.1720   26.9570   -8.4590 O.co2 134  GLU134     -0.2457
    116  OE2      -39.9570   27.4640   -6.4800 O.co2 134  GLU134     -0.2457
    117  N        -36.1620   23.7180   -9.1360 N.am  135  GLN135     -0.1977
    118  CA       -34.8250   23.3870   -9.6340 C.3   135  GLN135      0.1601
    119  C        -33.8160   24.5000   -9.2960 C.2   135  GLN135      0.2287
    120  O        -34.1940   25.6790   -9.2010 O.2   135  GLN135     -0.2864
    121  CB       -34.8700   23.1160  -11.1440 C.3   135  GLN135      0.0394
    122  CG       -35.8300   22.0080  -11.5790 C.3   135  GLN135      0.0908
    123  CD       -35.2510   20.5980  -11.4280 C.2   135  GLN135      0.2608
    124  OE1      -34.4550   20.3210  -10.5270 O.2   135  GLN135     -0.2717
    125  NE2      -35.6570   19.7020  -12.3200 N.am  135  GLN135     -0.0878
    126  N        -31.4450   26.0710  -10.8490 N.3   137  TRP137     -0.1227
    127  CA       -31.1730   27.1550  -11.7910 C.3   137  TRP137      0.1737
    128  C        -32.2480   28.2440  -11.7090 C.2   137  TRP137      0.2595
    129  O        -32.1110   29.3220  -12.2940 O.2   137  TRP137     -0.2718
    130  CB       -31.0050   26.6340  -13.2300 C.3   137  TRP137      0.0564
    131  CG       -32.0650   25.6470  -13.6780 C.ar  137  TRP137      0.0003
    132  CD1      -33.3160   25.9360  -14.1550 C.ar  137  TRP137      0.0946
    133  CD2      -31.9520   24.2170  -13.7000 C.ar  137  TRP137      0.0152
    134  NE1      -33.9910   24.7740  -14.4580 N.ar  137  TRP137     -0.2442
    135  CE2      -33.1770   23.7060  -14.1890 C.ar  137  TRP137      0.0810
    136  CE3      -30.9370   23.3210  -13.3500 C.ar  137  TRP137      0.0012
    137  CZ2      -33.4100   22.3400  -14.3380 C.ar  137  TRP137      0.0191
    138  CZ3      -31.1680   21.9650  -13.5000 C.ar  137  TRP137      0.0001
    139  CH2      -32.3960   21.4860  -13.9880 C.ar  137  TRP137      0.0015
    140  N        -33.3170   27.9540  -10.9750 N.am  138  ASP138     -0.1974
    141  CA       -34.3840   28.9270  -10.7680 C.3   138  ASP138      0.1709
    142  C        -34.2850   29.5390   -9.3780 C.2   138  ASP138      0.2293
    143  O        -35.1590   30.3030   -8.9650 O.2   138  ASP138     -0.2864
    144  CB       -35.7550   28.2720  -10.9590 C.3   138  ASP138      0.1436
    145  CG       -36.0450   27.9330  -12.4160 C.2   138  ASP138      0.3671
    146  OD1      -35.4770   28.5900  -13.3190 O.co2 138  ASP138     -0.2456
    147  OD2      -36.8480   27.0080  -12.6630 O.co2 138  ASP138     -0.2456
@<TRIPOS>BOND
     1     8     7    2
     2     7     6    1
     3    73    72    2
     4     6     5    1
     5     6     9    1
     6    69    68    2
     7     9    10    1
     8    72    71    1
     9    10    11    1
    10    68    70   am
    11    68    67    1
    12    71    70    1
    13    71    74    1
    14    76    74    1
    15    11    12    1
    16    67    66    1
    17    65    64    2
    18    74    75    1
    19    12    13    2
    20    66    64   am
    21    64    63    1
    22    14    13    1
    23    13    15    1
    24    23    21   ar
    25    63    62    1
    26    16    17    1
    27    21    20    1
    28    21    22   ar
    29    20    17    1
    30    17    18    1
    31     1     2    1
    32    62    57   am
    33    60    59    1
    34    58    57    2
    35    57    56    1
    36     2     3    1
    37     3     4    2
    38    46    44    1
    39    59    56    1
    40    59    61    1
    41    18    19    2
    42    18    24   am
    43    56    55    1
    44    24    25    1
    45    55    49   am
    46    35    34    2
    47    30    29   ar
    48    44    41    1
    49    44    45    1
    50    41    40    1
    51    41    42    1
    52    47    42   am
    53    47    48    1
    54    25    28    1
    55    25    26    1
    56    34    40   am
    57    34    33    1
    58    29    28    1
    59    29    31   ar
    60    49    48    1
    61    49    50    2
    62    32    26   am
    63    32    33    1
    64    42    43    2
    65    51    48    1
    66    51    52    1
    67    54    52   ar
    68    26    27    2
    69    33    36    1
    70    52    53   ar
    71   134   135   ar
    72   134   132   ar
    73   137   135   ar
    74   137   139   ar
    75   135   133   ar
    76    37    39    1
    77    37    36    1
    78    37    38    1
    79   132   131   ar
    80   139   138   ar
    81   133   131   ar
    82   133   136   ar
    83   131   130    1
    84   138   136   ar
    85   146   145   ar
    86   130   127    1
    87    80    79    2
    88   147   145   ar
    89   145   144    1
    90   125   123   am
    91   129   128    2
    92    77    78    1
    93    99    98   ar
    94    99    97   ar
    95    79    78    1
    96   127   128    1
    97   127   126    1
    98   128   140   am
    99    98    96   ar
   100    81    78    1
   101    81    82    1
   102   122   123    1
   103   122   121    1
   104   123   124    2
   105    83    82    1
   106    83    84    1
   107   121   118    1
   108    97    95   ar
   109   140   141    1
   110   144   141    1
   111    85    84    1
   112   141   142    1
   113    96    93   ar
   114   107   105    1
   115    95    93   ar
   116    95    94   ar
   117   118   119    1
   118   118   117    1
   119   142   143    2
   120    93    91   ar
   121   103   102    2
   122   119   120    2
   123   117   110   am
   124   104   105    1
   125   104   106    1
   126   104   101    1
   127    94    92   ar
   128   115   114   ar
   129   102   101    1
   130   102   108   am
   131   100   101    1
   132   100    88   am
   133    91    92   ar
   134    91    90    1
   135   110   109    1
   136   110   111    2
   137   109   108    1
   138   109   112    1
   139   114   113    1
   140   114   116   ar
   141    87    90    1
   142    87    88    1
   143    87    86    1
   144    88    89    2
   145   113   112    1
