@<TRIPOS>MOLECULE
tmp/4jixA00.pdb
 89 87 0 0 0
SMALL
GASTEIGER

@<TRIPOS>ATOM
      1  N         46.5610    3.7550   12.1040 N.3    39  LYS39      -0.1245
      2  CA        45.4670    3.5020   11.1460 C.3    39  LYS39       0.1561
      3  C         45.9780    2.8560    9.8750 C.2    39  LYS39       0.2260
      4  O         47.1870    2.8520    9.6100 O.2    39  LYS39      -0.2867
      5  CB        44.7880    4.8430   10.7200 C.3    39  LYS39       0.0271
      6  CG        44.3570    5.8130   11.8160 C.3    39  LYS39       0.0035
      7  CD        42.9240    5.6140   12.2250 C.3    39  LYS39       0.0206
      8  CE        42.6220    6.3330   13.5150 C.3    39  LYS39       0.1093
      9  NZ        41.3860    5.8140   14.1630 N.3    39  LYS39      -0.1314
     10  N         44.1550    3.9400    7.0480 N.3    41  ALA41      -0.1231
     11  CA        43.7730    5.0680    6.1980 C.3    41  ALA41       0.1694
     12  C         43.1420    6.1960    7.0020 C.2    41  ALA41       0.2593
     13  O         42.4940    5.9690    8.0220 O.2    41  ALA41      -0.2718
     14  CB        42.8180    4.6230    5.0970 C.3    41  ALA41       0.0304
     15  N         43.3260    7.4260    6.5210 N.am   42  SER42      -0.1938
     16  CA        42.7410    8.6140    7.1370 C.3    42  SER42       0.2055
     17  C         42.5980    9.7050    6.0800 C.2    42  SER42       0.2643
     18  O         43.1490    9.6050    4.9860 O.2    42  SER42      -0.2714
     19  CB        43.5810    9.1120    8.3170 C.3    42  SER42       0.2130
     20  OG        44.8740    9.4810    7.8780 O.3    42  SER42      -0.2179
     21  N         41.8440   10.7290    6.4130 N.am   43  PHE43      -0.1973
     22  CA        41.6470   11.8700    5.5400 C.3    43  PHE43       0.1639
     23  C         41.6710   13.1080    6.3920 C.2    43  PHE43       0.2290
     24  O         40.9280   13.1940    7.3740 O.2    43  PHE43      -0.2864
     25  CB        40.3370   11.7720    4.7380 C.3    43  PHE43       0.0560
     26  CG        40.2250   12.8970    3.7420 C.ar   43  PHE43      -0.0200
     27  CD1       40.8600   12.8190    2.5070 C.ar   43  PHE43      -0.0042
     28  CD2       39.5620   14.0780    4.0710 C.ar   43  PHE43      -0.0042
     29  CE1       40.8100   13.8870    1.6080 C.ar   43  PHE43      -0.0003
     30  CE2       39.5230   15.1490    3.1740 C.ar   43  PHE43      -0.0003
     31  CZ        40.1490   15.0470    1.9520 C.ar   43  PHE43      -0.0000
     32  N         40.7690   17.0020    6.4990 N.3    45  PHE45      -0.1241
     33  CA        40.0500   18.1150    5.8520 C.3    45  PHE45       0.1605
     34  C         40.9030   19.3860    5.8370 C.2    45  PHE45       0.2264
     35  O         40.7600   20.2050    4.9310 O.2    45  PHE45      -0.2867
     36  CB        38.7230   18.4170    6.5720 C.3    45  PHE45       0.0534
     37  CG        37.6000   17.4820    6.2030 C.ar   45  PHE45      -0.0203
     38  CD1       37.4020   16.2950    6.9030 C.ar   45  PHE45      -0.0042
     39  CD2       36.7390   17.7830    5.1490 C.ar   45  PHE45      -0.0042
     40  CE1       36.3680   15.4160    6.5450 C.ar   45  PHE45      -0.0003
     41  CE2       35.6950   16.9150    4.8050 C.ar   45  PHE45      -0.0003
     42  CZ        35.5060   15.7460    5.5110 C.ar   45  PHE45      -0.0000
     43  N         35.6280    4.8520    1.4100 N.3    71  HIS71      -0.1226
     44  CA        35.1920    5.2950    2.7410 C.3    71  HIS71       0.1752
     45  C         35.6910    6.7270    3.0290 C.2    71  HIS71       0.2595
     46  O         34.8970    7.5890    3.3930 O.2    71  HIS71      -0.2718
     47  CB        35.6870    4.3340    3.8540 C.3    71  HIS71       0.0759
     48  CG        35.1880    4.7170    5.2230 C.ar   71  HIS71       0.0818
     49  ND1       34.0770    4.1130    5.7810 N.ar   71  HIS71      -0.2268
     50  CD2       35.6450    5.6650    6.0740 C.ar   71  HIS71       0.1154
     51  CE1       33.9140    4.6800    6.9710 C.ar   71  HIS71       0.1986
     52  NE2       34.8150    5.6510    7.1760 N.ar   71  HIS71      -0.2212
     53  N         36.9970    6.9680    2.8750 N.am   72  GLU72      -0.1979
     54  CA        37.5680    8.2950    3.1700 C.3    72  GLU72       0.1602
     55  C         37.0170    9.3980    2.2760 C.2    72  GLU72       0.2287
     56  O         36.8460   10.5350    2.7250 O.2    72  GLU72      -0.2864
     57  CB        39.0950    8.2850    2.9970 C.3    72  GLU72       0.0415
     58  CG        39.8070    7.1430    3.6960 C.3    72  GLU72       0.1163
     59  CD        39.6030    7.0900    5.1900 C.2    72  GLU72       0.3649
     60  OE1       39.2150    8.1180    5.7870 O.co2  72  GLU72      -0.2457
     61  OE2       39.7840    5.9930    5.7580 O.co2  72  GLU72      -0.2457
     62  N         33.4470   10.7310    3.0520 N.3    75  HIS75      -0.1241
     63  CA        33.5430   11.7590    4.0970 C.3    75  HIS75       0.1621
     64  C         33.8730   13.1210    3.4670 C.2    75  HIS75       0.2264
     65  O         33.2440   14.1200    3.7990 O.2    75  HIS75      -0.2867
     66  CB        34.6340   11.4130    5.1340 C.3    75  HIS75       0.0745
     67  CG        34.2530   10.3590    6.1190 C.ar   75  HIS75       0.0817
     68  ND1       33.1840   10.5270    6.9790 N.ar   75  HIS75      -0.2268
     69  CD2       34.8420    9.1710    6.3780 C.ar   75  HIS75       0.1154
     70  CE1       33.1540    9.4410    7.7310 C.ar   75  HIS75       0.1986
     71  NE2       34.1300    8.5970    7.4050 N.ar   75  HIS75      -0.2212
     72  N         32.7180   14.1380    9.0950 N.3    81  ILE81      -0.1245
     73  CA        33.5730   13.0800    9.6470 C.3    81  ILE81       0.1561
     74  C         32.6920   11.9260   10.1880 C.2    81  ILE81       0.2260
     75  O         33.2180   10.8990   10.6090 O.2    81  ILE81      -0.2867
     76  CB        34.5310   13.6230   10.7390 C.3    81  ILE81       0.0252
     77  CG1       33.7460   14.1190   11.9780 C.3    81  ILE81       0.0019
     78  CG2       35.4750   14.6990   10.1500 C.3    81  ILE81       0.0019
     79  CD1       34.5810   14.2570   13.2700 C.3    81  ILE81       0.0001
     80  N         29.2500    9.0740   10.1140 N.3    83  HIS83      -0.1241
     81  CA        28.6770    8.0300    9.2670 C.3    83  HIS83       0.1621
     82  C         27.1490    8.0830    9.3960 C.2    83  HIS83       0.2264
     83  O         26.5090    7.0950    9.7540 O.2    83  HIS83      -0.2867
     84  CB        29.2430    6.6420    9.6260 C.3    83  HIS83       0.0745
     85  CG        30.7350    6.6050    9.7450 C.ar   83  HIS83       0.0817
     86  ND1       31.3520    6.4230   10.9620 N.ar   83  HIS83      -0.2268
     87  CD2       31.6810    6.7140    8.7870 C.ar   83  HIS83       0.1154
     88  CE1       32.6520    6.4570   10.7190 C.ar   83  HIS83       0.1986
     89  NE2       32.8950    6.6340    9.4190 N.ar   83  HIS83      -0.2212
@<TRIPOS>BOND
     1    43    44    1
     2    29    31   ar
     3    29    27   ar
     4    31    30   ar
     5    55    56    2
     6    55    54    1
     7    27    26   ar
     8    44    45    1
     9    44    47    1
    10    53    45   am
    11    53    54    1
    12    57    54    1
    13    57    58    1
    14    45    46    2
    15    62    63    1
    16    30    28   ar
    17    64    65    2
    18    64    63    1
    19    58    59    1
    20    26    28   ar
    21    26    25    1
    22    47    48    1
    23    63    66    1
    24    25    22    1
    25    41    39   ar
    26    41    42   ar
    27    35    34    2
    28    18    17    2
    29    14    11    1
    30    66    67    1
    31    39    37   ar
    32    59    61   ar
    33    59    60   ar
    34    48    49   ar
    35    48    50   ar
    36    42    40   ar
    37    22    23    1
    38    22    21    1
    39    49    51   ar
    40    34    33    1
    41    33    32    1
    42    33    36    1
    43    50    52   ar
    44    17    21   am
    45    17    16    1
    46    67    69   ar
    47    67    68   ar
    48    11    12    1
    49    11    10    1
    50    37    36    1
    51    37    38   ar
    52    69    71   ar
    53    23    24    2
    54    15    12   am
    55    15    16    1
    56    40    38   ar
    57    51    52   ar
    58    68    70   ar
    59    12    13    2
    60    16    19    1
    61    71    70   ar
    62    20    19    1
    63    87    89   ar
    64    87    85   ar
    65    72    73    1
    66    81    82    1
    67    81    84    1
    68    81    80    1
    69    82    83    2
    70    89    88   ar
    71     4     3    2
    72    84    85    1
    73    73    74    1
    74    73    76    1
    75    85    86   ar
    76     3     2    1
    77    78    76    1
    78    74    75    2
    79    88    86   ar
    80     5     2    1
    81     5     6    1
    82    76    77    1
    83     2     1    1
    84     6     7    1
    85    77    79    1
    86     7     8    1
    87     8     9    1
