@<TRIPOS>MOLECULE
tmp/4jizA00.pdb
 168 170 0 0 0
SMALL
GASTEIGER

@<TRIPOS>ATOM
      1  N         -0.9070   10.0370    6.4170 N.3    52  PRO52      -0.2102
      2  CA        -0.7550   11.4400    6.8230 C.3    52  PRO52       0.1504
      3  C          0.1640   12.2680    5.9160 C.2    52  PRO52       0.2576
      4  O          0.1830   13.4940    6.0470 O.2    52  PRO52      -0.2718
      5  CB        -0.1580   11.3350    8.2340 C.3    52  PRO52       0.0282
      6  CG        -0.4830    9.9500    8.6960 C.3    52  PRO52       0.0208
      7  CD        -0.4500    9.1070    7.4640 C.3    52  PRO52       0.0893
      8  N          0.9080   11.6240    5.0190 N.am   53  ARG53      -0.1966
      9  CA         1.8280   12.3470    4.1390 C.3    53  ARG53       0.1729
     10  C          1.1540   12.8490    2.8650 C.2    53  ARG53       0.2616
     11  O          1.7210   13.6590    2.1340 O.2    53  ARG53      -0.2715
     12  CB         3.0150   11.4680    3.7540 C.3    53  ARG53       0.0348
     13  CG         3.9560   11.1740    4.8990 C.3    53  ARG53       0.0492
     14  CD         5.2680   10.5900    4.4080 C.3    53  ARG53       0.2205
     15  NE         5.9620    9.8800    5.4770 N.pl3  53  ARG53      -0.0865
     16  CZ         7.2690    9.6380    5.5020 C.cat  53  ARG53       0.5346
     17  NH1        8.0550   10.0550    4.5170 N.pl3  53  ARG53       0.1354
     18  NH2        7.7940    8.9820    6.5270 N.pl3  53  ARG53       0.1354
     19  N         -0.0510   12.3610    2.5970 N.am   54  TYR54      -0.1960
     20  CA        -0.7600   12.7260    1.3790 C.3    54  TYR54       0.1771
     21  C         -2.2320   12.9900    1.6590 C.2    54  TYR54       0.2619
     22  O         -2.9540   12.1220    2.1460 O.2    54  TYR54      -0.2715
     23  CB        -0.6140   11.6280    0.3290 C.3    54  TYR54       0.0574
     24  CG         0.8180   11.3510   -0.0540 C.ar   54  TYR54      -0.0198
     25  CD1        1.4290   12.0540   -1.0840 C.ar   54  TYR54      -0.0009
     26  CD2        1.5610   10.3890    0.6150 C.ar   54  TYR54      -0.0009
     27  CE1        2.7420   11.8060   -1.4370 C.ar   54  TYR54       0.0417
     28  CE2        2.8720   10.1340    0.2710 C.ar   54  TYR54       0.0417
     29  CZ         3.4580   10.8440   -0.7550 C.ar   54  TYR54       0.1957
     30  OH         4.7650   10.5880   -1.1000 O.3    54  TYR54      -0.2866
     31  N         -2.6650   14.2020    1.3420 N.am   55  GLU55      -0.1963
     32  CA        -4.0510   14.5980    1.5290 C.3    55  GLU55       0.1733
     33  C         -4.5980   15.1350    0.2180 C.2    55  GLU55       0.2616
     34  O         -3.9660   15.9600   -0.4350 O.2    55  GLU55      -0.2715
     35  CB        -4.1390   15.6360    2.6440 C.3    55  GLU55       0.0429
     36  CG        -5.2310   16.6760    2.5050 C.3    55  GLU55       0.1163
     37  CD        -5.4070   17.4660    3.7880 C.2    55  GLU55       0.3649
     38  OE1       -4.9340   16.9910    4.8420 O.co2  55  GLU55      -0.2457
     39  OE2       -6.0100   18.5570    3.7470 O.co2  55  GLU55      -0.2457
     40  N         -5.7680   14.6430   -0.1750 N.am   56  TYR56      -0.1960
     41  CA        -6.3310   14.9670   -1.4790 C.3    56  TYR56       0.1771
     42  C         -7.5700   15.8480   -1.3540 C.2    56  TYR56       0.2620
     43  O         -8.3910   15.6650   -0.4530 O.2    56  TYR56      -0.2715
     44  CB        -6.7050   13.6910   -2.2380 C.3    56  TYR56       0.0574
     45  CG        -5.5670   12.7200   -2.4520 C.ar   56  TYR56      -0.0198
     46  CD1       -4.6100   12.9440   -3.4330 C.ar   56  TYR56      -0.0009
     47  CD2       -5.4620   11.5660   -1.6860 C.ar   56  TYR56      -0.0009
     48  CE1       -3.5710   12.0510   -3.6360 C.ar   56  TYR56       0.0417
     49  CE2       -4.4330   10.6680   -1.8820 C.ar   56  TYR56       0.0417
     50  CZ        -3.4900   10.9130   -2.8580 C.ar   56  TYR56       0.1957
     51  OH        -2.4630   10.0180   -3.0510 O.3    56  TYR56      -0.2866
     52  N         -7.7030   16.7860   -2.2850 N.am   57  HIS57      -0.1959
     53  CA        -8.8330   17.7070   -2.3160 C.3    57  HIS57       0.1787
     54  C         -9.5120   17.6150   -3.6760 C.2    57  HIS57       0.2620
     55  O         -8.8440   17.6560   -4.7100 O.2    57  HIS57      -0.2715
     56  CB        -8.3510   19.1350   -2.0610 C.3    57  HIS57       0.0785
     57  CG        -7.7650   19.3410   -0.6990 C.ar   57  HIS57       0.0821
     58  ND1       -6.9250   20.3900   -0.4010 N.ar   57  HIS57      -0.2267
     59  CD2       -7.8990   18.6270    0.4440 C.ar   57  HIS57       0.1154
     60  CE1       -6.5670   20.3180    0.8700 C.ar   57  HIS57       0.1986
     61  NE2       -7.1440   19.2580    1.4030 N.ar   57  HIS57      -0.2212
     62  N        -10.8350   17.4880   -3.6820 N.am   58  TRP58      -0.1960
     63  CA       -11.5430   17.2100   -4.9270 C.3    58  TRP58       0.1771
     64  C        -11.7210   18.4080   -5.8470 C.2    58  TRP58       0.2619
     65  O        -12.2210   19.4590   -5.4480 O.2    58  TRP58      -0.2715
     66  CB       -12.9200   16.5990   -4.6760 C.3    58  TRP58       0.0590
     67  CG       -13.6270   16.3500   -5.9750 C.ar   58  TRP58       0.0006
     68  CD1      -14.7240   17.0040   -6.4600 C.ar   58  TRP58       0.0946
     69  CD2      -13.2510   15.3990   -6.9770 C.ar   58  TRP58       0.0152
     70  NE1      -15.0610   16.5070   -7.6980 N.ar   58  TRP58      -0.2442
     71  CE2      -14.1710   15.5210   -8.0370 C.ar   58  TRP58       0.0810
     72  CE3      -12.2260   14.4530   -7.0790 C.ar   58  TRP58       0.0012
     73  CZ2      -14.1000   14.7270   -9.1820 C.ar   58  TRP58       0.0191
     74  CZ3      -12.1580   13.6660   -8.2130 C.ar   58  TRP58       0.0001
     75  CH2      -13.0870   13.8100   -9.2510 C.ar   58  TRP58       0.0015
     76  N        -11.3180   18.2140   -7.0960 N.am   59  ALA59      -0.1977
     77  CA       -11.6370   19.1330   -8.1740 C.3    59  ALA59       0.1597
     78  C        -11.6360   18.3330   -9.4670 C.2    59  ALA59       0.2287
     79  O        -10.8280   17.4190   -9.6280 O.2    59  ALA59      -0.2864
     80  CB       -10.6210   20.2560   -8.2400 C.3    59  ALA59       0.0319
     81  N        -13.2730   23.8310  -10.0960 N.3    65  LYS65      -0.1231
     82  CA       -11.8780   24.1340  -10.4010 C.3    65  LYS65       0.1693
     83  C        -11.0530   24.3960   -9.1390 C.2    65  LYS65       0.2592
     84  O         -9.8350   24.2120   -9.1330 O.2    65  LYS65      -0.2718
     85  CB       -11.8000   25.3370  -11.3420 C.3    65  LYS65       0.0285
     86  CG       -12.3610   25.0610  -12.7300 C.3    65  LYS65       0.0035
     87  CD       -13.1780   26.2250  -13.2810 C.3    65  LYS65       0.0206
     88  CE       -14.5760   26.2800  -12.6760 C.3    65  LYS65       0.1093
     89  NZ       -14.6900   27.2720  -11.5720 N.3    65  LYS65      -0.1314
     90  N        -11.7210   24.8270   -8.0750 N.am   66  LYS66      -0.1966
     91  CA       -11.0560   25.1000   -6.8050 C.3    66  LYS66       0.1713
     92  C        -11.2790   23.9400   -5.8330 C.2    66  LYS66       0.2458
     93  O        -12.3890   23.7470   -5.3410 O.2    66  LYS66      -0.2730
     94  CB       -11.5750   26.4100   -6.2080 C.3    66  LYS66       0.0311
     95  CG       -11.2540   26.5960   -4.7370 C.3    66  LYS66       0.0038
     96  CD       -11.4560   28.0400   -4.3130 C.3    66  LYS66       0.0206
     97  CE       -11.2640   28.2120   -2.8170 C.3    66  LYS66       0.1093
     98  NZ       -12.3870   28.9660   -2.1980 N.3    66  LYS66      -0.1314
     99  N        -10.2170   23.1640   -5.5520 N.am   67  PRO67      -0.2727
    100  CA       -10.3230   21.9360   -4.7530 C.3    67  PRO67       0.1402
    101  C        -11.0940   22.0810   -3.4450 C.2    67  PRO67       0.2269
    102  O        -10.9090   23.0480   -2.7050 O.2    67  PRO67      -0.2865
    103  CB        -8.8630   21.5790   -4.4750 C.3    67  PRO67       0.0296
    104  CG        -8.1360   22.1060   -5.6480 C.3    67  PRO67       0.0237
    105  CD        -8.8330   23.3940   -6.0020 C.3    67  PRO67       0.0939
    106  N        -15.1210   12.3960   -1.0120 N.3    75  TYR75      -0.1241
    107  CA       -14.1600   12.5640   -2.0960 C.3    75  TYR75       0.1605
    108  C        -14.3090   11.4490   -3.1280 C.2    75  TYR75       0.2264
    109  O        -14.2820   11.6880   -4.3350 O.2    75  TYR75      -0.2867
    110  CB       -12.7300   12.5660   -1.5540 C.3    75  TYR75       0.0534
    111  CG       -11.6780   12.7150   -2.6300 C.ar   75  TYR75      -0.0201
    112  CD1      -11.2920   11.6280   -3.4060 C.ar   75  TYR75      -0.0009
    113  CD2      -11.0690   13.9400   -2.8680 C.ar   75  TYR75      -0.0009
    114  CE1      -10.3340   11.7600   -4.3870 C.ar   75  TYR75       0.0417
    115  CE2      -10.1100   14.0800   -3.8480 C.ar   75  TYR75       0.0417
    116  CZ        -9.7500   12.9880   -4.6050 C.ar   75  TYR75       0.1957
    117  OH        -8.7910   13.1320   -5.5770 O.3    75  TYR75      -0.2866
    118  N         -5.1240    8.2980  -13.0230 N.3   114  LYS114     -0.1231
    119  CA        -4.4490    9.0470  -11.9710 C.3   114  LYS114      0.1693
    120  C         -5.2810    9.0770  -10.6920 C.2   114  LYS114      0.2591
    121  O         -4.7720    8.8140   -9.6030 O.2   114  LYS114     -0.2718
    122  CB        -4.1680   10.4770  -12.4410 C.3   114  LYS114      0.0285
    123  CG        -4.0350   11.4840  -11.3070 C.3   114  LYS114      0.0035
    124  CD        -3.2950   12.7440  -11.7390 C.3   114  LYS114      0.0206
    125  CE        -4.2470   13.8560  -12.1580 C.3   114  LYS114      0.1093
    126  NZ        -3.5160   15.1100  -12.5030 N.3   114  LYS114     -0.1314
    127  N         -6.5650    9.3920  -10.8280 N.am  115  ARG115     -0.1980
    128  CA        -7.4300    9.5760   -9.6660 C.3   115  ARG115      0.1597
    129  C         -7.9420    8.2510   -9.0930 C.2   115  ARG115      0.2287
    130  O         -8.1590    8.1320   -7.8860 O.2   115  ARG115     -0.2864
    131  CB        -8.5880   10.5150  -10.0200 C.3   115  ARG115      0.0334
    132  CG        -8.1300   11.9560  -10.2120 C.3   115  ARG115      0.0492
    133  CD        -9.2320   12.8760  -10.7030 C.3   115  ARG115      0.2205
    134  NE        -8.7550   14.2550  -10.7880 N.pl3 115  ARG115     -0.0865
    135  CZ        -9.2740   15.1890  -11.5790 C.cat 115  ARG115      0.5346
    136  NH1      -10.2970   14.9040  -12.3750 N.pl3 115  ARG115      0.1354
    137  NH2       -8.7620   16.4110  -11.5820 N.pl3 115  ARG115      0.1354
    138  N         -5.8570    6.7740   -6.3410 N.3   118  ARG118     -0.1245
    139  CA        -5.9790    7.3450   -5.0040 C.3   118  ARG118      0.1563
    140  C         -6.9290    6.5400   -4.1240 C.2   118  ARG118      0.2260
    141  O         -6.8050    6.5440   -2.8980 O.2   118  ARG118     -0.2867
    142  CB        -6.4270    8.8040   -5.1000 C.3   118  ARG118      0.0307
    143  CG        -5.4050    9.6780   -5.8040 C.3   118  ARG118      0.0489
    144  CD        -5.9240   11.0670   -6.1170 C.3   118  ARG118      0.2205
    145  NE        -4.9320   11.8160   -6.8830 N.pl3 118  ARG118     -0.0865
    146  CZ        -5.1290   13.0160   -7.4180 C.cat 118  ARG118      0.5346
    147  NH1       -6.2920   13.6330   -7.2790 N.pl3 118  ARG118      0.1354
    148  NH2       -4.1520   13.6010   -8.0950 N.pl3 118  ARG118      0.1354
    149  N          5.4660   10.6130   -9.3230 N.3   160  ARG160     -0.1231
    150  CA         5.1320   11.4060   -8.1420 C.3   160  ARG160      0.1694
    151  C          3.6940   11.1700   -7.6770 C.2   160  ARG160      0.2591
    152  O          3.3850   11.3270   -6.4960 O.2   160  ARG160     -0.2718
    153  CB         5.3940   12.8960   -8.3820 C.3   160  ARG160      0.0321
    154  CG         6.8750   13.2510   -8.3590 C.3   160  ARG160      0.0489
    155  CD         7.1200   14.7500   -8.2890 C.3   160  ARG160      0.2205
    156  NE         8.4940   15.0760   -8.6650 N.pl3 160  ARG160     -0.0865
    157  CZ         8.9830   16.3100   -8.7460 C.cat 160  ARG160      0.5346
    158  NH1        8.2130   17.3570   -8.4800 N.pl3 160  ARG160      0.1354
    159  NH2       10.2470   16.4970   -9.0980 N.pl3 160  ARG160      0.1354
    160  N          2.8220   10.7840   -8.6020 N.am  161  GLU161     -0.1979
    161  CA         1.4530   10.4190   -8.2510 C.3   161  GLU161      0.1602
    162  C          1.4260    9.0660   -7.5470 C.2   161  GLU161      0.2287
    163  O          0.6170    8.8440   -6.6500 O.2   161  GLU161     -0.2864
    164  CB         0.5760   10.3690   -9.5020 C.3   161  GLU161      0.0415
    165  CG         0.1820   11.7370  -10.0440 C.3   161  GLU161      0.1163
    166  CD        -0.7560   12.4880   -9.1180 C.2   161  GLU161      0.3649
    167  OE1       -1.5650   11.8350   -8.4260 O.co2 161  GLU161     -0.2457
    168  OE2       -0.6840   13.7330   -9.0780 O.co2 161  GLU161     -0.2457
@<TRIPOS>BOND
     1    87    86    1
     2    87    88    1
     3   118   119    1
     4    86    85    1
     5    88    89    1
     6   126   125    1
     7   122   119    1
     8   122   123    1
     9   136   135    1
    10   125   124    1
    11   119   120    1
    12   124   123    1
    13   137   135    1
    14   135   134    2
    15    85    82    1
    16   127   120   am
    17   127   128    1
    18   134   133    1
    19   133   132    1
    20   120   121    2
    21    82    81    1
    22    82    83    1
    23   132   131    1
    24   165   164    1
    25   165   166    1
    26   131   128    1
    27   128   129    1
    28    79    78    2
    29   164   161    1
    30    78    77    1
    31   149   150    1
    32    75    73   ar
    33    75    74   ar
    34    73    71   ar
    35    83    84    2
    36    83    90   am
    37   166   168   ar
    38   166   167   ar
    39   159   157    1
    40   129   130    2
    41   157   156    2
    42   157   158    1
    43   156   155    1
    44   160   161    1
    45   160   151   am
    46   153   154    1
    47   153   150    1
    48   154   155    1
    49   161   162    1
    50    80    77    1
    51    74    72   ar
    52    77    76    1
    53   150   151    1
    54   148   146    1
    55    90    91    1
    56    71    70   ar
    57    71    69   ar
    58    70    68   ar
    59   151   152    2
    60   162   163    2
    61   146   147    1
    62   146   145    2
    63    76    64   am
    64    72    69   ar
    65    69    67   ar
    66   145   144    1
    67    91    94    1
    68    91    92    1
    69    68    67   ar
    70   138   139    1
    71    94    95    1
    72   144   143    1
    73   105   104    1
    74   105    99    1
    75    67    66    1
    76    64    65    2
    77    64    63    1
    78    92    99   am
    79    92    93    2
    80   143   142    1
    81   104   103    1
    82   117   116    1
    83    99   100    1
    84   142   139    1
    85   139   140    1
    86    63    66    1
    87    63    62    1
    88   100   103    1
    89   100   101    1
    90    95    96    1
    91    55    54    2
    92   116   114   ar
    93   116   115   ar
    94   114   112   ar
    95   109   108    2
    96    96    97    1
    97   140   141    2
    98   115   113   ar
    99    62    54   am
   100    54    53    1
   101    48    46   ar
   102    48    50   ar
   103   101   102    2
   104    46    45   ar
   105   112   111   ar
   106   108   107    1
   107    51    50    1
   108   113   111   ar
   109    50    49   ar
   110    97    98    1
   111   111   110    1
   112    45    44    1
   113    45    47   ar
   114    53    52    1
   115    53    56    1
   116    52    42   am
   117    44    41    1
   118   107   110    1
   119   107   106    1
   120    56    57    1
   121    49    47   ar
   122    41    42    1
   123    41    40    1
   124    27    25   ar
   125    27    29   ar
   126    42    43    2
   127    30    29    1
   128    25    24   ar
   129    29    28   ar
   130    57    58   ar
   131    57    59   ar
   132    34    33    2
   133    58    60   ar
   134    40    33   am
   135    24    23    1
   136    24    26   ar
   137    33    32    1
   138    28    26   ar
   139    23    20    1
   140    59    61   ar
   141    60    61   ar
   142    31    32    1
   143    31    21   am
   144    20    21    1
   145    20    19    1
   146    32    35    1
   147    21    22    2
   148    11    10    2
   149    36    35    1
   150    36    37    1
   151    19    10   am
   152    10     9    1
   153    39    37   ar
   154    12     9    1
   155    12    13    1
   156    37    38   ar
   157     9     8    1
   158    14    13    1
   159    14    15    1
   160    17    16    1
   161     8     3   am
   162    15    16    2
   163    16    18    1
   164     3     4    2
   165     3     2    1
   166     1     2    1
   167     1     7    1
   168     2     5    1
   169     7     6    1
   170     5     6    1
