@<TRIPOS>MOLECULE
tmp/4jj0A00.pdb
 134 135 0 0 0
SMALL
GASTEIGER

@<TRIPOS>ATOM
      1  N         52.9330   17.2320   12.8310 N.3   154  LEU154     -0.1245
      2  CA        53.9770   16.8640   13.8130 C.3   154  LEU154      0.1561
      3  C         54.9530   17.9960   14.0630 C.2   154  LEU154      0.2260
      4  O         55.3570   18.6150   13.1280 O.2   154  LEU154     -0.2867
      5  CB        54.7900   15.6910   13.3230 C.3   154  LEU154      0.0270
      6  CG        53.8820   14.4410   13.2430 C.3   154  LEU154      0.0019
      7  CD1       54.5640   13.3510   12.4750 C.3   154  LEU154      0.0001
      8  CD2       53.6130   14.0270   14.6750 C.3   154  LEU154      0.0001
      9  N         58.4810   19.8320   14.2020 N.3   156  PRO156     -0.2102
     10  CA        59.8290   19.4970   13.7790 C.3   156  PRO156      0.1504
     11  C         60.6730   19.2520   15.0490 C.2   156  PRO156      0.2576
     12  O         60.4410   19.8690   16.0790 O.2   156  PRO156     -0.2718
     13  CB        60.3020   20.7710   13.0080 C.3   156  PRO156      0.0282
     14  CG        59.0050   21.3850   12.5220 C.3   156  PRO156      0.0208
     15  CD        58.0260   21.1260   13.6930 C.3   156  PRO156      0.0893
     16  N         61.6740   18.4020   15.0470 N.am  157  GLY157     -0.1943
     17  CA        62.2840   18.2780   16.4240 C.3   157  GLY157      0.1998
     18  C         63.1380   19.4100   17.0480 C.2   157  GLY157      0.2481
     19  O         63.3300   20.5070   16.4500 O.2   157  GLY157     -0.2729
     20  N         63.6900   19.1470   18.2560 N.am  158  PRO158     -0.2715
     21  CA        64.8420   19.9410   18.6630 C.3   158  PRO158      0.1536
     22  C         65.9640   19.5440   17.6880 C.2   158  PRO158      0.2598
     23  O         65.9210   18.4490   17.1460 O.2   158  PRO158     -0.2715
     24  CB        65.1670   19.4260   20.0780 C.3   158  PRO158      0.0310
     25  CG        63.9950   18.6030   20.4980 C.3   158  PRO158      0.0237
     26  CD        63.4020   18.0600   19.2180 C.3   158  PRO158      0.0939
     27  N         66.9240   20.4230   17.4360 N.am  159  ILE159     -0.1978
     28  CA        68.1160   20.0500   16.6640 C.3   159  ILE159      0.1596
     29  C         69.3620   20.5860   17.3730 C.2   159  ILE159      0.2287
     30  O         69.3140   21.6070   18.0490 O.2   159  ILE159     -0.2864
     31  CB        68.1270   20.6240   15.2170 C.3   159  ILE159      0.0276
     32  CG1       68.3380   22.1410   15.2040 C.3   159  ILE159      0.0022
     33  CG2       66.9260   20.1480   14.4090 C.3   159  ILE159      0.0022
     34  CD1       68.4900   22.7420   13.8040 C.3   159  ILE159      0.0001
     35  N         74.1070   23.6770   14.5350 N.3   162  GLY162     -0.1210
     36  CA        75.0490   23.2700   13.4950 C.3   162  GLY162      0.1956
     37  C         74.7430   21.9480   12.8240 C.2   162  GLY162      0.2612
     38  O         75.5280   21.4970   11.9870 O.2   162  GLY162     -0.2717
     39  N         73.6000   21.3270   13.1620 N.am  163  ALA163     -0.1965
     40  CA        73.1460   20.0740   12.5300 C.3   163  ALA163      0.1728
     41  C         73.1260   20.2680   11.0020 C.2   163  ALA163      0.2616
     42  O         72.7530   21.3460   10.5540 O.2   163  ALA163     -0.2715
     43  CB        71.7380   19.7810   13.0300 C.3   163  ALA163      0.0334
     44  N         73.5010   19.2680   10.1890 N.am  164  LYS164     -0.1963
     45  CA        73.2890   19.4220    8.7230 C.3   164  LYS164      0.1728
     46  C         71.7730   19.5310    8.4430 C.2   164  LYS164      0.2616
     47  O         70.9660   18.8830    9.0990 O.2   164  LYS164     -0.2715
     48  CB        73.8790   18.2670    7.8830 C.3   164  LYS164      0.0311
     49  CG        73.4290   16.9050    8.3430 C.3   164  LYS164      0.0038
     50  CD        73.7470   15.7250    7.3850 C.3   164  LYS164      0.0206
     51  CE        73.3010   14.3580    7.9860 C.3   164  LYS164      0.1093
     52  NZ        73.9300   13.9870    9.3040 N.3   164  LYS164     -0.1314
     53  N         71.4060   20.3070    7.4400 N.am  165  MET165     -0.1964
     54  CA        69.9940   20.5250    7.1110 C.3   165  MET165      0.1722
     55  C         69.6550   19.4850    6.0560 C.2   165  MET165      0.2458
     56  O         70.2320   19.4780    4.9770 O.2   165  MET165     -0.2730
     57  CB        69.8260   21.9160    6.4810 C.3   165  MET165      0.0427
     58  CG        68.3700   22.3040    6.1870 C.3   165  MET165      0.0599
     59  SD        68.2830   23.8960    5.3350 S.3   165  MET165     -0.1393
     60  CE        69.0580   23.4530    3.7800 C.3   165  MET165      0.0692
     61  N         68.7360   18.5880    6.3650 N.am  166  PRO166     -0.2716
     62  CA        68.3710   17.5080    5.4310 C.3   166  PRO166      0.1536
     63  C         67.3300   17.9070    4.3690 C.2   166  PRO166      0.2598
     64  O         67.2210   17.2410    3.3380 O.2   166  PRO166     -0.2715
     65  CB        67.8150   16.4290    6.3700 C.3   166  PRO166      0.0310
     66  CG        67.1680   17.2420    7.5060 C.3   166  PRO166      0.0237
     67  CD        67.9120   18.5900    7.5840 C.3   166  PRO166      0.0939
     68  N         66.5500   18.9640    4.6430 N.am  167  HIS167     -0.1974
     69  CA        65.5330   19.4650    3.6930 C.3   167  HIS167      0.1656
     70  C         66.0590   20.7020    2.9890 C.2   167  HIS167      0.2291
     71  O         67.1380   21.2000    3.2830 O.2   167  HIS167     -0.2864
     72  CB        64.2110   19.7020    4.4420 C.3   167  HIS167      0.0771
     73  CG        64.3530   20.5840    5.6630 C.ar  167  HIS167      0.0820
     74  ND1       64.7050   21.9090    5.5730 N.ar  167  HIS167     -0.2267
     75  CD2       64.2060   20.3040    7.0200 C.ar  167  HIS167      0.1154
     76  CE1       64.7700   22.4470    6.8140 C.ar  167  HIS167      0.1986
     77  NE2       64.4640   21.4740    7.7210 N.ar  167  HIS167     -0.2212
     78  N         66.0220   24.8150    1.9290 N.3   169  ASP169     -0.1225
     79  CA        65.9630   25.9890    2.7720 C.3   169  ASP169      0.1805
     80  C         64.5280   26.3710    3.0790 C.2   169  ASP169      0.2598
     81  O         63.7030   26.3780    2.1890 O.2   169  ASP169     -0.2718
     82  CB        66.5810   27.1500    2.0150 C.3   169  ASP169      0.1424
     83  CG        68.0620   26.9580    1.7770 C.2   169  ASP169      0.3668
     84  OD1       68.7890   26.6010    2.7050 O.co2 169  ASP169     -0.2456
     85  OD2       68.5100   27.2490    0.6780 O.co2 169  ASP169     -0.2456
     86  N         64.2490   26.6790    4.3420 N.am  170  ARG170     -0.1966
     87  CA        62.8670   26.9400    4.8380 C.3   170  ARG170      0.1729
     88  C         62.8200   28.1320    5.7240 C.2   170  ARG170      0.2617
     89  O         61.7130   28.5180    6.2350 O.2   170  ARG170     -0.2715
     90  CB        62.3840   25.6830    5.6720 C.3   170  ARG170      0.0348
     91  CG        62.2540   24.4040    4.8560 C.3   170  ARG170      0.0492
     92  CD        61.3880   23.3360    5.5750 C.3   170  ARG170      0.2205
     93  NE        60.9470   22.3310    4.5770 N.pl3 170  ARG170     -0.0865
     94  CZ        60.5300   21.0930    4.8820 C.cat 170  ARG170      0.5346
     95  NH1       60.6110   20.6670    6.1320 N.pl3 170  ARG170      0.1354
     96  NH2       60.1140   20.2390    3.9630 N.pl3 170  ARG170      0.1354
     97  N         64.0170   28.7050    5.9190 N.am  171  GLY171     -0.1941
     98  CA        64.2080   29.8530    6.8490 C.3   171  GLY171      0.1998
     99  C         65.1330   29.6190    8.0520 C.2   171  GLY171      0.2481
    100  O         65.8310   28.5520    8.1520 O.2   171  GLY171     -0.2729
    101  N         65.1570   30.6000    8.9940 N.am  172  PRO172     -0.2715
    102  CA        66.0210   30.4400   10.1740 C.3   172  PRO172      0.1536
    103  C         65.6030   29.2450   10.9540 C.2   172  PRO172      0.2598
    104  O         64.4170   29.0770   11.1890 O.2   172  PRO172     -0.2715
    105  CB        65.7950   31.7340   11.0140 C.3   172  PRO172      0.0310
    106  CG        65.1330   32.6860   10.0660 C.3   172  PRO172      0.0237
    107  CD        64.3790   31.8630    9.0250 C.3   172  PRO172      0.0939
    108  N         66.5530   28.4150   11.3510 N.am  173  CYS173     -0.1968
    109  CA        66.2520   27.1240   11.9650 C.3   173  CYS173      0.1712
    110  C         65.3930   27.2900   13.2110 C.2   173  CYS173      0.2296
    111  O         64.4760   26.5000   13.4410 O.2   173  CYS173     -0.2864
    112  CB        67.5310   26.3350   12.2880 C.3   173  CYS173      0.0983
    113  SG        68.8150   26.3630   11.0190 S.3   173  CYS173     -0.0798
    114  N         63.1160   29.3170   13.8320 N.3   175  ALA175     -0.1231
    115  CA        61.6820   29.5860   13.5270 C.3   175  ALA175      0.1694
    116  C         60.8870   28.3220   13.7500 C.2   175  ALA175      0.2592
    117  O         59.6870   28.4040   14.0200 O.2   175  ALA175     -0.2718
    118  CB        61.5180   30.1000   12.1000 C.3   175  ALA175      0.0304
    119  N         61.5420   27.1540   13.6100 N.am  176  CYS176     -0.1956
    120  CA        60.8120   25.9420   13.5910 C.3   176  CYS176      0.1843
    121  C         61.3110   24.8800   14.5390 C.2   176  CYS176      0.2625
    122  O         60.5460   23.9330   14.8400 O.2   176  CYS176     -0.2714
    123  CB        60.8230   25.3340   12.1720 C.3   176  CYS176      0.0997
    124  SG        59.8450   26.3450   11.0090 S.3   176  CYS176     -0.0797
    125  N         62.5890   24.9590   14.9130 N.am  177  HIS177     -0.1973
    126  CA        63.2080   23.9210   15.7200 C.3   177  HIS177      0.1656
    127  C         63.7590   24.4860   17.0290 C.2   177  HIS177      0.2291
    128  O         64.4080   25.5570   17.0670 O.2   177  HIS177     -0.2864
    129  CB        64.4000   23.3000   14.9970 C.3   177  HIS177      0.0771
    130  CG        64.0800   22.5530   13.7250 C.ar  177  HIS177      0.0820
    131  ND1       63.6830   21.2660   13.7250 N.ar  177  HIS177     -0.2267
    132  CD2       64.2260   22.9150   12.4110 C.ar  177  HIS177      0.1154
    133  CE1       63.5560   20.8260   12.4700 C.ar  177  HIS177      0.1986
    134  NE2       63.9020   21.8370   11.6530 N.ar  177  HIS177     -0.2212
@<TRIPOS>BOND
     1    85    83   ar
     2    83    82    1
     3    83    84   ar
     4    78    79    1
     5    82    79    1
     6    81    80    2
     7    79    80    1
     8    70    71    2
     9    70    69    1
    10    80    86   am
    11    64    63    2
    12    69    72    1
    13    69    68    1
    14    60    59    1
    15    96    94    1
    16    86    87    1
    17    63    68   am
    18    63    62    1
    19    72    73    1
    20    93    94    2
    21    93    92    1
    22    87    90    1
    23    87    88    1
    24    91    92    1
    25    91    90    1
    26    94    95    1
    27    56    55    2
    28    59    58    1
    29    62    61    1
    30    62    65    1
    31    74    73   ar
    32    74    76   ar
    33    73    75   ar
    34    88    97   am
    35    88    89    2
    36    97    98    1
    37    55    61   am
    38    55    54    1
    39    58    57    1
    40    61    67    1
    41    65    66    1
    42    57    54    1
    43    76    77   ar
    44    98    99    1
    45    75    77   ar
    46    54    53    1
    47    50    51    1
    48    50    49    1
    49    53    46   am
    50    66    67    1
    51    48    49    1
    52    48    45    1
    53    51    52    1
    54    99   100    2
    55    99   101   am
    56    46    45    1
    57    46    47    2
    58    45    44    1
    59   101   107    1
    60   101   102    1
    61   107   106    1
    62   106   105    1
    63   102   103    1
    64   102   105    1
    65    44    41   am
    66    42    41    2
    67   103   104    2
    68   103   108   am
    69    41    40    1
    70   124   123    1
    71   113   112    1
    72   108   109    1
    73   134   132   ar
    74   134   133   ar
    75   109   112    1
    76   109   110    1
    77    38    37    2
    78   118   115    1
    79   123   120    1
    80   132   130   ar
    81   133   131   ar
    82     7     6    1
    83    14    13    1
    84    14    15    1
    85    40    43    1
    86    40    39    1
    87    37    39   am
    88    37    36    1
    89     1     2    1
    90    13    10    1
    91     4     3    2
    92   110   111    2
    93     6     5    1
    94     6     8    1
    95     5     2    1
    96    36    35    1
    97   115   116    1
    98   115   114    1
    99   120   119    1
   100   120   121    1
   101   119   116   am
   102    15     9    1
   103   131   130   ar
   104   130   129    1
   105   116   117    2
   106    10     9    1
   107    10    11    1
   108    34    32    1
   109     2     3    1
   110    33    31    1
   111   121   122    2
   112   121   125   am
   113   125   126    1
   114   129   126    1
   115    16    11   am
   116    16    17    1
   117    11    12    2
   118    32    31    1
   119    31    28    1
   120   126   127    1
   121    17    18    1
   122    19    18    2
   123    28    29    1
   124    28    27    1
   125   127   128    2
   126    18    20   am
   127    23    22    2
   128    29    30    2
   129    27    22   am
   130    22    21    1
   131    20    21    1
   132    20    26    1
   133    21    24    1
   134    26    25    1
   135    24    25    1
