@<TRIPOS>MOLECULE
tmp/4jj0A01.pdb
 174 173 0 0 0
SMALL
GASTEIGER

@<TRIPOS>ATOM
      1  N         24.8180   -1.1730    2.1340 N.3     9  GLN9       -0.1245
      2  CA        25.2430   -1.8820    0.9070 C.3     9  GLN9        0.1566
      3  C         26.7780   -1.8180    0.7460 C.2     9  GLN9        0.2260
      4  O         27.4120   -0.9870    1.3750 O.2     9  GLN9       -0.2867
      5  CB        24.5490   -1.2320   -0.3050 C.3     9  GLN9        0.0367
      6  CG        25.2000    0.0650   -0.7150 C.3     9  GLN9        0.0905
      7  CD        24.5410    0.7930   -1.8790 C.2     9  GLN9        0.2608
      8  OE1       23.2980    0.8980   -1.9550 O.2     9  GLN9       -0.2717
      9  NE2       25.3800    1.3250   -2.7910 N.am    9  GLN9       -0.0878
     10  N         30.3270   -0.7410   -0.9820 N.3    11  SER11      -0.1217
     11  CA        30.7520    0.3310   -1.8850 C.3    11  SER11       0.1889
     12  C         31.9770   -0.0110   -2.7160 C.2    11  SER11       0.2288
     13  O         32.1790    0.5750   -3.7590 O.2    11  SER11      -0.2866
     14  CB        31.0550    1.6040   -1.0730 C.3    11  SER11       0.2089
     15  OG        32.1640    1.3260   -0.2260 O.3    11  SER11      -0.2183
     16  N         34.1780   -0.7340   -8.0460 N.3    21  LEU21      -0.1245
     17  CA        33.0140   -0.0140   -7.4910 C.3    21  LEU21       0.1561
     18  C         31.7580   -0.3440   -8.3170 C.2    21  LEU21       0.2260
     19  O         31.8400   -0.5330   -9.5390 O.2    21  LEU21      -0.2867
     20  CB        33.2110    1.5320   -7.6410 C.3    21  LEU21       0.0270
     21  CG        34.5770    2.0970   -7.3800 C.3    21  LEU21       0.0019
     22  CD1       34.4860    3.6070   -7.5770 C.3    21  LEU21       0.0001
     23  CD2       35.0620    1.6760   -5.9560 C.3    21  LEU21       0.0001
     24  N         30.6270    2.2530    2.4840 N.3   116  ALA116     -0.1231
     25  CA        31.0630    3.6280    2.4310 C.3   116  ALA116      0.1679
     26  C         31.4090    4.0040    3.8750 C.2   116  ALA116      0.2434
     27  O         30.9930    3.3370    4.8120 O.2   116  ALA116     -0.2733
     28  CB        29.9490    4.5170    1.8200 C.3   116  ALA116      0.0304
     29  N         32.2280    5.0190    4.0750 N.am  117  PRO117     -0.2718
     30  CA        32.6260    5.2600    5.4770 C.3   117  PRO117      0.1535
     31  C         31.4720    5.6540    6.4230 C.2   117  PRO117      0.2598
     32  O         30.4560    6.1620    5.9970 O.2   117  PRO117     -0.2715
     33  CB        33.5110    6.4760    5.3770 C.3   117  PRO117      0.0310
     34  CG        33.8900    6.5790    3.9380 C.3   117  PRO117      0.0237
     35  CD        32.8150    5.9830    3.1290 C.3   117  PRO117      0.0939
     36  N         31.6530    5.4370    7.7120 N.am  118  MET118     -0.1964
     37  CA        30.6970    5.9550    8.6960 C.3   118  MET118      0.1736
     38  C         30.7420    7.4780    8.6970 C.2   118  MET118      0.2616
     39  O         31.7930    8.0390    8.5010 O.2   118  MET118     -0.2715
     40  CB        31.0370    5.4330   10.0960 C.3   118  MET118      0.0427
     41  CG        30.1510    6.0000   11.2060 C.3   118  MET118      0.0599
     42  SD        30.5580    5.3120   12.8220 S.3   118  MET118     -0.1393
     43  CE        29.9190    3.6600   12.6680 C.3   118  MET118      0.0692
     44  N         29.5810    8.1150    8.8700 N.am  119  ILE119     -0.1977
     45  CA        29.4920    9.5830    8.8410 C.3   119  ILE119      0.1596
     46  C         28.9170   10.1210   10.1350 C.2   119  ILE119      0.2287
     47  O         28.1010    9.4740   10.7770 O.2   119  ILE119     -0.2864
     48  CB        28.6540   10.1400    7.6380 C.3   119  ILE119      0.0276
     49  CG1       27.1660    9.6500    7.6420 C.3   119  ILE119      0.0022
     50  CG2       29.2420    9.6820    6.3110 C.3   119  ILE119      0.0022
     51  CD1       26.2720   10.4520    6.6330 C.3   119  ILE119      0.0001
     52  N         26.1570   12.6280   11.9860 N.3   121  PRO121     -0.2116
     53  CA        24.8380   13.1380   11.6270 C.3   121  PRO121      0.1372
     54  C         24.9000   14.4620   10.8900 C.2   121  PRO121      0.2244
     55  O         24.0750   14.7300   10.0190 O.2   121  PRO121     -0.2868
     56  CB        24.1900   13.3490   12.9900 C.3   121  PRO121      0.0268
     57  CG        24.6860   12.2020   13.7640 C.3   121  PRO121      0.0207
     58  CD        26.1690   12.1500   13.4040 C.3   121  PRO121      0.0892
     59  N         27.5150   15.6040    8.9970 N.3   123  ASP123     -0.1225
     60  CA        28.4300   15.5890    7.8490 C.3   123  ASP123      0.1805
     61  C         27.7400   16.0690    6.5580 C.2   123  ASP123      0.2598
     62  O         26.5670   15.8440    6.3720 O.2   123  ASP123     -0.2718
     63  CB        29.0670   14.2040    7.6680 C.3   123  ASP123      0.1424
     64  CG        30.4210   14.0770    8.3360 C.2   123  ASP123      0.3668
     65  OD1       31.2220   15.0620    8.4180 O.co2 123  ASP123     -0.2456
     66  OD2       30.6890   12.9700    8.8250 O.co2 123  ASP123     -0.2456
     67  N         28.5060   16.7910    5.7560 N.am  124  ILE124     -0.1966
     68  CA        28.1360   17.3890    4.4690 C.3   124  ILE124      0.1727
     69  C         28.3980   16.3280    3.3820 C.2   124  ILE124      0.2616
     70  O         29.5310   15.8360    3.2260 O.2   124  ILE124     -0.2715
     71  CB        29.0970   18.6030    4.1510 C.3   124  ILE124      0.0290
     72  CG1       29.0060   19.7080    5.2100 C.3   124  ILE124      0.0022
     73  CG2       28.7920   19.2730    2.8040 C.3   124  ILE124      0.0023
     74  CD1       27.5590   19.9070    5.6490 C.3   124  ILE124      0.0001
     75  N         27.3810   16.0250    2.6170 N.am  125  MET125     -0.1964
     76  CA        27.5430   15.1260    1.4740 C.3   125  MET125      0.1722
     77  C         28.4770   15.7640    0.4330 C.2   125  MET125      0.2458
     78  O         28.2210   16.8610   -0.0430 O.2   125  MET125     -0.2730
     79  CB        26.1380   14.8730    0.9660 C.3   125  MET125      0.0427
     80  CG        26.0160   14.1170   -0.3000 C.3   125  MET125      0.0599
     81  SD        24.2480   13.8740   -0.6630 S.3   125  MET125     -0.1393
     82  CE        23.4760   15.4990   -0.6200 C.3   125  MET125      0.0692
     83  N         29.6130   15.1040    0.1280 N.am  126  PRO126     -0.2716
     84  CA        30.6680   15.5500   -0.8050 C.3   126  PRO126      0.1536
     85  C         30.3580   15.0890   -2.2510 C.2   126  PRO126      0.2598
     86  O         31.1730   15.2890   -3.1490 O.2   126  PRO126     -0.2715
     87  CB        31.9050   14.8090   -0.2950 C.3   126  PRO126      0.0310
     88  CG        31.3280   13.4890    0.2010 C.3   126  PRO126      0.0237
     89  CD        30.0180   13.8840    0.8670 C.3   126  PRO126      0.0939
     90  N         29.2260   14.4570   -2.4280 N.am  127  HIS127     -0.1974
     91  CA        28.7440   13.8960   -3.7230 C.3   127  HIS127      0.1656
     92  C         27.3350   14.3110   -4.0880 C.2   127  HIS127      0.2291
     93  O         26.6420   14.9080   -3.2400 O.2   127  HIS127     -0.2864
     94  CB        28.8790   12.3810   -3.6320 C.3   127  HIS127      0.0771
     95  CG        28.1190   11.7130   -2.4570 C.ar  127  HIS127      0.0820
     96  ND1       26.7460   11.6130   -2.4170 N.ar  127  HIS127     -0.2267
     97  CD2       28.6040   10.9700   -1.3780 C.ar  127  HIS127      0.1154
     98  CE1       26.3790   10.9060   -1.3040 C.ar  127  HIS127      0.1986
     99  NE2       27.5310   10.5270   -0.6580 N.ar  127  HIS127     -0.2212
    100  N         23.2710   13.9680   -4.7240 N.3   129  TYR129     -0.1227
    101  CA        22.3200   13.1810   -3.9680 C.3   129  TYR129      0.1736
    102  C         22.1980   11.7430   -4.4970 C.2   129  TYR129      0.2595
    103  O         22.1060   11.5330   -5.7170 O.2   129  TYR129     -0.2718
    104  CB        20.9500   13.9130   -3.8850 C.3   129  TYR129      0.0548
    105  CG        19.9550   13.2290   -2.9880 C.ar  129  TYR129     -0.0200
    106  CD1       20.0070   13.4380   -1.5800 C.ar  129  TYR129     -0.0009
    107  CD2       18.9240   12.4650   -3.5220 C.ar  129  TYR129     -0.0009
    108  CE1       19.1130   12.8110   -0.7300 C.ar  129  TYR129      0.0417
    109  CE2       17.9970   11.8170   -2.7000 C.ar  129  TYR129      0.0417
    110  CZ        18.0870   12.0200   -1.2910 C.ar  129  TYR129      0.1957
    111  OH        17.1990   11.3990   -0.4520 O.3   129  TYR129     -0.2866
    112  N         22.1710   10.7300   -3.6140 N.am  130  ARG130     -0.1966
    113  CA        22.0640    9.3520   -4.0770 C.3   130  ARG130      0.1729
    114  C         20.9840    8.5620   -3.3620 C.2   130  ARG130      0.2617
    115  O         20.9620    7.3190   -3.4680 O.2   130  ARG130     -0.2715
    116  CB        23.4010    8.6160   -3.8960 C.3   130  ARG130      0.0348
    117  CG        24.5700    9.2310   -4.6770 C.3   130  ARG130      0.0492
    118  CD        25.9090    8.7270   -4.1350 C.3   130  ARG130      0.2205
    119  NE        26.9880    9.2480   -4.9580 N.pl3 130  ARG130     -0.0865
    120  CZ        28.2800    9.0280   -4.7140 C.cat 130  ARG130      0.5346
    121  NH1       28.6360    8.2940   -3.6580 N.pl3 130  ARG130      0.1354
    122  NH2       29.1970    9.5690   -5.5300 N.pl3 130  ARG130      0.1354
    123  N         20.1310    9.2660   -2.6010 N.am  131  GLY131     -0.1941
    124  CA        19.1710    8.6800   -1.6570 C.3   131  GLY131      0.1998
    125  C         19.4270    8.9090   -0.1580 C.2   131  GLY131      0.2481
    126  O         20.3630    9.6430    0.2510 O.2   131  GLY131     -0.2729
    127  N         18.5930    8.2990    0.6820 N.am  132  PRO132     -0.2715
    128  CA        18.7070    8.4370    2.1140 C.3   132  PRO132      0.1536
    129  C         20.1080    8.0020    2.5710 C.2   132  PRO132      0.2598
    130  O         20.5660    6.9310    2.1800 O.2   132  PRO132     -0.2715
    131  CB        17.6350    7.4740    2.6530 C.3   132  PRO132      0.0310
    132  CG        16.6780    7.3040    1.5650 C.3   132  PRO132      0.0237
    133  CD        17.4390    7.4560    0.2920 C.3   132  PRO132      0.0939
    134  N         20.7520    8.7930    3.3890 N.am  133  CYS133     -0.1968
    135  CA        22.1790    8.5210    3.7630 C.3   133  CYS133      0.1712
    136  C         22.4090    7.1640    4.4120 C.2   133  CYS133      0.2296
    137  O         23.4760    6.5290    4.2070 O.2   133  CYS133     -0.2864
    138  CB        22.7200    9.5900    4.7050 C.3   133  CYS133      0.0983
    139  SG        22.1090   11.2510    4.3470 S.3   133  CYS133     -0.0798
    140  N         20.9850    4.4460    3.7740 N.3   135  GLN135     -0.1231
    141  CA        21.0710    3.3360    2.7940 C.3   135  GLN135      0.1698
    142  C         22.5550    2.8910    2.5830 C.2   135  GLN135      0.2592
    143  O         22.8180    1.7640    2.2260 O.2   135  GLN135     -0.2718
    144  CB        20.4280    3.6870    1.4620 C.3   135  GLN135      0.0381
    145  CG        18.9170    3.8470    1.5050 C.3   135  GLN135      0.0905
    146  CD        18.3020    3.9620    0.1020 C.2   135  GLN135      0.2608
    147  OE1       19.0260    4.1360   -0.9250 O.2   135  GLN135     -0.2717
    148  NE2       16.9440    3.8890    0.0460 N.am  135  GLN135     -0.0878
    149  N         23.5340    3.7490    2.8470 N.am  136  CYS136     -0.1956
    150  CA        24.9070    3.4670    2.4020 C.3   136  CYS136      0.1843
    151  C         25.9240    3.7030    3.5310 C.2   136  CYS136      0.2625
    152  O         27.0660    3.1930    3.5020 O.2   136  CYS136     -0.2714
    153  CB        25.2550    4.3910    1.2340 C.3   136  CYS136      0.0997
    154  SG        24.3580    3.9480   -0.2920 S.3   136  CYS136     -0.0797
    155  N         25.5120    4.5270    4.5140 N.am  137  HIS137     -0.1973
    156  CA        26.3980    4.9020    5.5950 C.3   137  HIS137      0.1656
    157  C         25.8010    4.5240    6.9250 C.2   137  HIS137      0.2291
    158  O         24.5970    4.7690    7.1790 O.2   137  HIS137     -0.2864
    159  CB        26.6300    6.4340    5.6490 C.3   137  HIS137      0.0771
    160  CG        27.2590    7.0240    4.4100 C.ar  137  HIS137      0.0820
    161  ND1       28.6210    6.9650    4.1710 N.ar  137  HIS137     -0.2267
    162  CD2       26.7060    7.7890    3.3740 C.ar  137  HIS137      0.1154
    163  CE1       28.8950    7.6560    3.0330 C.ar  137  HIS137      0.1986
    164  NE2       27.7230    8.1740    2.5670 N.ar  137  HIS137     -0.2212
    165  N         36.0650    5.2940   11.7570 N.3   144  HIS144     -0.1241
    166  CA        37.4260    5.6920   11.3360 C.3   144  HIS144      0.1621
    167  C         38.0730    6.7670   12.2760 C.2   144  HIS144      0.2264
    168  O         37.3740    7.5250   12.9770 O.2   144  HIS144     -0.2867
    169  CB        37.3420    6.2140    9.9070 C.3   144  HIS144      0.0745
    170  CG        36.6410    7.5450    9.8130 C.ar  144  HIS144      0.0817
    171  ND1       35.2920    7.6530    9.7970 N.ar  144  HIS144     -0.2268
    172  CD2       37.1430    8.8400    9.7790 C.ar  144  HIS144      0.1154
    173  CE1       34.9580    8.9430    9.7400 C.ar  144  HIS144      0.1986
    174  NE2       36.0910    9.6700    9.7300 N.ar  144  HIS144     -0.2212
@<TRIPOS>BOND
     1    19    18    2
     2    18    17    1
     3    16    17    1
     4    20    17    1
     5    20    21    1
     6    22    21    1
     7    21    23    1
     8   103   102    2
     9   122   120    1
    10   119   120    2
    11   119   118    1
    12   100   101    1
    13   120   121    1
    14   117   118    1
    15   117   116    1
    16   102   101    1
    17   102   112   am
    18    92    91    1
    19    92    93    2
    20   113   116    1
    21   113   112    1
    22   113   114    1
    23   101   104    1
    24   104   105    1
    25    13    12    2
    26    91    94    1
    27    91    90    1
    28    94    95    1
    29   107   105   ar
    30   107   109   ar
    31   115   114    2
    32   114   123   am
    33    86    85    2
    34   105   106   ar
    35     9     7   am
    36    12    11    1
    37   109   110   ar
    38   123   124    1
    39    95    96   ar
    40    95    97   ar
    41    90    85   am
    42    96    98   ar
    43    85    84    1
    44     8     7    2
    45    11    14    1
    46    11    10    1
    47     7     6    1
    48   124   125    1
    49   106   108   ar
    50    97    99   ar
    51    98    99   ar
    52   110   108   ar
    53   110   111    1
    54    14    15    1
    55   147   146    2
    56    84    87    1
    57    84    83    1
    58     6     5    1
    59    81    82    1
    60    81    80    1
    61     5     2    1
    62    80    79    1
    63    87    88    1
    64   154   153    1
    65   125   126    2
    66   125   127   am
    67    78    77    2
    68   148   146   am
    69   146   145    1
    70    83    77   am
    71    83    89    1
    72    88    89    1
    73   133   127    1
    74   133   132    1
    75    77    76    1
    76   127   128    1
    77     3     2    1
    78     3     4    2
    79     2     1    1
    80    79    76    1
    81   153   150    1
    82   144   145    1
    83   144   141    1
    84    76    75    1
    85   132   131    1
    86    28    25    1
    87   128   129    1
    88   128   131    1
    89   130   129    2
    90   143   142    2
    91   150   149    1
    92   150   151    1
    93    25    24    1
    94    25    26    1
    95   164   163   ar
    96   164   162   ar
    97   129   134   am
    98   142   141    1
    99   142   149   am
   100    75    69   am
   101   141   140    1
   102    73    71    1
   103   163   161   ar
   104    35    34    1
   105    35    29    1
   106    70    69    2
   107   162   160   ar
   108    69    68    1
   109   134   135    1
   110   152   151    2
   111   151   155   am
   112   135   136    1
   113   135   138    1
   114    26    29   am
   115    26    27    2
   116    34    33    1
   117    29    30    1
   118    71    68    1
   119    71    72    1
   120   161   160   ar
   121   137   136    2
   122   139   138    1
   123   160   159    1
   124    68    67    1
   125   155   156    1
   126    72    74    1
   127    33    30    1
   128    30    31    1
   129   156   159    1
   130   156   157    1
   131    67    61   am
   132    32    31    2
   133    50    48    1
   134    62    61    2
   135    31    36   am
   136    61    60    1
   137    51    49    1
   138   157   158    2
   139    48    49    1
   140    48    45    1
   141    63    60    1
   142    63    64    1
   143    36    37    1
   144    60    59    1
   145    64    65   ar
   146    64    66   ar
   147    39    38    2
   148    37    38    1
   149    37    40    1
   150    38    44   am
   151    45    44    1
   152    45    46    1
   153   174   173   ar
   154   174   172   ar
   155   173   171   ar
   156   172   170   ar
   157   171   170   ar
   158   170   169    1
   159   169   166    1
   160    55    54    2
   161    40    41    1
   162    46    47    2
   163    54    53    1
   164    41    42    1
   165   166   165    1
   166   166   167    1
   167    53    52    1
   168    53    56    1
   169    52    58    1
   170   167   168    2
   171    43    42    1
   172    56    57    1
   173    58    57    1
