@<TRIPOS>MOLECULE
tmp/4jj7A01.pdb
 85 81 0 0 0
SMALL
GASTEIGER

@<TRIPOS>ATOM
      1  N         57.2710   81.7640  127.8790 N.3   112  TYR112     -0.1241
      2  CA        57.2030   81.5880  126.4300 C.3   112  TYR112      0.1605
      3  C         58.5370   81.1800  125.8360 C.2   112  TYR112      0.2264
      4  O         58.5580   80.4520  124.8300 O.2   112  TYR112     -0.2867
      5  CB        56.7410   82.9120  125.7620 C.3   112  TYR112      0.0534
      6  CG        56.6670   82.8240  124.2550 C.ar  112  TYR112     -0.0201
      7  CD1       55.5300   82.3300  123.6570 C.ar  112  TYR112     -0.0009
      8  CD2       57.7370   83.2160  123.4400 C.ar  112  TYR112     -0.0009
      9  CE1       55.4440   82.2410  122.2980 C.ar  112  TYR112      0.0417
     10  CE2       57.6680   83.1300  122.0750 C.ar  112  TYR112      0.0417
     11  CZ        56.5080   82.6480  121.4930 C.ar  112  TYR112      0.1957
     12  OH        56.4370   82.5720  120.1190 O.3   112  TYR112     -0.2866
     13  N         58.8270   77.2990  126.4160 N.3   115  THR115     -0.1203
     14  CA        58.0030   76.4110  125.6430 C.3   115  THR115      0.1994
     15  C         58.2730   76.5490  124.1490 C.2   115  THR115      0.2618
     16  O         58.1820   75.5650  123.4110 O.2   115  THR115     -0.2717
     17  CB        56.4750   76.6770  125.9250 C.3   115  THR115      0.1784
     18  OG1       56.1730   78.0270  125.6420 O.3   115  THR115     -0.2211
     19  CG2       56.1520   76.4700  127.3920 C.3   115  THR115      0.0376
     20  N         58.6290   77.7570  123.7000 N.am  116  SER116     -0.1951
     21  CA        58.7850   77.9890  122.2710 C.3   116  SER116      0.1924
     22  C         59.9900   77.2720  121.6810 C.2   116  SER116      0.2314
     23  O         60.1310   77.2310  120.4580 O.2   116  SER116     -0.2863
     24  CB        58.7810   79.4720  121.9600 C.3   116  SER116      0.2116
     25  OG        59.9630   80.0320  122.3820 O.3   116  SER116     -0.2180
     26  N         58.4880   74.1200  119.5800 N.3   119  THR119     -0.1218
     27  CA        57.4950   74.1920  118.4930 C.3   119  THR119      0.1862
     28  C         57.8330   73.1900  117.4000 C.2   119  THR119      0.2287
     29  O         58.9380   72.6450  117.3460 O.2   119  THR119     -0.2866
     30  CB        57.4960   75.5620  117.8660 C.3   119  THR119      0.1770
     31  OG1       58.7960   75.7870  117.3170 O.3   119  THR119     -0.2211
     32  CG2       57.0660   76.6660  118.8680 C.3   119  THR119      0.0375
     33  N         52.4870   75.8570  116.8810 N.3   159  GLU159     -0.1245
     34  CA        52.2690   75.8160  118.3280 C.3   159  GLU159      0.1567
     35  C         51.2030   74.8400  118.7550 C.2   159  GLU159      0.2260
     36  O         50.7300   74.9190  119.8810 O.2   159  GLU159     -0.2867
     37  CB        52.0020   77.2150  118.8770 C.3   159  GLU159      0.0388
     38  CG        53.2440   78.0810  118.7990 C.3   159  GLU159      0.1160
     39  CD        52.9640   79.5100  119.1840 C.2   159  GLU159      0.3649
     40  OE1       52.4850   79.7850  120.3010 O.co2 159  GLU159     -0.2457
     41  OE2       53.1690   80.4060  118.3110 O.co2 159  GLU159     -0.2457
     42  N         50.5100   71.5470  122.6270 N.3   162  PHE162     -0.1241
     43  CA        51.1020   71.8830  123.9120 C.3   162  PHE162      0.1605
     44  C         50.0810   71.8050  125.0390 C.2   162  PHE162      0.2264
     45  O         48.9100   72.1240  124.8750 O.2   162  PHE162     -0.2867
     46  CB        51.6440   73.3140  123.9050 C.3   162  PHE162      0.0534
     47  CG        52.9840   73.4650  123.2630 C.ar  162  PHE162     -0.0203
     48  CD1       53.1140   73.5460  121.8790 C.ar  162  PHE162     -0.0042
     49  CD2       54.1360   73.5720  124.0210 C.ar  162  PHE162     -0.0042
     50  CE1       54.3430   73.7130  121.2760 C.ar  162  PHE162     -0.0003
     51  CE2       55.3900   73.7560  123.4200 C.ar  162  PHE162     -0.0003
     52  CZ        55.4820   73.8380  122.0520 C.ar  162  PHE162     -0.0000
     53  N         50.3210   73.3950  129.0270 N.3   164  LEU164     -0.1245
     54  CA        51.0730   74.1250  130.0350 C.3   164  LEU164      0.1561
     55  C         50.2670   74.1110  131.3220 C.2   164  LEU164      0.2260
     56  O         49.1850   74.6550  131.3920 O.2   164  LEU164     -0.2867
     57  CB        51.2990   75.5610  129.5550 C.3   164  LEU164      0.0270
     58  CG        51.9610   76.4900  130.5480 C.3   164  LEU164      0.0019
     59  CD1       53.3610   76.0310  130.9500 C.3   164  LEU164      0.0001
     60  CD2       51.9950   77.9350  129.9940 C.3   164  LEU164      0.0001
     61  N         46.6750   75.6800  130.4340 N.3   230  THR230     -0.1203
     62  CA        46.4020   76.2370  129.1290 C.3   230  THR230      0.1994
     63  C         46.8400   75.2210  128.0860 C.2   230  THR230      0.2618
     64  O         47.8140   74.4990  128.3080 O.2   230  THR230     -0.2717
     65  CB        47.2260   77.5230  128.9350 C.3   230  THR230      0.1784
     66  OG1       46.9450   78.5120  129.8890 O.3   230  THR230     -0.2211
     67  CG2       46.7010   78.0850  127.7410 C.3   230  THR230      0.0376
     68  N         46.1220   75.1210  126.9580 N.am  231  PHE231     -0.1961
     69  CA        46.4720   74.0710  126.0350 C.3   231  PHE231      0.1771
     70  C         46.1630   74.3720  124.5880 C.2   231  PHE231      0.2620
     71  O         45.1970   75.0690  124.2620 O.2   231  PHE231     -0.2715
     72  CB        45.8370   72.7380  126.4380 C.3   231  PHE231      0.0574
     73  CG        44.3400   72.6890  126.3890 C.ar  231  PHE231     -0.0200
     74  CD1       43.5410   73.1020  127.4820 C.ar  231  PHE231     -0.0042
     75  CD2       43.6860   72.1590  125.2640 C.ar  231  PHE231     -0.0042
     76  CE1       42.1670   72.9870  127.4340 C.ar  231  PHE231     -0.0003
     77  CE2       42.2970   72.0500  125.2410 C.ar  231  PHE231     -0.0003
     78  CZ        41.5380   72.4480  126.3210 C.ar  231  PHE231     -0.0000
     79  N         46.9660   73.7550  123.7130 N.am  232  THR232     -0.1951
     80  CA        46.6940   73.7110  122.2720 C.3   232  THR232      0.1897
     81  C         46.6030   72.2570  121.8180 C.2   232  THR232      0.2313
     82  O         46.7260   71.9710  120.6100 O.2   232  THR232     -0.2863
     83  CB        47.7400   74.4920  121.4750 C.3   232  THR232      0.1794
     84  OG1       49.0120   73.9070  121.7590 O.3   232  THR232     -0.2208
     85  CG2       47.7270   75.9670  121.8130 C.3   232  THR232      0.0378
@<TRIPOS>BOND
     1    33    34    1
     2    31    30    1
     3    29    28    2
     4    28    27    1
     5    30    27    1
     6    30    32    1
     7    41    39   ar
     8    34    35    1
     9    34    37    1
    10    27    26    1
    11    35    36    2
    12    38    37    1
    13    38    39    1
    14    39    40   ar
    15    12    11    1
    16    23    22    2
    17    82    81    2
    18    50    48   ar
    19    50    52   ar
    20    83    84    1
    21    83    85    1
    22    83    80    1
    23    11    10   ar
    24    11     9   ar
    25    22    21    1
    26    81    80    1
    27    48    47   ar
    28    24    21    1
    29    24    25    1
    30    52    51   ar
    31    10     8   ar
    32    21    20    1
    33    80    79    1
    34     9     7   ar
    35    42    43    1
    36    47    46    1
    37    47    49   ar
    38    16    15    2
    39    51    49   ar
    40     8     6   ar
    41     7     6   ar
    42    20    15   am
    43    79    70   am
    44    46    43    1
    45    43    44    1
    46    15    14    1
    47     6     5    1
    48    71    70    2
    49    70    69    1
    50     4     3    2
    51    45    44    2
    52    77    75   ar
    53    77    78   ar
    54    75    73   ar
    55    18    17    1
    56    14    17    1
    57    14    13    1
    58     5     2    1
    59     3     2    1
    60    17    19    1
    61    69    72    1
    62    69    68    1
    63    78    76   ar
    64    73    72    1
    65    73    74   ar
    66     2     1    1
    67    68    63   am
    68    76    74   ar
    69    67    65    1
    70    63    64    2
    71    63    62    1
    72    65    62    1
    73    65    66    1
    74    53    54    1
    75    62    61    1
    76    57    54    1
    77    57    58    1
    78    60    58    1
    79    54    55    1
    80    58    59    1
    81    55    56    2
