@<TRIPOS>MOLECULE
tmp/4jj7A00.pdb
 194 190 0 0 0
SMALL
GASTEIGER

@<TRIPOS>ATOM
      1  N         64.6570   83.2740  149.0480 N.3    36  ARG36      -0.1231
      2  CA        65.0770   82.1470  149.8770 C.3    36  ARG36       0.1694
      3  C         65.4870   80.9490  149.0550 C.2    36  ARG36       0.2592
      4  O         65.0080   80.7290  147.9410 O.2    36  ARG36      -0.2718
      5  CB        63.9610   81.7350  150.8390 C.3    36  ARG36       0.0321
      6  CG        63.7760   82.7740  151.9620 C.3    36  ARG36       0.0489
      7  CD        62.6200   82.3680  152.8260 C.3    36  ARG36       0.2205
      8  NE        62.3910   83.3500  153.8840 N.pl3  36  ARG36      -0.0865
      9  CZ        62.9350   83.3090  155.0940 C.cat  36  ARG36       0.5346
     10  NH1       62.6630   84.2490  155.9960 N.pl3  36  ARG36       0.1354
     11  NH2       63.7370   82.3130  155.4160 N.pl3  36  ARG36       0.1354
     12  N         66.3460   80.1190  149.6210 N.am   37  ASP37      -0.1960
     13  CA        66.5390   78.7860  149.0410 C.3    37  ASP37       0.1840
     14  C         65.2310   77.9950  149.1100 C.2    37  ASP37       0.2622
     15  O         64.4430   78.1090  150.0680 O.2    37  ASP37      -0.2715
     16  CB        67.6320   78.0270  149.7670 C.3    37  ASP37       0.1450
     17  CG        69.0120   78.6610  149.5880 C.2    37  ASP37       0.3671
     18  OD1       69.2050   79.5030  148.6820 O.co2  37  ASP37      -0.2456
     19  OD2       69.9080   78.2700  150.3680 O.co2  37  ASP37      -0.2456
     20  N         64.9780   77.1820  148.1030 N.am   38  ARG38      -0.1963
     21  CA        63.6850   76.5090  147.9860 C.3    38  ARG38       0.1729
     22  C         63.6800   75.1610  148.7100 C.2    38  ARG38       0.2616
     23  O         63.5360   74.0880  148.1250 O.2    38  ARG38      -0.2715
     24  CB        63.3050   76.3560  146.4890 C.3    38  ARG38       0.0348
     25  CG        63.0720   77.7370  145.8770 C.3    38  ARG38       0.0492
     26  CD        62.6020   77.6550  144.4050 C.3    38  ARG38       0.2205
     27  NE        61.3080   76.9990  144.2980 N.pl3  38  ARG38      -0.0865
     28  CZ        61.1190   75.6990  144.0540 C.cat  38  ARG38       0.5346
     29  NH1       62.1190   74.9130  143.6270 N.pl3  38  ARG38       0.1354
     30  NH2       59.9170   75.1830  144.2280 N.pl3  38  ARG38       0.1354
     31  N         63.8570   75.2420  150.0360 N.am   39  ASN39      -0.1972
     32  CA        63.9800   74.0370  150.8370 C.3    39  ASN39       0.1688
     33  C         62.7610   73.1410  150.6050 C.2    39  ASN39       0.2292
     34  O         61.6010   73.5970  150.5660 O.2    39  ASN39      -0.2864
     35  CB        64.0840   74.4140  152.3160 C.3    39  ASN39       0.1181
     36  CG        65.4080   75.0960  152.6750 C.2    39  ASN39       0.2629
     37  OD1       65.5030   75.7170  153.7770 O.2    39  ASN39      -0.2716
     38  ND2       66.4010   74.9530  151.8880 N.am   39  ASN39      -0.0877
     39  N         60.9250   76.3530  140.5210 N.3    94  SER94      -0.1202
     40  CA        61.7870   77.5260  140.8150 C.3    94  SER94       0.2020
     41  C         60.9600   78.6290  141.4640 C.2    94  SER94       0.2619
     42  O         59.7490   78.5030  141.6450 O.2    94  SER94      -0.2717
     43  CB        62.4010   78.0540  139.5230 C.3    94  SER94       0.2103
     44  OG        63.5450   78.8120  139.8490 O.3    94  SER94      -0.2182
     45  N         61.6280   79.7300  141.7850 N.am   95  HIS95      -0.1961
     46  CA        60.9210   80.9610  142.0500 C.3    95  HIS95       0.1787
     47  C         60.4450   81.5660  140.7290 C.2    95  HIS95       0.2620
     48  O         60.9920   81.2520  139.6390 O.2    95  HIS95      -0.2715
     49  CB        61.8380   81.9560  142.7480 C.3    95  HIS95       0.0785
     50  CG        62.1220   81.6060  144.1680 C.ar   95  HIS95       0.0821
     51  ND1       61.1320   81.5490  145.1200 N.ar   95  HIS95      -0.2267
     52  CD2       63.2830   81.3040  144.7850 C.ar   95  HIS95       0.1154
     53  CE1       61.6910   81.2540  146.2700 C.ar   95  HIS95       0.1986
     54  NE2       62.9920   81.1130  146.1060 N.ar   95  HIS95      -0.2212
     55  N         59.4580   82.4600  140.7710 N.am   96  GLY96      -0.1954
     56  CA        59.0580   83.1630  139.5690 C.3    96  GLY96       0.1869
     57  C         58.3200   84.4350  139.8850 C.2    96  GLY96       0.2309
     58  O         58.1860   84.8340  141.0550 O.2    96  GLY96      -0.2863
     59  N         56.0690   75.0670  138.4080 N.3   136  GLN136     -0.1245
     60  CA        55.8790   75.3440  139.8230 C.3   136  GLN136      0.1566
     61  C         56.7280   76.5580  140.1880 C.2   136  GLN136      0.2260
     62  O         57.9440   76.4380  140.2910 O.2   136  GLN136     -0.2867
     63  CB        56.2580   74.1040  140.6690 C.3   136  GLN136      0.0367
     64  CG        56.3720   74.3720  142.1440 C.3   136  GLN136      0.0905
     65  CD        55.1710   75.0980  142.7250 C.2   136  GLN136      0.2608
     66  OE1       54.0410   74.7070  142.4800 O.2   136  GLN136     -0.2717
     67  NE2       55.4140   76.1510  143.4870 N.am  136  GLN136     -0.0878
     68  N         55.8720   80.9710  141.8050 N.3   138  CYS138     -0.1235
     69  CA        54.9400   82.0860  141.8860 C.3   138  CYS138      0.1677
     70  C         54.8550   82.7820  140.5290 C.2   138  CYS138      0.2270
     71  O         55.7950   82.6880  139.7110 O.2   138  CYS138     -0.2867
     72  CB        55.4120   83.1400  142.8960 C.3   138  CYS138      0.0956
     73  SG        55.3680   82.6190  144.6210 S.3   138  CYS138     -0.0801
     74  N         53.8550   86.1880  140.6890 N.3   140  GLY140     -0.1210
     75  CA        53.6810   87.5310  141.2430 C.3   140  GLY140      0.1956
     76  C         53.6770   87.3990  142.7470 C.2   140  GLY140      0.2611
     77  O         53.9480   86.3150  143.2650 O.2   140  GLY140     -0.2717
     78  N         53.3800   88.4800  143.4510 N.am  141  ASP141     -0.1973
     79  CA        53.4780   88.5090  144.8910 C.3   141  ASP141      0.1709
     80  C         52.1320   88.6790  145.5700 C.2   141  ASP141      0.2293
     81  O         52.0930   88.8250  146.7860 O.2   141  ASP141     -0.2864
     82  CB        54.5090   89.5320  145.3530 C.3   141  ASP141      0.1436
     83  CG        54.0950   90.9390  145.1010 C.2   141  ASP141      0.3671
     84  OD1       52.9950   91.2260  144.6050 O.co2 141  ASP141     -0.2456
     85  OD2       54.9150   91.8080  145.4470 O.co2 141  ASP141     -0.2456
     86  N         48.5600   87.6280  147.2200 N.3   143  TYR143     -0.1241
     87  CA        47.8310   86.4740  147.7470 C.3   143  TYR143      0.1605
     88  C         46.5520   86.3250  146.9620 C.2   143  TYR143      0.2264
     89  O         45.8390   87.2890  146.7720 O.2   143  TYR143     -0.2867
     90  CB        47.5280   86.6540  149.2430 C.3   143  TYR143      0.0534
     91  CG        48.7420   86.9300  150.0590 C.ar  143  TYR143     -0.0201
     92  CD1       49.8080   86.0800  150.0720 C.ar  143  TYR143     -0.0009
     93  CD2       48.7900   88.0640  150.8750 C.ar  143  TYR143     -0.0009
     94  CE1       50.9340   86.3610  150.8310 C.ar  143  TYR143      0.0417
     95  CE2       49.9230   88.3580  151.6400 C.ar  143  TYR143      0.0417
     96  CZ        50.9940   87.4990  151.5890 C.ar  143  TYR143      0.1957
     97  OH        52.1350   87.7530  152.3100 O.3   143  TYR143     -0.2866
     98  N         50.8700   84.1080  144.1850 N.3   173  VAL173     -0.1231
     99  CA        51.8730   83.2090  144.7480 C.3   173  VAL173      0.1692
    100  C         51.4870   81.7550  144.5670 C.2   173  VAL173      0.2593
    101  O         50.3280   81.4110  144.3620 O.2   173  VAL173     -0.2718
    102  CB        52.1020   83.5450  146.2590 C.3   173  VAL173      0.0266
    103  CG1       52.5870   84.9910  146.4200 C.3   173  VAL173      0.0020
    104  CG2       50.8810   83.2240  147.0830 C.3   173  VAL173      0.0020
    105  N         52.4810   80.8810  144.7080 N.am  174  SER174     -0.1938
    106  CA        52.2030   79.4660  144.8810 C.3   174  SER174      0.2055
    107  C         53.0350   78.9510  146.0380 C.2   174  SER174      0.2643
    108  O         54.0970   79.5200  146.3580 O.2   174  SER174     -0.2714
    109  CB        52.4340   78.6520  143.6760 C.3   174  SER174      0.2130
    110  OG        53.6900   78.6840  143.3160 O.3   174  SER174     -0.2179
    111  N         52.5070   77.9220  146.6950 N.am  175  TYR175     -0.1959
    112  CA        53.0350   77.5030  147.9880 C.3   175  TYR175      0.1771
    113  C         53.9260   76.2890  147.9240 C.2   175  TYR175      0.2619
    114  O         53.6810   75.3420  147.1520 O.2   175  TYR175     -0.2715
    115  CB        51.8750   77.2580  148.9560 C.3   175  TYR175      0.0574
    116  CG        51.1710   78.5390  149.3330 C.ar  175  TYR175     -0.0198
    117  CD1       51.6590   79.3220  150.3780 C.ar  175  TYR175     -0.0009
    118  CD2       50.0350   78.9780  148.6630 C.ar  175  TYR175     -0.0009
    119  CE1       51.0390   80.4860  150.7340 C.ar  175  TYR175      0.0417
    120  CE2       49.3880   80.1460  149.0130 C.ar  175  TYR175      0.0417
    121  CZ        49.8950   80.9080  150.0650 C.ar  175  TYR175      0.1957
    122  OH        49.2380   82.0640  150.4170 O.3   175  TYR175     -0.2866
    123  N         54.9350   76.3070  148.7890 N.am  176  ARG176     -0.1963
    124  CA        55.8980   75.2350  148.9680 C.3   176  ARG176      0.1729
    125  C         55.9850   74.9550  150.4620 C.2   176  ARG176      0.2616
    126  O         56.4220   75.8140  151.2320 O.2   176  ARG176     -0.2715
    127  CB        57.2930   75.6190  148.4530 C.3   176  ARG176      0.0348
    128  CG        58.3260   74.5540  148.6770 C.3   176  ARG176      0.0492
    129  CD        59.6290   74.8090  147.9180 C.3   176  ARG176      0.2205
    130  NE        59.9590   76.2130  147.8940 N.pl3 176  ARG176     -0.0865
    131  CZ        60.2450   76.9310  148.9820 C.cat 176  ARG176      0.5346
    132  NH1       60.1940   78.2650  148.9060 N.pl3 176  ARG176      0.1354
    133  NH2       60.5920   76.3270  150.1350 N.pl3 176  ARG176      0.1354
    134  N         55.6210   73.7570  150.8910 N.am  177  ASN177     -0.1959
    135  CA        55.8420   73.3360  152.2690 C.3   177  ASN177      0.1804
    136  C         57.1930   72.6500  152.3090 C.2   177  ASN177      0.2463
    137  O         57.3790   71.6060  151.6780 O.2   177  ASN177     -0.2730
    138  CB        54.7210   72.3500  152.6370 C.3   177  ASN177      0.1195
    139  CG        54.8450   71.8240  154.0620 C.2   177  ASN177      0.2630
    140  OD1       55.9310   71.8120  154.6400 O.2   177  ASN177     -0.2716
    141  ND2       53.7570   71.3840  154.6270 N.am  177  ASN177     -0.0877
    142  N         58.1750   73.2170  153.0350 N.am  178  PRO178     -0.2727
    143  CA        59.5270   72.6290  153.0000 C.3   178  PRO178      0.1402
    144  C         59.5830   71.1750  153.4780 C.2   178  PRO178      0.2269
    145  O         60.5560   70.4890  153.2040 O.2   178  PRO178     -0.2865
    146  CB        60.3310   73.5320  153.9320 C.3   178  PRO178      0.0296
    147  CG        59.2490   74.1780  154.8380 C.3   178  PRO178      0.0237
    148  CD        58.1000   74.4090  153.8800 C.3   178  PRO178      0.0939
    149  N         55.4730   71.0610  147.1320 N.3   182  THR182     -0.1203
    150  CA        54.5720   72.1450  146.7770 C.3   182  THR182      0.1994
    151  C         53.1320   71.6790  146.7020 C.2   182  THR182      0.2617
    152  O         52.8440   70.5070  146.3830 O.2   182  THR182     -0.2717
    153  CB        55.0220   72.8510  145.4950 C.3   182  THR182      0.1784
    154  OG1       54.9350   71.9400  144.3910 O.3   182  THR182     -0.2211
    155  CG2       56.3680   73.4620  145.6650 C.3   182  THR182      0.0376
    156  N         52.2030   72.6170  146.9370 N.am  183  TRP183     -0.1975
    157  CA        50.7850   72.2630  146.8290 C.3   183  TRP183      0.1640
    158  C         50.5140   71.6630  145.4600 C.2   183  TRP183      0.2290
    159  O         49.8380   70.6450  145.3380 O.2   183  TRP183     -0.2864
    160  CB        49.8970   73.4580  147.0290 C.3   183  TRP183      0.0576
    161  CG        49.8870   74.0390  148.4100 C.ar  183  TRP183      0.0006
    162  CD1       50.6770   73.7210  149.4870 C.ar  183  TRP183      0.0946
    163  CD2       48.9920   75.0740  148.8580 C.ar  183  TRP183      0.0152
    164  NE1       50.3300   74.5130  150.5600 N.ar  183  TRP183     -0.2442
    165  CE2       49.2890   75.3330  150.2160 C.ar  183  TRP183      0.0810
    166  CE3       47.9750   75.8200  148.2270 C.ar  183  TRP183      0.0012
    167  CZ2       48.6160   76.3190  150.9470 C.ar  183  TRP183      0.0191
    168  CZ3       47.3020   76.7710  148.9570 C.ar  183  TRP183      0.0001
    169  CH2       47.6400   77.0190  150.3090 C.ar  183  TRP183      0.0015
    170  N         46.3380   78.9370  153.2920 N.3   218  ASP218     -0.1239
    171  CA        47.4250   79.5330  154.0710 C.3   218  ASP218      0.1674
    172  C         46.7380   80.3830  155.1130 C.2   218  ASP218      0.2266
    173  O         46.2010   81.4550  154.8310 O.2   218  ASP218     -0.2867
    174  CB        48.2750   80.3700  153.1140 C.3   218  ASP218      0.1410
    175  CG        49.1010   81.4310  153.7900 C.2   218  ASP218      0.3668
    176  OD1       49.2630   81.4550  155.0220 O.co2 218  ASP218     -0.2456
    177  OD2       49.5960   82.3110  153.0640 O.co2 218  ASP218     -0.2456
    178  N         48.0360   81.9140  157.6310 N.3   220  LYS220     -0.1231
    179  CA        48.7900   83.0760  158.0770 C.3   220  LYS220      0.1693
    180  C         48.3110   84.2950  157.3400 C.2   220  LYS220      0.2592
    181  O         47.9830   85.3110  157.9590 O.2   220  LYS220     -0.2718
    182  CB        50.2850   82.8560  157.8650 C.3   220  LYS220      0.0285
    183  CG        51.1170   84.0410  158.1160 C.3   220  LYS220      0.0035
    184  CD        51.1930   84.1560  159.6210 C.3   220  LYS220      0.0206
    185  CE        52.1320   85.2340  160.0710 C.3   220  LYS220      0.1093
    186  NZ        51.3580   86.4900  159.9660 N.3   220  LYS220     -0.1314
    187  N         48.2600   84.1830  156.0160 N.am  221  ASN221     -0.1974
    188  CA        47.8780   85.2850  155.1720 C.3   221  ASN221      0.1688
    189  C         46.4600   85.2320  154.6570 C.2   221  ASN221      0.2292
    190  O         46.0520   86.1160  153.8990 O.2   221  ASN221     -0.2864
    191  CB        48.8100   85.3870  153.9760 C.3   221  ASN221      0.1181
    192  CG        50.2300   85.5470  154.4170 C.2   221  ASN221      0.2629
    193  OD1       50.5650   86.5600  155.0170 O.2   221  ASN221     -0.2716
    194  ND2       51.0480   84.5520  154.2120 N.am  221  ASN221     -0.0877
@<TRIPOS>BOND
     1    59    60    1
     2    43    44    1
     3    43    40    1
     4    56    57    1
     5    56    55    1
     6    48    47    2
     7    71    70    2
     8    60    61    1
     9    60    63    1
    10    57    58    2
    11    61    62    2
    12    39    40    1
    13    70    69    1
    14    63    64    1
    15    74    75    1
    16    47    55   am
    17    47    46    1
    18    40    41    1
    19    75    76    1
    20    41    42    2
    21    41    45   am
    22    45    46    1
    23    68    69    1
    24    69    72    1
    25    46    49    1
    26    64    65    1
    27    66    65    2
    28    65    67   am
    29    76    77    2
    30    76    78   am
    31    49    50    1
    32    72    73    1
    33   110   109    1
    34    78    79    1
    35    29    28    1
    36   109   106    1
    37    28    30    1
    38    28    27    2
    39    50    52   ar
    40    50    51   ar
    41    98    99    1
    42    27    26    1
    43   101   100    2
    44   154   153    1
    45    26    25    1
    46   100   105   am
    47   100    99    1
    48    84    83   ar
    49   105   106    1
    50    99   102    1
    51    52    54   ar
    52   106   107    1
    53    79    82    1
    54    79    80    1
    55    83    82    1
    56    83    85   ar
    57    51    53   ar
    58   159   158    2
    59   158   157    1
    60   153   155    1
    61   153   150    1
    62    80    81    2
    63    25    24    1
    64   107   108    2
    65   107   111   am
    66    54    53   ar
    67   102   103    1
    68   102   104    1
    69   152   151    2
    70    24    21    1
    71   111   112    1
    72   151   150    1
    73   151   156   am
    74    89    88    2
    75   150   149    1
    76   157   156    1
    77   157   160    1
    78    88    87    1
    79   160   161    1
    80   114   113    2
    81    86    87    1
    82    87    90    1
    83   130   129    1
    84   130   131    2
    85   129   128    1
    86   113   112    1
    87   113   123   am
    88     4     3    2
    89    21    20    1
    90    21    22    1
    91   112   115    1
    92    20    14   am
    93    23    22    2
    94   166   163   ar
    95   166   168   ar
    96   161   163   ar
    97   161   162   ar
    98   127   128    1
    99   127   124    1
   100   118   120   ar
   101   118   116   ar
   102    18    17   ar
   103    22    31   am
   104   123   124    1
   105   163   165   ar
   106   132   131    1
   107   115   116    1
   108   168   169   ar
   109   124   125    1
   110   131   133    1
   111   120   121   ar
   112    13    14    1
   113    13    12    1
   114    13    16    1
   115     1     2    1
   116     3    12   am
   117     3     2    1
   118    14    15    2
   119    90    91    1
   120   116   117   ar
   121   162   164   ar
   122    17    16    1
   123    17    19   ar
   124     2     5    1
   125    31    32    1
   126    91    92   ar
   127    91    93   ar
   128   121   122    1
   129   121   119   ar
   130    92    94   ar
   131   165   164   ar
   132   165   167   ar
   133   169   167   ar
   134   117   119   ar
   135   125   134   am
   136   125   126    2
   137    34    33    2
   138    33    32    1
   139    94    96   ar
   140    32    35    1
   141     5     6    1
   142    93    95   ar
   143   134   135    1
   144    96    95   ar
   145    96    97    1
   146   137   136    2
   147    38    36   am
   148     6     7    1
   149   135   136    1
   150   135   138    1
   151   136   142   am
   152    35    36    1
   153   138   139    1
   154    36    37    2
   155     7     8    1
   156   143   142    1
   157   143   144    1
   158   143   146    1
   159   142   148    1
   160   177   175   ar
   161   174   175    1
   162   174   171    1
   163   145   144    2
   164   170   171    1
   165   175   176   ar
   166   148   147    1
   167     8     9    2
   168   190   189    2
   169   146   147    1
   170   191   192    1
   171   191   188    1
   172   139   141   am
   173   139   140    2
   174   171   172    1
   175   194   192   am
   176   192   193    2
   177   189   188    1
   178   173   172    2
   179     9    11    1
   180     9    10    1
   181   188   187    1
   182   187   180   am
   183   180   181    2
   184   180   179    1
   185   178   179    1
   186   182   179    1
   187   182   183    1
   188   183   184    1
   189   184   185    1
   190   186   185    1
