@<TRIPOS>MOLECULE
tmp/4jj8B00.pdb
 150 148 0 0 0
SMALL
GASTEIGER

@<TRIPOS>ATOM
      1  N         64.0000   -6.5060   16.8240 N.3    31  ARG31      -0.1231
      2  CA        64.3960   -5.1060   16.7680 C.3    31  ARG31       0.1694
      3  C         65.3870   -4.7680   17.8750 C.2    31  ARG31       0.2592
      4  O         65.0770   -3.9880   18.7740 O.2    31  ARG31      -0.2718
      5  CB        63.1660   -4.2010   16.8640 C.3    31  ARG31       0.0321
      6  CG        62.2160   -4.3140   15.6810 C.3    31  ARG31       0.0489
      7  CD        61.1220   -3.2640   15.7500 C.3    31  ARG31       0.2205
      8  NE        61.6670   -1.9120   15.8350 N.pl3  31  ARG31      -0.0865
      9  CZ        61.6480   -1.1730   16.9390 C.cat  31  ARG31       0.5346
     10  NH1       61.1110   -1.6580   18.0500 N.pl3  31  ARG31       0.1354
     11  NH2       62.1680    0.0460   16.9370 N.pl3  31  ARG31       0.1354
     12  N         66.5760   -5.3590   17.8030 N.am   32  ASN32      -0.1974
     13  CA        67.6060   -5.1300   18.8090 C.3    32  ASN32       0.1688
     14  C         67.9500   -3.6500   18.9390 C.2    32  ASN32       0.2292
     15  O         68.1550   -2.9590   17.9400 O.2    32  ASN32      -0.2864
     16  CB        68.8610   -5.9430   18.4830 C.3    32  ASN32       0.1181
     17  CG        68.6120   -7.4400   18.5230 C.2    32  ASN32       0.2629
     18  OD1       68.6630   -8.1190   17.4980 O.2    32  ASN32      -0.2716
     19  ND2       68.3430   -7.9620   19.7140 N.am   32  ASN32      -0.0877
     20  N         58.4630    0.1910   16.4900 N.3    87  SER87      -0.1202
     21  CA        58.2420   -1.0710   15.7940 C.3    87  SER87       0.2020
     22  C         58.7330   -1.0380   14.3530 C.2    87  SER87       0.2619
     23  O         59.3270   -0.0570   13.9070 O.2    87  SER87      -0.2717
     24  CB        56.7530   -1.4310   15.8210 C.3    87  SER87       0.2103
     25  OG        56.5200   -2.6900   15.2140 O.3    87  SER87      -0.2182
     26  N         58.4720   -2.1220   13.6310 N.am   88  HIS88      -0.1961
     27  CA        58.7000   -2.1560   12.1950 C.3    88  HIS88       0.1787
     28  C         57.5900   -1.3780   11.5120 C.2    88  HIS88       0.2620
     29  O         56.4910   -1.2520   12.0510 O.2    88  HIS88      -0.2715
     30  CB        58.7380   -3.5920   11.6710 C.3    88  HIS88       0.0785
     31  CG        60.0290   -4.3010   11.9340 C.ar   88  HIS88       0.0821
     32  ND1       61.2260   -3.8930   11.3870 N.ar   88  HIS88      -0.2267
     33  CD2       60.3090   -5.4000   12.6750 C.ar   88  HIS88       0.1154
     34  CE1       62.1890   -4.7050   11.7850 C.ar   88  HIS88       0.1986
     35  NE2       61.6590   -5.6280   12.5670 N.ar   88  HIS88      -0.2212
     36  N         57.8720   -0.8500   10.3300 N.am   89  GLY89      -0.1954
     37  CA        56.8760   -0.0650    9.6340 C.3    89  GLY89       0.1869
     38  C         57.0580   -0.0180    8.1350 C.2    89  GLY89       0.2309
     39  O         58.1460   -0.2440    7.6070 O.2    89  GLY89      -0.2863
     40  N         58.7880    5.8460   15.6690 N.3   128  GLN128     -0.1245
     41  CA        60.0340    5.2620   15.1940 C.3   128  GLN128      0.1566
     42  C         59.7220    3.9870   14.4240 C.2   128  GLN128      0.2260
     43  O         59.4490    2.9350   15.0060 O.2   128  GLN128     -0.2867
     44  CB        60.9900    4.9790   16.3560 C.3   128  GLN128      0.0367
     45  CG        62.1080    3.9960   16.0260 C.3   128  GLN128      0.0905
     46  CD        63.0620    4.5210   14.9760 C.2   128  GLN128      0.2608
     47  OE1       63.4020    5.7030   14.9640 O.2   128  GLN128     -0.2717
     48  NE2       63.4960    3.6420   14.0800 N.am  128  GLN128     -0.0878
     49  N         59.9760    2.5280    9.8770 N.3   130  CYS130     -0.1235
     50  CA        60.2360    2.8770    8.4890 C.3   130  CYS130      0.1677
     51  C         58.9350    3.2730    7.8050 C.2   130  CYS130      0.2270
     52  O         57.8490    2.9050    8.2520 O.2   130  CYS130     -0.2867
     53  CB        60.9060    1.7180    7.7510 C.3   130  CYS130      0.0956
     54  SG        62.5370    1.2900    8.4070 S.3   130  CYS130     -0.0801
     55  N         63.9460    4.6220    4.7560 N.3   159  TYR159     -0.1227
     56  CA        64.2080    3.7610    5.9010 C.3   159  TYR159      0.1736
     57  C         64.4230    4.5660    7.1720 C.2   159  TYR159      0.2596
     58  O         64.7000    5.7650    7.1270 O.2   159  TYR159     -0.2718
     59  CB        65.4390    2.8810    5.6540 C.3   159  TYR159      0.0548
     60  CG        65.2290    1.6970    4.7350 C.ar  159  TYR159     -0.0200
     61  CD1       64.0380    0.9820    4.7450 C.ar  159  TYR159     -0.0009
     62  CD2       66.2340    1.2810    3.8740 C.ar  159  TYR159     -0.0009
     63  CE1       63.8540   -0.1110    3.9150 C.ar  159  TYR159      0.0417
     64  CE2       66.0580    0.1930    3.0410 C.ar  159  TYR159      0.0417
     65  CZ        64.8670   -0.4970    3.0620 C.ar  159  TYR159      0.1957
     66  OH        64.6910   -1.5800    2.2310 O.3   159  TYR159     -0.2866
     67  N         64.2900    3.8900    8.3060 N.am  160  SER160     -0.1938
     68  CA        64.6340    4.4670    9.5950 C.3   160  SER160      0.2055
     69  C         65.6780    3.5800   10.2540 C.2   160  SER160      0.2643
     70  O         65.4260    2.4060   10.5180 O.2   160  SER160     -0.2714
     71  CB        63.4000    4.6080   10.4850 C.3   160  SER160      0.2130
     72  OG        63.7270    5.2740   11.6910 O.3   160  SER160     -0.2179
     73  N         66.8480    4.1470   10.5200 N.am  161  TRP161     -0.1959
     74  CA        67.9780    3.3640   11.0010 C.3   161  TRP161      0.1771
     75  C         67.9250    3.1200   12.5020 C.2   161  TRP161      0.2620
     76  O         67.4330    3.9500   13.2670 O.2   161  TRP161     -0.2715
     77  CB        69.2880    4.0530   10.6220 C.3   161  TRP161      0.0590
     78  CG        69.4450    4.1930    9.1450 C.ar  161  TRP161      0.0006
     79  CD1       69.1640    5.2930    8.3890 C.ar  161  TRP161      0.0946
     80  CD2       69.9000    3.1860    8.2360 C.ar  161  TRP161      0.0152
     81  NE1       69.4260    5.0350    7.0650 N.ar  161  TRP161     -0.2442
     82  CE2       69.8790    3.7480    6.9450 C.ar  161  TRP161      0.0810
     83  CE3       70.3290    1.8650    8.3910 C.ar  161  TRP161      0.0012
     84  CZ2       70.2710    3.0330    5.8150 C.ar  161  TRP161      0.0191
     85  CZ3       70.7180    1.1590    7.2700 C.ar  161  TRP161      0.0001
     86  CH2       70.6860    1.7440    5.9980 C.ar  161  TRP161      0.0015
     87  N         68.4410    1.9650   12.9080 N.am  162  ARG162     -0.1963
     88  CA        68.4370    1.5530   14.3040 C.3   162  ARG162      0.1729
     89  C         69.7200    0.8090   14.6560 C.2   162  ARG162      0.2617
     90  O         70.0360   -0.2200   14.0590 O.2   162  ARG162     -0.2715
     91  CB        67.2180    0.6730   14.5910 C.3   162  ARG162      0.0348
     92  CG        67.2690   -0.0570   15.9220 C.3   162  ARG162      0.0492
     93  CD        65.9990   -0.8630   16.1450 C.3   162  ARG162      0.2205
     94  NE        65.6420   -1.6430   14.9630 N.pl3 162  ARG162     -0.0865
     95  CZ        66.2050   -2.8000   14.6290 C.cat 162  ARG162      0.5346
     96  NH1       67.1590   -3.3220   15.3890 N.pl3 162  ARG162      0.1354
     97  NH2       65.8140   -3.4360   13.5330 N.pl3 162  ARG162      0.1354
     98  N         70.4610    1.3420   15.6210 N.am  163  SER163     -0.1936
     99  CA        71.6930    0.7110   16.0750 C.3   163  SER163      0.2040
    100  C         71.4110   -0.2670   17.2120 C.2   163  SER163      0.2485
    101  O         70.8970    0.1240   18.2580 O.2   163  SER163     -0.2729
    102  CB        72.7030    1.7710   16.5210 C.3   163  SER163      0.2129
    103  OG        73.7410    1.2000   17.2950 O.3   163  SER163     -0.2179
    104  N         71.7380   -1.5510   17.0010 N.am  164  PRO164     -0.2726
    105  CA        71.4680   -2.6270   17.9640 C.3   164  PRO164      0.1402
    106  C         72.0860   -2.3720   19.3350 C.2   164  PRO164      0.2269
    107  O         71.5220   -2.7770   20.3520 O.2   164  PRO164     -0.2865
    108  CB        72.1090   -3.8520   17.3050 C.3   164  PRO164      0.0296
    109  CG        72.1070   -3.5390   15.8550 C.3   164  PRO164      0.0237
    110  CD        72.3530   -2.0640   15.7650 C.3   164  PRO164      0.0939
    111  N         75.5380    5.9470    8.4910 N.3   204  SER204     -0.1202
    112  CA        75.5450    4.4960    8.6350 C.3   204  SER204      0.2020
    113  C         76.8460    3.8750    8.1330 C.2   204  SER204      0.2619
    114  O         77.4390    4.3460    7.1650 O.2   204  SER204     -0.2717
    115  CB        74.3560    3.8890    7.8870 C.3   204  SER204      0.2103
    116  OG        74.2180    2.5090    8.1770 O.3   204  SER204     -0.2182
    117  N         77.2880    2.8200    8.8120 N.am  205  GLN205     -0.1965
    118  CA        78.4530    2.0560    8.3780 C.3   205  GLN205      0.1733
    119  C         78.1040    0.5760    8.2450 C.2   205  GLN205      0.2617
    120  O         77.6330   -0.0460    9.1970 O.2   205  GLN205     -0.2715
    121  CB        79.6120    2.2410    9.3580 C.3   205  GLN205      0.0408
    122  CG        79.8700    3.6400    9.8040 C.3   205  GLN205      0.0908
    123  CD        80.8540    4.3340    8.9340 C.2   205  GLN205      0.2608
    124  OE1       81.5410    3.7410    8.0960 O.2   205  GLN205     -0.2717
    125  NE2       81.0550    5.6170    9.1310 N.am  205  GLN205     -0.0878
    126  N         78.3530    0.0120    7.0670 N.am  206  SER206     -0.1950
    127  CA        78.0600   -1.3950    6.8160 C.3   206  SER206      0.1924
    128  C         78.9420   -1.9440    5.7040 C.2   206  SER206      0.2314
    129  O         79.3480   -1.2110    4.8020 O.2   206  SER206     -0.2863
    130  CB        76.5830   -1.5850    6.4640 C.3   206  SER206      0.2116
    131  OG        75.7610   -1.3740    7.5990 O.3   206  SER206     -0.2180
    132  N         78.1550   -4.2740    3.4110 N.3   208  ASP208     -0.1239
    133  CA        77.4160   -4.2790    2.1570 C.3   208  ASP208      0.1674
    134  C         77.3520   -2.8510    1.6400 C.2   208  ASP208      0.2266
    135  O         76.8010   -1.9720    2.3030 O.2   208  ASP208     -0.2867
    136  CB        76.0110   -4.8570    2.3400 C.3   208  ASP208      0.1410
    137  CG        75.9750   -6.3580    2.5800 C.2   208  ASP208      0.3668
    138  OD1       77.0220   -7.0270    2.4170 O.co2 208  ASP208     -0.2456
    139  OD2       74.9170   -6.8690    2.9400 O.co2 208  ASP208     -0.2456
    140  N         74.3230   -0.4460    1.7500 N.3   211  PHE211     -0.1241
    141  CA        73.9150    0.2680    2.9560 C.3   211  PHE211      0.1605
    142  C         75.0450    1.0430    3.6350 C.2   211  PHE211      0.2264
    143  O         74.9510    1.3660    4.8210 O.2   211  PHE211     -0.2867
    144  CB        73.3090   -0.7070    3.9680 C.3   211  PHE211      0.0534
    145  CG        72.1490   -1.5000    3.4380 C.ar  211  PHE211     -0.0203
    146  CD1       70.9560   -0.8730    3.1120 C.ar  211  PHE211     -0.0042
    147  CD2       72.2450   -2.8760    3.2840 C.ar  211  PHE211     -0.0042
    148  CE1       69.8830   -1.6000    2.6310 C.ar  211  PHE211     -0.0003
    149  CE2       71.1770   -3.6110    2.8030 C.ar  211  PHE211     -0.0003
    150  CZ        69.9930   -2.9720    2.4760 C.ar  211  PHE211     -0.0000
@<TRIPOS>BOND
     1   134   133    1
     2   134   135    2
     3   140   141    1
     4   133   136    1
     5   133   132    1
     6    66    65    1
     7   136   137    1
     8   138   137   ar
     9   150   148   ar
    10   150   149   ar
    11   137   139   ar
    12   148   146   ar
    13   149   147   ar
    14   141   142    1
    15   141   144    1
    16    64    65   ar
    17    64    62   ar
    18    65    63   ar
    19   146   145   ar
    20   147   145   ar
    21   145   144    1
    22   142   143    2
    23    62    60   ar
    24    63    61   ar
    25    60    61   ar
    26    60    59    1
    27    55    56    1
    28   129   128    2
    29    59    56    1
    30   128   127    1
    31    84    86   ar
    32    84    82   ar
    33    56    57    1
    34    86    85   ar
    35   130   127    1
    36   130   131    1
    37   127   126    1
    38    82    81   ar
    39    82    80   ar
    40    81    79   ar
    41   126   119   am
    42    58    57    2
    43   114   113    2
    44    57    67   am
    45    85    83   ar
    46    39    38    2
    47    53    54    1
    48    53    50    1
    49    51    52    2
    50    51    50    1
    51   115   116    1
    52   115   112    1
    53   124   123    2
    54   113   112    1
    55   113   117   am
    56    38    37    1
    57    80    83   ar
    58    80    78   ar
    59   119   118    1
    60   119   120    2
    61    67    68    1
    62   118   117    1
    63   118   121    1
    64    79    78   ar
    65    50    49    1
    66   111   112    1
    67   123   125   am
    68   123   122    1
    69    78    77    1
    70   121   122    1
    71    68    69    1
    72    68    71    1
    73    37    36    1
    74    69    70    2
    75    69    73   am
    76    36    28   am
    77    71    72    1
    78    73    74    1
    79    77    74    1
    80    74    75    1
    81    32    34   ar
    82    32    31   ar
    83    28    29    2
    84    28    27    1
    85    30    31    1
    86    30    27    1
    87    34    35   ar
    88    31    33   ar
    89    27    26    1
    90    75    87   am
    91    75    76    2
    92    35    33   ar
    93    87    88    1
    94    97    95    1
    95    26    22   am
    96    23    22    2
    97    90    89    2
    98    48    46   am
    99    88    91    1
   100    88    89    1
   101    22    21    1
   102    42    43    2
   103    42    41    1
   104    91    92    1
   105    95    94    2
   106    95    96    1
   107    89    98   am
   108    94    93    1
   109    47    46    2
   110    46    45    1
   111    41    40    1
   112    41    44    1
   113    25    24    1
   114    98    99    1
   115     6     7    1
   116     6     5    1
   117     7     8    1
   118   110   109    1
   119   110   104    1
   120    21    24    1
   121    21    20    1
   122     8     9    2
   123   109   108    1
   124    92    93    1
   125    45    44    1
   126    99   102    1
   127    99   100    1
   128   102   103    1
   129     2     1    1
   130     2     5    1
   131     2     3    1
   132    11     9    1
   133     9    10    1
   134   104   100   am
   135   104   105    1
   136   100   101    2
   137   108   105    1
   138    18    17    2
   139    12     3   am
   140    12    13    1
   141     3     4    2
   142    15    14    2
   143   105   106    1
   144    16    17    1
   145    16    13    1
   146    17    19   am
   147    13    14    1
   148   106   107    2
