@<TRIPOS>MOLECULE
tmp/4jjeA00.pdb
 208 209 0 0 0
SMALL
GASTEIGER

@<TRIPOS>ATOM
      1  N         31.9410    3.2370   71.6850 N.3    34  THR34      -0.1218
      2  CA        32.2300    4.0410   72.8750 C.3    34  THR34       0.1862
      3  C         31.4200    5.3300   72.9090 C.2    34  THR34       0.2287
      4  O         30.9900    5.8600   71.8710 O.2    34  THR34      -0.2866
      5  CB        33.7020    4.4100   72.9560 C.3    34  THR34       0.1770
      6  OG1       34.0740    5.0720   71.7440 O.3    34  THR34      -0.2211
      7  CG2       34.5420    3.1730   73.1650 C.3    34  THR34       0.0375
      8  N         30.6440    9.1040   73.0870 N.3    36  ARG36      -0.1245
      9  CA        31.3410   10.2000   72.4250 C.3    36  ARG36       0.1563
     10  C         31.4900   11.4380   73.3100 C.2    36  ARG36       0.2260
     11  O         30.8730   12.5070   73.0730 O.2    36  ARG36      -0.2867
     12  CB        30.6380   10.5080   71.1240 C.3    36  ARG36       0.0307
     13  CG        30.8100    9.3610   70.1020 C.3    36  ARG36       0.0489
     14  CD        30.0700    9.5780   68.7920 C.3    36  ARG36       0.2205
     15  NE        30.6700   10.7690   68.1230 N.pl3  36  ARG36      -0.0865
     16  CZ        30.1930   12.0090   68.2050 C.cat  36  ARG36       0.5346
     17  NH1       29.0030   12.2390   68.7610 N.pl3  36  ARG36       0.1354
     18  NH2       30.8960   13.0210   67.7060 N.pl3  36  ARG36       0.1354
     19  N         28.3330   11.7810   65.2290 N.3    92  SER92      -0.1202
     20  CA        28.3520   10.3640   65.5800 C.3    92  SER92       0.2020
     21  C         29.6600    9.7060   65.1920 C.2    92  SER92       0.2619
     22  O         30.5790   10.3200   64.6710 O.2    92  SER92      -0.2717
     23  CB        27.1840    9.6450   64.8920 C.3    92  SER92       0.2103
     24  OG        26.9010    8.4280   65.6110 O.3    92  SER92      -0.2182
     25  N         29.7390    8.4110   65.4990 N.am   93  HIS93      -0.1961
     26  CA        30.7250    7.5620   64.8870 C.3    93  HIS93       0.1787
     27  C         30.3620    7.4060   63.4190 C.2    93  HIS93       0.2620
     28  O         29.1920    7.6160   63.0210 O.2    93  HIS93      -0.2715
     29  CB        30.7300    6.1660   65.5310 C.3    93  HIS93       0.0785
     30  CG        31.2000    6.1680   66.9510 C.ar   93  HIS93       0.0821
     31  ND1       32.4640    6.5940   67.3010 N.ar   93  HIS93      -0.2267
     32  CD2       30.5610    5.8750   68.1040 C.ar   93  HIS93       0.1154
     33  CE1       32.6000    6.5150   68.6170 C.ar   93  HIS93       0.1986
     34  NE2       31.4690    6.0600   69.1260 N.ar   93  HIS93      -0.2212
     35  N         31.3680    7.1370   62.5820 N.am   94  GLY94      -0.1954
     36  CA        31.1140    6.9800   61.1520 C.3    94  GLY94       0.1869
     37  C         32.2070    6.2410   60.4380 C.2    94  GLY94       0.2309
     38  O         33.2660    5.9390   61.0140 O.2    94  GLY94      -0.2863
     39  N         30.1440   15.5230   61.4500 N.3   133  GLN133     -0.1231
     40  CA        31.2860   15.2310   62.3550 C.3   133  GLN133      0.1698
     41  C         31.2510   13.7480   62.6260 C.2   133  GLN133      0.2592
     42  O         30.4280   13.2700   63.4190 O.2   133  GLN133     -0.2718
     43  CB        31.1500   16.0510   63.6620 C.3   133  GLN133      0.0381
     44  CG        32.0990   15.6080   64.8140 C.3   133  GLN133      0.0905
     45  CD        33.5570   15.5990   64.3500 C.2   133  GLN133      0.2608
     46  OE1       34.0400   16.5640   63.7460 O.2   133  GLN133     -0.2717
     47  NE2       34.2780   14.5390   64.7090 N.am  133  GLN133     -0.0878
     48  N         32.1420   13.0140   61.9590 N.am  134  ALA134     -0.1966
     49  CA        32.2430   11.5560   62.0590 C.3   134  ALA134      0.1728
     50  C         33.4860   11.1400   61.2810 C.2   134  ALA134      0.2616
     51  O         33.9240   11.8380   60.3750 O.2   134  ALA134     -0.2715
     52  CB        30.9940   10.8680   61.4480 C.3   134  ALA134      0.0334
     53  N         34.0470    9.9800   61.6100 N.am  135  CYS135     -0.1968
     54  CA        35.2010    9.5050   60.8640 C.3   135  CYS135      0.1712
     55  C         34.7950    9.0340   59.4850 C.2   135  CYS135      0.2296
     56  O         33.6300    8.7330   59.2210 O.2   135  CYS135     -0.2864
     57  CB        35.8730    8.3420   61.5790 C.3   135  CYS135      0.0983
     58  SG        36.6360    8.8000   63.1460 S.3   135  CYS135     -0.0798
     59  N         40.3990    9.4250   59.9800 N.3   166  TYR166     -0.1227
     60  CA        39.7610    9.6640   61.2670 C.3   166  TYR166      0.1736
     61  C         39.4000   11.1370   61.4560 C.2   166  TYR166      0.2596
     62  O         39.9330   12.0140   60.7600 O.2   166  TYR166     -0.2718
     63  CB        40.7420    9.2790   62.4010 C.3   166  TYR166      0.0548
     64  CG        41.0280    7.8080   62.6140 C.ar  166  TYR166     -0.0200
     65  CD1       40.0600    6.9380   63.0840 C.ar  166  TYR166     -0.0009
     66  CD2       42.2980    7.3340   62.3810 C.ar  166  TYR166     -0.0009
     67  CE1       40.3950    5.5670   63.3370 C.ar  166  TYR166      0.0417
     68  CE2       42.6390    5.9930   62.6180 C.ar  166  TYR166      0.0417
     69  CZ        41.6900    5.1510   63.0990 C.ar  166  TYR166      0.1957
     70  OH        42.0810    3.8140   63.3030 O.3   166  TYR166     -0.2866
     71  N         38.5130   11.3970   62.4070 N.am  167  SER167     -0.1938
     72  CA        38.1320   12.7320   62.7910 C.3   167  SER167      0.2055
     73  C         38.2220   12.8000   64.3120 C.2   167  SER167      0.2643
     74  O         37.7120   11.9150   65.0030 O.2   167  SER167     -0.2714
     75  CB        36.6980   12.9550   62.3510 C.3   167  SER167      0.2130
     76  OG        36.3550   14.3070   62.6210 O.3   167  SER167     -0.2179
     77  N         38.8090   13.8740   64.8360 N.am  168  TRP168     -0.1959
     78  CA        39.1910   13.9550   66.2440 C.3   168  TRP168      0.1771
     79  C         38.2350   14.7630   67.1000 C.2   168  TRP168      0.2620
     80  O         37.6450   15.7300   66.6310 O.2   168  TRP168     -0.2715
     81  CB        40.5620   14.6100   66.2870 C.3   168  TRP168      0.0590
     82  CG        41.6600   13.6900   65.7630 C.ar  168  TRP168      0.0006
     83  CD1       42.1460   13.6160   64.5150 C.ar  168  TRP168      0.0946
     84  CD2       42.3920   12.7310   66.5710 C.ar  168  TRP168      0.0152
     85  NE1       43.1570   12.6220   64.4820 N.ar  168  TRP168     -0.2442
     86  CE2       43.3090   12.0950   65.7310 C.ar  168  TRP168      0.0810
     87  CE3       42.3300   12.3640   67.9220 C.ar  168  TRP168      0.0012
     88  CZ2       44.1920   11.0920   66.2100 C.ar  168  TRP168      0.0191
     89  CZ3       43.2150   11.3840   68.3930 C.ar  168  TRP168      0.0001
     90  CH2       44.1140   10.7630   67.5310 C.ar  168  TRP168      0.0015
     91  N         38.1260   14.4060   68.3840 N.am  169  ARG169     -0.1963
     92  CA        37.1290   14.9900   69.2740 C.3   169  ARG169      0.1729
     93  C         37.7790   15.1140   70.6220 C.2   169  ARG169      0.2616
     94  O         38.4290   14.1700   71.0800 O.2   169  ARG169     -0.2715
     95  CB        35.9290   14.0430   69.3410 C.3   169  ARG169      0.0348
     96  CG        34.9290   14.3850   70.4390 C.3   169  ARG169      0.0492
     97  CD        33.6660   13.5800   70.2590 C.3   169  ARG169      0.2205
     98  NE        33.9040   12.1780   69.8870 N.pl3 169  ARG169     -0.0865
     99  CZ        34.3620   11.2380   70.7100 C.cat 169  ARG169      0.5346
    100  NH1       34.6510   11.5290   71.9730 N.pl3 169  ARG169      0.1354
    101  NH2       34.5320    9.9910   70.2560 N.pl3 169  ARG169      0.1354
    102  N         37.5850   16.2490   71.2820 N.am  170  ASN170     -0.1958
    103  CA        38.1530   16.4780   72.5950 C.3   170  ASN170      0.1819
    104  C         37.0300   16.4360   73.6170 C.2   170  ASN170      0.2622
    105  O         35.9340   16.9520   73.3790 O.2   170  ASN170     -0.2715
    106  CB        38.8190   17.8470   72.5760 C.3   170  ASN170      0.1195
    107  CG        39.4350   18.1990   73.8770 C.2   170  ASN170      0.2630
    108  OD1       38.7570   18.6880   74.7750 O.2   170  ASN170     -0.2716
    109  ND2       40.7100   17.9220   74.0190 N.am  170  ASN170     -0.0877
    110  N         37.2740   15.7690   74.7470 N.am  171  SER171     -0.1936
    111  CA        36.2000   15.5530   75.7010 C.3   171  SER171      0.2055
    112  C         35.7000   16.8180   76.3790 C.2   171  SER171      0.2643
    113  O         34.5410   16.8610   76.8030 O.2   171  SER171     -0.2714
    114  CB        36.6170   14.5410   76.7810 C.3   171  SER171      0.2130
    115  OG        37.6800   15.0780   77.5300 O.3   171  SER171     -0.2179
    116  N         36.5390   17.8400   76.4820 N.am  172  LYS172     -0.1963
    117  CA        36.1500   19.0860   77.1270 C.3   172  LYS172      0.1728
    118  C         35.6100   20.1350   76.1730 C.2   172  LYS172      0.2616
    119  O         34.6290   20.8090   76.4790 O.2   172  LYS172     -0.2715
    120  CB        37.3420   19.6580   77.9130 C.3   172  LYS172      0.0311
    121  CG        37.8600   18.7590   79.0140 C.3   172  LYS172      0.0038
    122  CD        36.7770   18.4810   80.0360 C.3   172  LYS172      0.0206
    123  CE        37.3680   17.9200   81.3180 C.3   172  LYS172      0.1093
    124  NZ        38.2640   16.7730   81.0020 N.3   172  LYS172     -0.1314
    125  N         36.2480   20.2710   75.0100 N.am  173  ASP173     -0.1971
    126  CA        35.9710   21.3680   74.0920 C.3   173  ASP173      0.1709
    127  C         35.0970   20.9490   72.9170 C.2   173  ASP173      0.2293
    128  O         34.6100   21.8090   72.1920 O.2   173  ASP173     -0.2864
    129  CB        37.2950   21.9160   73.5250 C.3   173  ASP173      0.1436
    130  CG        38.2880   22.3030   74.6160 C.2   173  ASP173      0.3671
    131  OD1       37.8280   22.7500   75.6860 O.co2 173  ASP173     -0.2456
    132  OD2       39.5170   22.1430   74.3950 O.co2 173  ASP173     -0.2456
    133  N         37.1790   18.9770   67.0390 N.3   176  TRP176     -0.1241
    134  CA        37.9870   20.0580   66.4970 C.3   176  TRP176      0.1605
    135  C         37.2100   20.8130   65.4150 C.2   176  TRP176      0.2264
    136  O         37.2310   22.0510   65.3590 O.2   176  TRP176     -0.2867
    137  CB        39.2430   19.4990   65.8550 C.3   176  TRP176      0.0550
    138  CG        40.1550   18.7330   66.7900 C.ar  176  TRP176      0.0003
    139  CD1       40.0610   18.5880   68.1370 C.ar  176  TRP176      0.0946
    140  CD2       41.3520   18.0850   66.3800 C.ar  176  TRP176      0.0152
    141  NE1       41.1480   17.8570   68.6090 N.ar  176  TRP176     -0.2442
    142  CE2       41.9390   17.5310   67.5410 C.ar  176  TRP176      0.0810
    143  CE3       41.9750   17.9090   65.1400 C.ar  176  TRP176      0.0012
    144  CZ2       43.1730   16.8370   67.5010 C.ar  176  TRP176      0.0191
    145  CZ3       43.1950   17.1880   65.0810 C.ar  176  TRP176      0.0001
    146  CH2       43.7710   16.6630   66.2750 C.ar  176  TRP176      0.0015
    147  N         46.3250   19.4860   67.1700 N.3   210  GLU210     -0.1231
    148  CA        47.1780   18.3110   66.9570 C.3   210  GLU210      0.1699
    149  C         46.8830   17.3300   68.0720 C.2   210  GLU210      0.2593
    150  O         46.7500   17.7570   69.2420 O.2   210  GLU210     -0.2718
    151  CB        48.6560   18.7470   66.9760 C.3   210  GLU210      0.0402
    152  CG        49.5650   17.6020   66.6660 C.3   210  GLU210      0.1161
    153  CD        51.0350   18.0000   66.7030 C.2   210  GLU210      0.3649
    154  OE1       51.4300   18.9340   65.9520 O.co2 210  GLU210     -0.2457
    155  OE2       51.7870   17.4010   67.5150 O.co2 210  GLU210     -0.2457
    156  N         46.7490   16.0450   67.7440 N.am  211  SER211     -0.1938
    157  CA        46.3950   15.1230   68.8260 C.3   211  SER211      0.2055
    158  C         47.5240   14.8980   69.8290 C.2   211  SER211      0.2643
    159  O         48.7120   14.9790   69.4890 O.2   211  SER211     -0.2714
    160  CB        45.9420   13.7650   68.2830 C.3   211  SER211      0.2130
    161  OG        47.0750   13.0480   67.7200 O.3   211  SER211     -0.2179
    162  N         47.0990   14.5420   71.0190 N.am  212  PHE212     -0.1959
    163  CA        48.0230   14.1290   72.0870 C.3   212  PHE212      0.1771
    164  C         47.5490   12.7970   72.5830 C.2   212  PHE212      0.2620
    165  O         46.3890   12.6570   73.0220 O.2   212  PHE212     -0.2715
    166  CB        48.0380   15.1380   73.2520 C.3   212  PHE212      0.0574
    167  CG        48.9660   14.7400   74.3720 C.ar  212  PHE212     -0.0200
    168  CD1       50.3080   15.0370   74.2960 C.ar  212  PHE212     -0.0042
    169  CD2       48.4770   14.0020   75.4490 C.ar  212  PHE212     -0.0042
    170  CE1       51.1820   14.6480   75.3420 C.ar  212  PHE212     -0.0003
    171  CE2       49.3660   13.6220   76.4770 C.ar  212  PHE212     -0.0003
    172  CZ        50.7000   13.9350   76.3770 C.ar  212  PHE212     -0.0000
    173  N         48.3900   11.7690   72.4870 N.am  213  SER213     -0.1936
    174  CA        47.9690   10.4450   72.9270 C.3   213  SER213      0.2055
    175  C         49.0950    9.7260   73.6120 C.2   213  SER213      0.2643
    176  O         50.2380    9.7930   73.1620 O.2   213  SER213     -0.2714
    177  CB        47.5280    9.5980   71.7240 C.3   213  SER213      0.2130
    178  OG        47.1070    8.2840   72.1290 O.3   213  SER213     -0.2179
    179  N         48.7780    8.9680   74.6550 N.am  214  PHE214     -0.1959
    180  CA        49.8000    8.0920   75.2220 C.3   214  PHE214      0.1771
    181  C         50.1760    6.9170   74.3020 C.2   214  PHE214      0.2619
    182  O         51.2450    6.3020   74.4630 O.2   214  PHE214     -0.2715
    183  CB        49.2910    7.5420   76.5650 C.3   214  PHE214      0.0574
    184  CG        49.0650    8.6000   77.6200 C.ar  214  PHE214     -0.0200
    185  CD1       49.9370    9.6430   77.7810 C.ar  214  PHE214     -0.0042
    186  CD2       47.9330    8.5380   78.4310 C.ar  214  PHE214     -0.0042
    187  CE1       49.7250   10.6580   78.7360 C.ar  214  PHE214     -0.0003
    188  CE2       47.7100    9.5160   79.3980 C.ar  214  PHE214     -0.0003
    189  CZ        48.6020   10.5790   79.5470 C.ar  214  PHE214     -0.0000
    190  N         49.3230    6.6150   73.3230 N.am  215  ASP215     -0.1971
    191  CA        49.5970    5.5670   72.3420 C.3   215  ASP215      0.1709
    192  C         50.2390    6.2230   71.1430 C.2   215  ASP215      0.2293
    193  O         49.6240    7.1010   70.4900 O.2   215  ASP215     -0.2864
    194  CB        48.2610    4.9270   71.9580 C.3   215  ASP215      0.1436
    195  CG        48.3910    3.8130   70.9620 C.2   215  ASP215      0.3671
    196  OD1       49.4610    3.6430   70.3100 O.co2 215  ASP215     -0.2456
    197  OD2       47.3840    3.0720   70.8350 O.co2 215  ASP215     -0.2456
    198  N         48.5640    7.0100   67.7620 N.3   218  PHE218     -0.1241
    199  CA        47.5550    8.0570   67.6060 C.3   218  PHE218      0.1605
    200  C         48.0280    9.4220   68.0330 C.2   218  PHE218      0.2264
    201  O         47.2520   10.3570   68.0890 O.2   218  PHE218     -0.2867
    202  CB        46.3070    7.6860   68.4000 C.3   218  PHE218      0.0534
    203  CG        45.6630    6.4140   67.8780 C.ar  218  PHE218     -0.0203
    204  CD1       44.9510    6.4470   66.7100 C.ar  218  PHE218     -0.0042
    205  CD2       45.8790    5.1990   68.4970 C.ar  218  PHE218     -0.0042
    206  CE1       44.3790    5.3050   66.1790 C.ar  218  PHE218     -0.0003
    207  CE2       45.3240    4.0160   67.9360 C.ar  218  PHE218     -0.0003
    208  CZ        44.5730    4.0760   66.8210 C.ar  218  PHE218     -0.0000
@<TRIPOS>BOND
     1    56    55    2
     2    55    54    1
     3    59    60    1
     4    51    50    2
     5    37    38    2
     6    37    36    1
     7    62    61    2
     8    54    57    1
     9    54    53    1
    10    36    35    1
    11    60    61    1
    12    60    63    1
    13    50    53   am
    14    50    49    1
    15    52    49    1
    16    39    40    1
    17    61    71   am
    18    57    58    1
    19    48    49    1
    20    48    41   am
    21    75    76    1
    22    75    72    1
    23    40    41    1
    24    40    43    1
    25    66    64   ar
    26    66    68   ar
    27    63    64    1
    28    71    72    1
    29    35    27   am
    30    64    65   ar
    31    68    69   ar
    32    41    42    2
    33    72    73    1
    34    28    27    2
    35    65    67   ar
    36    69    70    1
    37    69    67   ar
    38    27    26    1
    39    43    44    1
    40    46    45    2
    41    73    77   am
    42    73    74    2
    43    45    47   am
    44    45    44    1
    45    85    83   ar
    46    85    86   ar
    47    83    82   ar
    48    22    21    2
    49    77    78    1
    50    26    25    1
    51    26    29    1
    52    23    20    1
    53    23    24    1
    54   145   143   ar
    55   145   146   ar
    56   143   140   ar
    57    21    25   am
    58    21    20    1
    59    19    20    1
    60   136   135    2
    61   135   134    1
    62    29    30    1
    63    86    88   ar
    64    86    84   ar
    65    82    81    1
    66    82    84   ar
    67   137   134    1
    68   137   138    1
    69   154   153   ar
    70   206   204   ar
    71   206   208   ar
    72    88    90   ar
    73    78    81    1
    74    78    79    1
    75   146   144   ar
    76   140   138   ar
    77   140   142   ar
    78   134   133    1
    79    84    87   ar
    80    80    79    2
    81   152   153    1
    82   152   151    1
    83   153   155   ar
    84   204   203   ar
    85   138   139   ar
    86   208   207   ar
    87    30    31   ar
    88    30    32   ar
    89   148   151    1
    90   148   147    1
    91   148   149    1
    92    79    91   am
    93    31    33   ar
    94   144   142   ar
    95    90    89   ar
    96   142   141   ar
    97   199   198    1
    98   199   200    1
    99   199   202    1
   100    18    16    1
   101   161   160    1
   102   156   149   am
   103   156   157    1
   104   203   202    1
   105   203   205   ar
   106    87    89   ar
   107   207   205   ar
   108   200   201    2
   109   149   150    2
   110    32    34   ar
   111    15    16    2
   112    15    14    1
   113   139   141   ar
   114    16    17    1
   115   160   157    1
   116    91    92    1
   117    33    34   ar
   118    14    13    1
   119   157   158    1
   120    92    95    1
   121    92    93    1
   122    95    96    1
   123   159   158    2
   124   158   162   am
   125    98    97    1
   126    98    99    2
   127    13    12    1
   128   101    99    1
   129    97    96    1
   130   196   195   ar
   131   193   192    2
   132    93    94    2
   133    93   102   am
   134    99   100    1
   135   197   195   ar
   136   195   194    1
   137   162   163    1
   138    12     9    1
   139   192   191    1
   140   102   103    1
   141     1     2    1
   142   177   178    1
   143   177   174    1
   144     6     5    1
   145     4     3    2
   146   194   191    1
   147   163   164    1
   148   163   166    1
   149   128   127    2
   150   191   190    1
   151     9     8    1
   152     9    10    1
   153   173   164   am
   154   173   174    1
   155   106   103    1
   156   106   107    1
   157   164   165    2
   158   103   104    1
   159     2     3    1
   160     2     5    1
   161   127   126    1
   162   174   175    1
   163     5     7    1
   164    11    10    2
   165   176   175    2
   166   166   167    1
   167   190   181   am
   168   105   104    2
   169   129   126    1
   170   129   130    1
   171   175   179   am
   172   104   110   am
   173   107   109   am
   174   107   108    2
   175   126   125    1
   176   168   167   ar
   177   168   170   ar
   178   181   182    2
   179   181   180    1
   180   167   169   ar
   181   132   130   ar
   182   130   131   ar
   183   179   180    1
   184   110   111    1
   185   125   118   am
   186   180   183    1
   187   170   172   ar
   188   169   171   ar
   189   111   112    1
   190   111   114    1
   191   118   119    2
   192   118   117    1
   193   172   171   ar
   194   112   116   am
   195   112   113    2
   196   116   117    1
   197   183   184    1
   198   114   115    1
   199   117   120    1
   200   184   185   ar
   201   184   186   ar
   202   185   187   ar
   203   120   121    1
   204   186   188   ar
   205   187   189   ar
   206   121   122    1
   207   188   189   ar
   208   122   123    1
   209   124   123    1
