@<TRIPOS>MOLECULE
tmp/4jjfA01.pdb
 86 83 0 0 0
SMALL
GASTEIGER

@<TRIPOS>ATOM
      1  N        -21.6060  -14.9800  -15.3920 N.3    13  THR13      -0.1203
      2  CA       -21.9140  -14.4830  -16.7310 C.3    13  THR13       0.1994
      3  C        -22.5240  -15.5540  -17.6400 C.2    13  THR13       0.2617
      4  O        -23.3320  -15.2240  -18.5460 O.2    13  THR13      -0.2717
      5  CB       -20.6760  -13.8320  -17.4350 C.3    13  THR13       0.1784
      6  OG1      -19.6670  -14.8330  -17.6650 O.3    13  THR13      -0.2211
      7  CG2      -20.1040  -12.6440  -16.5760 C.3    13  THR13       0.0376
      8  N        -22.1500  -16.8200  -17.4130 N.am   14  HIS14      -0.1975
      9  CA       -22.7670  -17.9190  -18.1480 C.3    14  HIS14       0.1656
     10  C        -24.2520  -17.9800  -17.8100 C.2    14  HIS14       0.2291
     11  O        -25.0820  -18.0060  -18.7250 O.2    14  HIS14      -0.2864
     12  CB       -22.1130  -19.2650  -17.8570 C.3    14  HIS14       0.0771
     13  CG       -20.6270  -19.2610  -18.0190 C.ar   14  HIS14       0.0820
     14  ND1      -19.8810  -20.4170  -18.0720 N.ar   14  HIS14      -0.2267
     15  CD2      -19.7500  -18.2350  -18.1510 C.ar   14  HIS14       0.1154
     16  CE1      -18.6100  -20.1010  -18.2310 C.ar   14  HIS14       0.1986
     17  NE2      -18.5020  -18.7840  -18.2610 N.ar   14  HIS14      -0.2212
     18  N         -6.5000  -18.2440  -18.3350 N.3   144  TRP144     -0.1241
     19  CA        -7.9280  -17.9690  -18.3780 C.3   144  TRP144      0.1605
     20  C         -8.1550  -16.7250  -17.4990 C.2   144  TRP144      0.2264
     21  O         -8.7350  -16.8080  -16.4010 O.2   144  TRP144     -0.2867
     22  CB        -8.6570  -19.1790  -17.7940 C.3   144  TRP144      0.0550
     23  CG       -10.1640  -19.1800  -17.9320 C.ar  144  TRP144      0.0003
     24  CD1      -11.1050  -18.7300  -16.9950 C.ar  144  TRP144      0.0946
     25  CD2      -10.9120  -19.6880  -19.0460 C.ar  144  TRP144      0.0152
     26  NE1      -12.3870  -18.9160  -17.4990 N.ar  144  TRP144     -0.2442
     27  CE2      -12.2980  -19.5000  -18.7470 C.ar  144  TRP144      0.0810
     28  CE3      -10.5510  -20.2940  -20.2600 C.ar  144  TRP144      0.0012
     29  CZ2      -13.3220  -19.8970  -19.6370 C.ar  144  TRP144      0.0191
     30  CZ3      -11.5760  -20.6810  -21.1520 C.ar  144  TRP144      0.0001
     31  CH2      -12.9460  -20.4920  -20.8200 C.ar  144  TRP144      0.0015
     32  N        -10.6430  -16.4840  -24.7300 N.3   172  CYS172     -0.1235
     33  CA       -11.3820  -15.4340  -25.4730 C.3   172  CYS172      0.1677
     34  C        -11.0920  -14.0120  -24.9920 C.2   172  CYS172      0.2270
     35  O        -11.4540  -13.0130  -25.6110 O.2   172  CYS172     -0.2867
     36  CB       -12.9010  -15.6430  -25.3910 C.3   172  CYS172      0.0956
     37  SG       -13.6230  -15.2490  -23.7740 S.3   172  CYS172     -0.0801
     38  N         -8.9630  -21.9310  -27.2390 N.3   203  HIS203     -0.1241
     39  CA       -10.0860  -21.0080  -27.1190 C.3   203  HIS203      0.1621
     40  C        -11.3310  -21.8390  -27.4780 C.2   203  HIS203      0.2264
     41  O        -11.3900  -22.4190  -28.5670 O.2   203  HIS203     -0.2867
     42  CB        -9.8570  -19.8720  -28.1270 C.3   203  HIS203      0.0745
     43  CG       -10.9350  -18.8360  -28.1390 C.ar  203  HIS203      0.0817
     44  ND1      -10.6930  -17.5020  -28.4280 N.ar  203  HIS203     -0.2268
     45  CD2      -12.2600  -18.9390  -27.9200 C.ar  203  HIS203      0.1154
     46  CE1      -11.8390  -16.8390  -28.3970 C.ar  203  HIS203      0.1986
     47  NE2      -12.8030  -17.6950  -28.1050 N.ar  203  HIS203     -0.2212
     48  N        -14.3730  -20.9560  -27.9900 N.3   205  GLY205     -0.1210
     49  CA       -15.2900  -20.2770  -28.9020 C.3   205  GLY205      0.1956
     50  C        -16.7750  -20.3600  -28.4830 C.2   205  GLY205      0.2612
     51  O        -17.6370  -20.2930  -29.3410 O.2   205  GLY205     -0.2717
     52  N        -17.0340  -20.4600  -27.1760 N.am  206  ALA206     -0.1965
     53  CA       -18.3190  -20.8040  -26.5610 C.3   206  ALA206      0.1728
     54  C        -17.9720  -21.0750  -25.1010 C.2   206  ALA206      0.2616
     55  O        -16.8140  -21.2260  -24.7890 O.2   206  ALA206     -0.2715
     56  CB       -18.9050  -22.1070  -27.2060 C.3   206  ALA206      0.0334
     57  N        -18.9350  -21.1910  -24.1910 N.am  207  VAL207     -0.1977
     58  CA       -18.5790  -21.7250  -22.8910 C.3   207  VAL207      0.1596
     59  C        -18.3060  -23.2270  -23.0390 C.2   207  VAL207      0.2287
     60  O        -19.0710  -23.9630  -23.7150 O.2   207  VAL207     -0.2864
     61  CB       -19.6300  -21.3870  -21.7970 C.3   207  VAL207      0.0276
     62  CG1      -19.7740  -19.8690  -21.7000 C.3   207  VAL207      0.0022
     63  CG2      -20.9790  -22.0890  -22.0820 C.3   207  VAL207      0.0022
     64  N        -20.2160  -26.7050  -25.3420 N.3   211  LYS211     -0.1245
     65  CA       -19.8190  -27.1040  -26.6980 C.3   211  LYS211      0.1561
     66  C        -18.4620  -27.7640  -26.6410 C.2   211  LYS211      0.2260
     67  O        -17.5630  -27.2540  -25.9700 O.2   211  LYS211     -0.2867
     68  CB       -19.7440  -25.8810  -27.6230 C.3   211  LYS211      0.0271
     69  CG       -21.0910  -25.4700  -28.1830 C.3   211  LYS211      0.0035
     70  CD       -20.9310  -24.6070  -29.4250 C.3   211  LYS211      0.0206
     71  CE       -22.2360  -23.9490  -29.7840 C.3   211  LYS211      0.1093
     72  NZ       -22.2080  -22.5120  -29.4260 N.3   211  LYS211     -0.1314
     73  N        -14.2260  -16.4820  -34.1040 N.3   252  CYS252     -0.1221
     74  CA       -14.7870  -16.7140  -32.7840 C.3   252  CYS252      0.1808
     75  C        -15.6080  -15.5430  -32.2250 C.2   252  CYS252      0.2601
     76  O        -16.4210  -15.7470  -31.3350 O.2   252  CYS252     -0.2717
     77  CB       -13.6830  -17.1040  -31.7650 C.3   252  CYS252      0.0970
     78  SG       -12.8640  -18.6880  -32.1700 S.3   252  CYS252     -0.0800
     79  N        -15.3920  -14.3250  -32.7280 N.am  253  ASP253     -0.1973
     80  CA       -16.0300  -13.1600  -32.1360 C.3   253  ASP253      0.1709
     81  C        -17.3270  -12.8590  -32.8450 C.2   253  ASP253      0.2293
     82  O        -17.7700  -13.6340  -33.6900 O.2   253  ASP253     -0.2864
     83  CB       -15.0770  -11.9690  -32.1080 C.3   253  ASP253      0.1436
     84  CG       -13.9620  -12.1460  -31.0590 C.2   253  ASP253      0.3671
     85  OD1      -14.1780  -12.8650  -30.0510 O.co2 253  ASP253     -0.2456
     86  OD2      -12.8550  -11.5980  -31.2490 O.co2 253  ASP253     -0.2456
@<TRIPOS>BOND
     1    73    74    1
     2    82    81    2
     3    81    80    1
     4    74    75    1
     5    74    77    1
     6    79    75   am
     7    79    80    1
     8    75    76    2
     9    78    77    1
    10    80    83    1
    11    83    84    1
    12    86    84   ar
    13    84    85   ar
    14    71    72    1
    15    71    70    1
    16    70    69    1
    17    51    50    2
    18    49    50    1
    19    49    48    1
    20    41    40    2
    21    50    52   am
    22    44    46   ar
    23    44    43   ar
    24    46    47   ar
    25    69    68    1
    26    43    42    1
    27    43    45   ar
    28    42    39    1
    29    47    45   ar
    30    68    65    1
    31    40    39    1
    32    38    39    1
    33    56    53    1
    34    52    53    1
    35    65    66    1
    36    65    64    1
    37    66    67    2
    38    53    54    1
    39    35    34    2
    40    33    36    1
    41    33    34    1
    42    33    32    1
    43    36    37    1
    44    54    55    2
    45    54    57   am
    46    57    58    1
    47    60    59    2
    48    59    58    1
    49    58    61    1
    50    63    61    1
    51    61    62    1
    52    30    31   ar
    53    30    28   ar
    54    31    29   ar
    55    28    25   ar
    56    29    27   ar
    57    25    27   ar
    58    25    23   ar
    59    27    26   ar
    60    11    10    2
    61     4     3    2
    62    19    18    1
    63    19    22    1
    64    19    20    1
    65    17    16   ar
    66    17    15   ar
    67    16    14   ar
    68    15    13   ar
    69     9    12    1
    70     9    10    1
    71     9     8    1
    72    14    13   ar
    73    13    12    1
    74    23    22    1
    75    23    24   ar
    76     6     5    1
    77     3     8   am
    78     3     2    1
    79    20    21    2
    80    26    24   ar
    81     5     2    1
    82     5     7    1
    83     2     1    1
