@<TRIPOS>MOLECULE
tmp/4jjgA00.pdb
 190 186 0 0 0
SMALL
GASTEIGER

@<TRIPOS>ATOM
      1  N        -16.9940  -14.8570  -34.5830 N.3     6  LEU6       -0.1231
      2  CA       -15.9570  -14.1050  -35.2800 C.3     6  LEU6        0.1693
      3  C        -14.6120  -14.8030  -35.0330 C.2     6  LEU6        0.2592
      4  O        -14.0050  -14.7070  -33.9400 O.2     6  LEU6       -0.2718
      5  CB       -15.9330  -12.6750  -34.7610 C.3     6  LEU6        0.0284
      6  CG       -16.7530  -11.5560  -35.4300 C.3     6  LEU6        0.0019
      7  CD1      -18.0110  -11.9880  -36.2450 C.3     6  LEU6        0.0001
      8  CD2      -17.0560  -10.4620  -34.4070 C.3     6  LEU6        0.0001
      9  N        -14.1890  -15.5420  -36.0600 N.am    7  GLY7       -0.1957
     10  CA       -12.9830  -16.3390  -36.0390 C.3     7  GLY7        0.1869
     11  C        -13.4280  -17.7980  -36.0220 C.2     7  GLY7        0.2309
     12  O        -14.0960  -18.2170  -35.0900 O.2     7  GLY7       -0.2863
     13  N        -11.1280  -20.2700  -36.1760 N.3     9  GLY9       -0.1210
     14  CA        -9.9980  -21.0030  -35.6170 C.3     9  GLY9        0.1956
     15  C         -9.3720  -21.9830  -36.5810 C.2     9  GLY9        0.2612
     16  O         -9.9780  -22.3470  -37.6100 O.2     9  GLY9       -0.2717
     17  N         -8.1440  -22.4020  -36.2620 N.am   10  CYS10      -0.1970
     18  CA        -7.4130  -23.3840  -37.0580 C.3    10  CYS10       0.1712
     19  C         -7.0040  -24.5270  -36.1640 C.2    10  CYS10       0.2296
     20  O         -6.7710  -24.3320  -34.9820 O.2    10  CYS10      -0.2864
     21  CB        -6.1640  -22.7770  -37.6560 C.3    10  CYS10       0.0983
     22  SG        -5.1530  -23.9890  -38.5320 S.3    10  CYS10      -0.0798
     23  N         -2.3640  -25.9760  -34.2020 N.3    13  THR13      -0.1203
     24  CA        -1.7990  -25.9840  -32.8490 C.3    13  THR13       0.1994
     25  C         -2.5000  -26.9890  -31.9270 C.2    13  THR13       0.2617
     26  O         -1.9220  -27.4130  -30.9160 O.2    13  THR13      -0.2717
     27  CB        -1.8410  -24.5800  -32.1940 C.3    13  THR13       0.1784
     28  OG1       -3.2150  -24.2220  -31.8840 O.3    13  THR13      -0.2211
     29  CG2       -1.1440  -23.5160  -33.1170 C.3    13  THR13       0.0376
     30  N         -3.7410  -27.3600  -32.2340 N.am   14  HIS14      -0.1975
     31  CA        -4.3340  -28.4800  -31.5100 C.3    14  HIS14       0.1656
     32  C         -3.5410  -29.7420  -31.8160 C.2    14  HIS14       0.2291
     33  O         -3.0830  -30.3960  -30.8840 O.2    14  HIS14      -0.2864
     34  CB        -5.8360  -28.6540  -31.8200 C.3    14  HIS14       0.0771
     35  CG        -6.6230  -27.3850  -31.6750 C.ar   14  HIS14       0.0820
     36  ND1       -7.9710  -27.3650  -31.3850 N.ar   14  HIS14      -0.2267
     37  CD2       -6.2390  -26.0890  -31.7720 C.ar   14  HIS14       0.1154
     38  CE1       -8.3830  -26.1110  -31.3140 C.ar   14  HIS14       0.1986
     39  NE2       -7.3480  -25.3190  -31.5450 N.ar   14  HIS14      -0.2212
     40  N        -12.7790  -25.7840  -32.0690 N.3    42  SER42      -0.1217
     41  CA       -12.8090  -24.3790  -31.7090 C.3    42  SER42       0.1889
     42  C        -14.2400  -23.8250  -31.7100 C.2    42  SER42       0.2288
     43  O        -15.1670  -24.3560  -31.0950 O.2    42  SER42      -0.2866
     44  CB       -11.9330  -23.5740  -32.6770 C.3    42  SER42       0.2089
     45  OG       -10.5950  -24.0250  -32.6420 O.3    42  SER42      -0.2183
     46  N        -17.9110  -15.5500  -39.3310 N.3    62  ALA62      -0.1231
     47  CA       -17.1620  -14.6090  -40.1670 C.3    62  ALA62       0.1694
     48  C        -15.6840  -14.8240  -39.9480 C.2    62  ALA62       0.2592
     49  O        -15.2110  -14.9880  -38.8020 O.2    62  ALA62      -0.2718
     50  CB       -17.5150  -13.2020  -39.8170 C.3    62  ALA62       0.0304
     51  N        -14.9480  -14.8500  -41.0490 N.am   63  ASP63      -0.1960
     52  CA       -13.5090  -15.0860  -41.0080 C.3    63  ASP63       0.1825
     53  C        -12.9550  -14.8390  -42.4100 C.2    63  ASP63       0.2464
     54  O        -13.5090  -15.3550  -43.3960 O.2    63  ASP63      -0.2730
     55  CB       -13.2310  -16.5080  -40.5510 C.3    63  ASP63       0.1450
     56  CG       -11.7770  -16.7280  -40.1130 C.2    63  ASP63       0.3671
     57  OD1      -10.8760  -16.2490  -40.8420 O.co2  63  ASP63      -0.2456
     58  OD2      -11.5470  -17.4030  -39.0600 O.co2  63  ASP63      -0.2456
     59  N        -11.9010  -14.0220  -42.5130 N.am   64  PRO64      -0.2715
     60  CA       -11.3600  -13.6550  -43.8320 C.3    64  PRO64       0.1536
     61  C        -10.8510  -14.8940  -44.5740 C.2    64  PRO64       0.2598
     62  O        -10.8860  -14.9300  -45.8110 O.2    64  PRO64      -0.2715
     63  CB       -10.2110  -12.6900  -43.4980 C.3    64  PRO64       0.0310
     64  CG       -10.4390  -12.2420  -42.0880 C.3    64  PRO64       0.0237
     65  CD       -11.1450  -13.3870  -41.4170 C.3    64  PRO64       0.0939
     66  N        -10.4250  -15.8990  -43.7980 N.am   65  VAL65      -0.1978
     67  CA        -9.9470  -17.1890  -44.2990 C.3    65  VAL65       0.1596
     68  C        -10.8800  -17.9190  -45.2690 C.2    65  VAL65       0.2287
     69  O        -10.3930  -18.5910  -46.1920 O.2    65  VAL65      -0.2864
     70  CB        -9.5390  -18.1360  -43.1540 C.3    65  VAL65       0.0276
     71  CG1      -10.7160  -18.9570  -42.6470 C.3    65  VAL65       0.0022
     72  CG2       -8.4340  -19.0420  -43.6080 C.3    65  VAL65       0.0022
     73  N         -3.2810  -18.5760  -40.0740 N.3   110  PRO110     -0.2103
     74  CA        -4.5900  -17.9870  -40.1960 C.3   110  PRO110      0.1489
     75  C         -4.5360  -16.4670  -40.2340 C.2   110  PRO110      0.2417
     76  O         -3.8570  -15.8710  -39.4010 O.2   110  PRO110     -0.2734
     77  CB        -5.3040  -18.4040  -38.9310 C.3   110  PRO110      0.0282
     78  CG        -4.5700  -19.4300  -38.3670 C.3   110  PRO110      0.0208
     79  CD        -3.1600  -19.3640  -38.8430 C.3   110  PRO110      0.0893
     80  N         -4.9130  -15.9660  -41.4040 N.am  111  PRO111     -0.2729
     81  CA        -6.2560  -15.5300  -41.7770 C.3   111  PRO111      0.1401
     82  C         -6.1850  -15.9990  -43.2460 C.2   111  PRO111      0.2269
     83  O         -7.1640  -15.9540  -43.9800 O.2   111  PRO111     -0.2865
     84  CB        -6.2420  -14.0070  -41.6450 C.3   111  PRO111      0.0296
     85  CG        -4.8380  -13.6100  -41.4210 C.3   111  PRO111      0.0237
     86  CD        -4.0620  -14.8300  -40.9930 C.3   111  PRO111      0.0939
     87  N         -6.3310  -22.0880  -42.8510 N.3   114  ALA114     -0.1245
     88  CA        -6.9300  -22.6960  -41.6610 C.3   114  ALA114      0.1562
     89  C         -7.3800  -24.1280  -42.0020 C.2   114  ALA114      0.2260
     90  O         -7.8460  -24.3930  -43.1270 O.2   114  ALA114     -0.2867
     91  CB        -8.0930  -21.8340  -41.1100 C.3   114  ALA114      0.0290
     92  N        -16.8870   -8.9220  -41.2810 N.3   131  ASP131     -0.1239
     93  CA       -17.2340   -8.9310  -39.8580 C.3   131  ASP131      0.1674
     94  C        -18.4090   -7.9710  -39.6140 C.2   131  ASP131      0.2266
     95  O        -19.3200   -8.2770  -38.8470 O.2   131  ASP131     -0.2867
     96  CB       -16.0320   -8.5650  -38.9830 C.3   131  ASP131      0.1410
     97  CG       -14.9310   -9.6500  -38.9670 C.2   131  ASP131      0.3668
     98  OD1      -15.2570  -10.8640  -39.0670 O.co2 131  ASP131     -0.2456
     99  OD2      -13.7330   -9.2860  -38.8130 O.co2 131  ASP131     -0.2456
    100  N        -12.8690  -14.7520  -31.4970 N.3   144  TRP144     -0.1227
    101  CA       -11.8560  -15.7940  -31.4090 C.3   144  TRP144      0.1737
    102  C        -10.7090  -15.3340  -32.2810 C.2   144  TRP144      0.2595
    103  O        -10.5080  -15.8420  -33.4060 O.2   144  TRP144     -0.2718
    104  CB       -12.4450  -17.0720  -31.9880 C.3   144  TRP144      0.0564
    105  CG       -11.6910  -18.3550  -31.7810 C.ar  144  TRP144      0.0003
    106  CD1      -10.8660  -18.9460  -32.6720 C.ar  144  TRP144      0.0946
    107  CD2      -11.7850  -19.2470  -30.6550 C.ar  144  TRP144      0.0152
    108  NE1      -10.3930  -20.1240  -32.1670 N.ar  144  TRP144     -0.2442
    109  CE2      -10.9350  -20.3430  -30.9320 C.ar  144  TRP144      0.0810
    110  CE3      -12.5230  -19.2330  -29.4490 C.ar  144  TRP144      0.0012
    111  CZ2      -10.7570  -21.4070  -30.0430 C.ar  144  TRP144      0.0191
    112  CZ3      -12.3660  -20.2980  -28.5480 C.ar  144  TRP144      0.0001
    113  CH2      -11.4670  -21.3720  -28.8500 C.ar  144  TRP144      0.0015
    114  N         -9.9760  -14.3460  -31.7890 N.am  145  PHE145     -0.1963
    115  CA        -9.0240  -13.6480  -32.5870 C.3   145  PHE145      0.1756
    116  C         -7.6190  -14.0460  -32.1460 C.2   145  PHE145      0.2461
    117  O         -7.4580  -14.4350  -30.9940 O.2   145  PHE145     -0.2730
    118  CB        -9.2570  -12.1560  -32.3860 C.3   145  PHE145      0.0574
    119  CG       -10.5430  -11.6450  -32.9920 C.ar  145  PHE145     -0.0200
    120  CD1      -11.1380  -10.4840  -32.5000 C.ar  145  PHE145     -0.0042
    121  CD2      -11.1310  -12.2880  -34.0880 C.ar  145  PHE145     -0.0042
    122  CE1      -12.3280   -9.9780  -33.0640 C.ar  145  PHE145     -0.0003
    123  CE2      -12.2950  -11.7840  -34.6750 C.ar  145  PHE145     -0.0003
    124  CZ       -12.8990  -10.6180  -34.1510 C.ar  145  PHE145     -0.0000
    125  N         -6.6130  -13.9350  -33.0370 N.am  146  PRO146     -0.2727
    126  CA        -5.2040  -14.2060  -32.6690 C.3   146  PRO146      0.1402
    127  C         -4.6490  -13.3150  -31.5280 C.2   146  PRO146      0.2269
    128  O         -5.1730  -12.2260  -31.2850 O.2   146  PRO146     -0.2865
    129  CB        -4.4210  -13.9450  -33.9800 C.3   146  PRO146      0.0296
    130  CG        -5.3110  -13.0770  -34.8170 C.3   146  PRO146      0.0237
    131  CD        -6.7330  -13.4420  -34.4260 C.3   146  PRO146      0.0939
    132  N         -8.6270   -5.4990  -35.7150 N.3   154  ILE154     -0.1245
    133  CA        -9.7780   -6.2990  -36.1300 C.3   154  ILE154      0.1561
    134  C        -11.1050   -5.6870  -35.6240 C.2   154  ILE154      0.2260
    135  O        -12.0880   -5.6040  -36.3650 O.2   154  ILE154     -0.2867
    136  CB        -9.6350   -7.7700  -35.6670 C.3   154  ILE154      0.0252
    137  CG1       -8.4490   -8.4280  -36.3920 C.3   154  ILE154      0.0019
    138  CG2      -10.9050   -8.5120  -35.9370 C.3   154  ILE154      0.0019
    139  CD1       -7.8670   -9.6560  -35.7760 C.3   154  ILE154      0.0001
    140  N        -12.7440   -2.0700  -36.7910 N.3   157  LYS157     -0.1245
    141  CA       -13.3740   -2.2670  -38.0940 C.3   157  LYS157      0.1561
    142  C        -14.8950   -2.4320  -37.9970 C.2   157  LYS157      0.2260
    143  O        -15.6180   -1.9910  -38.8810 O.2   157  LYS157     -0.2867
    144  CB       -12.7730   -3.4880  -38.7880 C.3   157  LYS157      0.0271
    145  CG       -11.9420   -3.1650  -40.0020 C.3   157  LYS157      0.0035
    146  CD       -10.4750   -2.9470  -39.6630 C.3   157  LYS157      0.0206
    147  CE        -9.5650   -3.4100  -40.8160 C.3   157  LYS157      0.1093
    148  NZ        -8.8580   -4.6920  -40.4600 N.3   157  LYS157     -0.1314
    149  N        -11.9730  -15.1720  -25.7190 N.3   171  ALA171     -0.1231
    150  CA       -11.5000  -16.4600  -25.2810 C.3   171  ALA171      0.1694
    151  C        -10.0020  -16.3290  -24.8770 C.2   171  ALA171      0.2592
    152  O         -9.5940  -15.3300  -24.2820 O.2   171  ALA171     -0.2718
    153  CB       -11.7380  -17.4870  -26.3800 C.3   171  ALA171      0.0304
    154  N         -9.1720  -17.2910  -25.2090 N.am  172  CYS172     -0.1956
    155  CA        -7.9420  -17.4090  -24.4740 C.3   172  CYS172      0.1843
    156  C         -6.8580  -16.4670  -25.0050 C.2   172  CYS172      0.2626
    157  O         -5.8510  -16.2150  -24.3540 O.2   172  CYS172     -0.2714
    158  CB        -7.4640  -18.8720  -24.4850 C.3   172  CYS172      0.0997
    159  SG        -6.4770  -19.2750  -25.9580 S.3   172  CYS172     -0.0797
    160  N         -7.0690  -15.9350  -26.1900 N.am  173  THR173     -0.1950
    161  CA        -6.0430  -15.1150  -26.7950 C.3   173  THR173      0.1897
    162  C         -5.9310  -13.6750  -26.2260 C.2   173  THR173      0.2313
    163  O         -5.0110  -12.9580  -26.5830 O.2   173  THR173     -0.2863
    164  CB        -6.2030  -15.1230  -28.3140 C.3   173  THR173      0.1794
    165  OG1       -7.5850  -15.0060  -28.6380 O.3   173  THR173     -0.2208
    166  CG2       -5.6600  -16.4270  -28.8880 C.3   173  THR173      0.0378
    167  N        -14.8060  -18.7270  -22.5450 N.3   203  HIS203     -0.1227
    168  CA       -13.4580  -19.2530  -22.6410 C.3   203  HIS203      0.1737
    169  C        -13.5800  -20.7550  -22.3260 C.2   203  HIS203      0.2438
    170  O        -14.1150  -21.1430  -21.2760 O.2   203  HIS203     -0.2733
    171  CB       -12.6410  -18.5030  -21.6030 C.3   203  HIS203      0.0758
    172  CG       -11.1660  -18.7720  -21.6100 C.ar  203  HIS203      0.0818
    173  ND1      -10.6150  -19.9850  -21.9570 N.ar  203  HIS203     -0.2268
    174  CD2      -10.1200  -17.9770  -21.2590 C.ar  203  HIS203      0.1154
    175  CE1       -9.2970  -19.9270  -21.8380 C.ar  203  HIS203      0.1986
    176  NE2       -8.9730  -18.7220  -21.4070 N.ar  203  HIS203     -0.2212
    177  N        -13.1120  -21.6020  -23.2280 N.am  204  PRO204     -0.2729
    178  CA       -13.2750  -23.0430  -23.0380 C.3   204  PRO204      0.1401
    179  C        -12.2920  -23.6300  -22.0340 C.2   204  PRO204      0.2269
    180  O        -12.5040  -24.7470  -21.5150 O.2   204  PRO204     -0.2865
    181  CB       -13.0470  -23.6330  -24.4540 C.3   204  PRO204      0.0296
    182  CG       -12.2280  -22.6210  -25.1680 C.3   204  PRO204      0.0237
    183  CD       -12.7100  -21.2600  -24.6000 C.3   204  PRO204      0.0939
    184  N         -9.0800  -26.8460  -25.5530 N.3   207  VAL207     -0.1245
    185  CA        -9.7350  -26.9050  -26.8550 C.3   207  VAL207      0.1561
    186  C        -11.1430  -27.4290  -26.6520 C.2   207  VAL207      0.2260
    187  O        -11.3440  -28.4870  -26.0210 O.2   207  VAL207     -0.2867
    188  CB        -8.9340  -27.6750  -27.9450 C.3   207  VAL207      0.0252
    189  CG1       -7.4870  -27.1740  -27.9870 C.3   207  VAL207      0.0019
    190  CG2       -8.9850  -29.2160  -27.7540 C.3   207  VAL207      0.0019
@<TRIPOS>BOND
     1    69    68    2
     2    62    61    2
     3    68    67    1
     4    61    60    1
     5    61    66   am
     6    67    66    1
     7    67    70    1
     8    83    82    2
     9    60    63    1
    10    60    59    1
    11    72    70    1
    12    63    64    1
    13    54    53    2
    14    82    81    1
    15    70    71    1
    16    90    89    2
    17    87    88    1
    18    59    53   am
    19    59    65    1
    20    53    52    1
    21    64    65    1
    22    89    88    1
    23    81    84    1
    24    81    80    1
    25    88    91    1
    26    84    85    1
    27    85    86    1
    28    80    86    1
    29    80    75   am
    30    92    93    1
    31    51    52    1
    32    51    48   am
    33    52    55    1
    34    57    56   ar
    35   147   148    1
    36   147   146    1
    37    55    56    1
    38    75    74    1
    39    75    76    2
    40    74    73    1
    41    74    77    1
    42    47    48    1
    43    47    50    1
    44    47    46    1
    45    56    58   ar
    46    73    79    1
    47   145   146    1
    48   145   144    1
    49    48    49    2
    50    93    94    1
    51    93    96    1
    52    94    95    2
    53    98    97   ar
    54    96    97    1
    55    97    99   ar
    56    77    78    1
    57   143   142    2
    58    79    78    1
    59   144   141    1
    60    22    21    1
    61   141   142    1
    62   141   140    1
    63    21    18    1
    64    16    15    2
    65    18    17    1
    66    18    19    1
    67    15    17   am
    68    15    14    1
    69   137   139    1
    70   137   136    1
    71   135   134    2
    72     7     6    1
    73    13    14    1
    74    19    20    2
    75   133   132    1
    76   133   136    1
    77   133   134    1
    78     9    10    1
    79     9     3   am
    80    10    11    1
    81    11    12    2
    82   138   136    1
    83     6     5    1
    84     6     8    1
    85     2     3    1
    86     2     5    1
    87     2     1    1
    88     3     4    2
    89   130   131    1
    90   130   129    1
    91   123   124   ar
    92   123   121   ar
    93   131   125    1
    94    23    24    1
    95   124   122   ar
    96   121   119   ar
    97   129   126    1
    98   103   102    2
    99    29    27    1
   100   122   120   ar
   101   125   126    1
   102   125   116   am
   103   119   120   ar
   104   119   118    1
   105    24    27    1
   106    24    25    1
   107    44    45    1
   108    44    41    1
   109   106   108   ar
   110   106   105   ar
   111   126   127    1
   112   115   118    1
   113   115   116    1
   114   115   114    1
   115   102   114   am
   116   102   101    1
   117    30    25   am
   118    30    31    1
   119    27    28    1
   120   108   109   ar
   121   116   117    2
   122    40    41    1
   123   104   105    1
   124   104   101    1
   125    25    26    2
   126    34    35    1
   127    34    31    1
   128    32    31    1
   129    32    33    2
   130   105   107   ar
   131    37    35   ar
   132    37    39   ar
   133    42    41    1
   134    42    43    2
   135    35    36   ar
   136    39    38   ar
   137   127   128    2
   138   100   101    1
   139    36    38   ar
   140   109   107   ar
   141   109   111   ar
   142   107   110   ar
   143   111   113   ar
   144   110   112   ar
   145   166   164    1
   146   113   112   ar
   147   165   164    1
   148   164   161    1
   149   189   188    1
   150   188   190    1
   151   188   185    1
   152   185   186    1
   153   185   184    1
   154   161   162    1
   155   161   160    1
   156   186   187    2
   157   163   162    2
   158   153   150    1
   159   160   156   am
   160   159   158    1
   161   149   150    1
   162   150   151    1
   163   154   151   am
   164   154   155    1
   165   182   183    1
   166   182   181    1
   167   156   155    1
   168   156   157    2
   169   151   152    2
   170   183   177    1
   171   158   155    1
   172   181   178    1
   173   177   178    1
   174   177   169   am
   175   178   179    1
   176   168   167    1
   177   168   169    1
   178   168   171    1
   179   169   170    2
   180   179   180    2
   181   173   175   ar
   182   173   172   ar
   183   175   176   ar
   184   172   171    1
   185   172   174   ar
   186   176   174   ar
