@<TRIPOS>MOLECULE
tmp/4jjgA01.pdb
 85 82 0 0 0
SMALL
GASTEIGER

@<TRIPOS>ATOM
      1  N         -2.3640  -25.9760  -34.2020 N.3    13  THR13      -0.1203
      2  CA        -1.7990  -25.9840  -32.8490 C.3    13  THR13       0.1994
      3  C         -2.5000  -26.9890  -31.9270 C.2    13  THR13       0.2617
      4  O         -1.9220  -27.4130  -30.9160 O.2    13  THR13      -0.2717
      5  CB        -1.8410  -24.5800  -32.1940 C.3    13  THR13       0.1784
      6  OG1       -3.2150  -24.2220  -31.8840 O.3    13  THR13      -0.2211
      7  CG2       -1.1440  -23.5160  -33.1170 C.3    13  THR13       0.0376
      8  N         -3.7410  -27.3600  -32.2340 N.am   14  HIS14      -0.1975
      9  CA        -4.3340  -28.4800  -31.5100 C.3    14  HIS14       0.1656
     10  C         -3.5410  -29.7420  -31.8160 C.2    14  HIS14       0.2291
     11  O         -3.0830  -30.3960  -30.8840 O.2    14  HIS14      -0.2864
     12  CB        -5.8360  -28.6540  -31.8200 C.3    14  HIS14       0.0771
     13  CG        -6.6230  -27.3850  -31.6750 C.ar   14  HIS14       0.0820
     14  ND1       -7.9710  -27.3650  -31.3850 N.ar   14  HIS14      -0.2267
     15  CD2       -6.2390  -26.0890  -31.7720 C.ar   14  HIS14       0.1154
     16  CE1       -8.3830  -26.1110  -31.3140 C.ar   14  HIS14       0.1986
     17  NE2       -7.3480  -25.3190  -31.5450 N.ar   14  HIS14      -0.2212
     18  N          0.1120  -29.8560  -30.4800 N.3    17  SER17      -0.1217
     19  CA         0.2280  -30.0480  -29.0230 C.3    17  SER17       0.1889
     20  C          0.4330  -31.5210  -28.6230 C.2    17  SER17       0.2288
     21  O          1.0550  -31.8040  -27.5880 O.2    17  SER17      -0.2866
     22  CB        -0.9560  -29.4380  -28.2740 C.3    17  SER17       0.2089
     23  OG        -2.0590  -30.3370  -28.2220 O.3    17  SER17      -0.2183
     24  N         -4.4620  -33.4540  -27.6400 N.3    20  THR20      -0.1218
     25  CA        -5.8880  -33.1730  -27.7270 C.3    20  THR20       0.1862
     26  C         -6.6580  -34.2740  -28.4700 C.2    20  THR20       0.2287
     27  O         -6.0730  -35.0810  -29.2070 O.2    20  THR20      -0.2866
     28  CB        -6.2160  -31.7280  -28.2110 C.3    20  THR20       0.1770
     29  OG1       -6.2970  -31.6750  -29.6390 O.3    20  THR20      -0.2211
     30  CG2       -5.1590  -30.7350  -27.7230 C.3    20  THR20       0.0375
     31  N        -12.8690  -14.7520  -31.4970 N.3   144  TRP144     -0.1241
     32  CA       -11.8560  -15.7940  -31.4090 C.3   144  TRP144      0.1605
     33  C        -10.7090  -15.3340  -32.2810 C.2   144  TRP144      0.2264
     34  O        -10.5080  -15.8420  -33.4060 O.2   144  TRP144     -0.2867
     35  CB       -12.4450  -17.0720  -31.9880 C.3   144  TRP144      0.0550
     36  CG       -11.6910  -18.3550  -31.7810 C.ar  144  TRP144      0.0003
     37  CD1      -10.8660  -18.9460  -32.6720 C.ar  144  TRP144      0.0946
     38  CD2      -11.7850  -19.2470  -30.6550 C.ar  144  TRP144      0.0152
     39  NE1      -10.3930  -20.1240  -32.1670 N.ar  144  TRP144     -0.2442
     40  CE2      -10.9350  -20.3430  -30.9320 C.ar  144  TRP144      0.0810
     41  CE3      -12.5230  -19.2330  -29.4490 C.ar  144  TRP144      0.0012
     42  CZ2      -10.7570  -21.4070  -30.0430 C.ar  144  TRP144      0.0191
     43  CZ3      -12.3660  -20.2980  -28.5480 C.ar  144  TRP144      0.0001
     44  CH2      -11.4670  -21.3720  -28.8500 C.ar  144  TRP144      0.0015
     45  N         -6.6130  -13.9350  -33.0370 N.3   146  PRO146     -0.2102
     46  CA        -5.2040  -14.2060  -32.6690 C.3   146  PRO146      0.1504
     47  C         -4.6490  -13.3150  -31.5280 C.2   146  PRO146      0.2575
     48  O         -5.1730  -12.2260  -31.2850 O.2   146  PRO146     -0.2718
     49  CB        -4.4210  -13.9450  -33.9800 C.3   146  PRO146      0.0282
     50  CG        -5.3110  -13.0770  -34.8170 C.3   146  PRO146      0.0208
     51  CD        -6.7330  -13.4420  -34.4260 C.3   146  PRO146      0.0893
     52  N         -3.6120  -13.8070  -30.8410 N.am  147  LYS147     -0.1980
     53  CA        -2.9790  -13.1190  -29.7150 C.3   147  LYS147      0.1596
     54  C         -2.1480  -11.9160  -30.1790 C.2   147  LYS147      0.2287
     55  O         -1.6660  -11.9080  -31.2960 O.2   147  LYS147     -0.2864
     56  CB        -2.1030  -14.0890  -28.9090 C.3   147  LYS147      0.0298
     57  CG        -1.8280  -13.6240  -27.4780 C.3   147  LYS147      0.0038
     58  CD        -1.4080  -14.7620  -26.5310 C.3   147  LYS147      0.0206
     59  CE        -0.7760  -14.1300  -25.2840 C.3   147  LYS147      0.1093
     60  NZ         0.1960  -15.0290  -24.5850 N.3   147  LYS147     -0.1314
     61  N         -9.1720  -17.2910  -25.2090 N.3   172  CYS172     -0.1221
     62  CA        -7.9420  -17.4090  -24.4740 C.3   172  CYS172      0.1808
     63  C         -6.8580  -16.4670  -25.0050 C.2   172  CYS172      0.2601
     64  O         -5.8510  -16.2150  -24.3540 O.2   172  CYS172     -0.2717
     65  CB        -7.4640  -18.8720  -24.4850 C.3   172  CYS172      0.0970
     66  SG        -6.4770  -19.2750  -25.9580 S.3   172  CYS172     -0.0800
     67  N         -7.0690  -15.9350  -26.1900 N.am  173  THR173     -0.1953
     68  CA        -6.0430  -15.1150  -26.7950 C.3   173  THR173      0.1897
     69  C         -5.9310  -13.6750  -26.2260 C.2   173  THR173      0.2313
     70  O         -5.0110  -12.9580  -26.5830 O.2   173  THR173     -0.2863
     71  CB        -6.2030  -15.1230  -28.3140 C.3   173  THR173      0.1794
     72  OG1       -7.5850  -15.0060  -28.6380 O.3   173  THR173     -0.2208
     73  CG2       -5.6600  -16.4270  -28.8880 C.3   173  THR173      0.0378
     74  N         -9.3960  -24.8020  -22.5560 N.3   206  ALA206     -0.1231
     75  CA        -8.9620  -26.0410  -23.2110 C.3   206  ALA206      0.1694
     76  C         -9.5640  -26.0260  -24.6300 C.2   206  ALA206      0.2591
     77  O        -10.4970  -25.2850  -24.8770 O.2   206  ALA206     -0.2718
     78  CB        -9.4600  -27.2950  -22.4410 C.3   206  ALA206      0.0304
     79  N         -9.0800  -26.8460  -25.5530 N.am  207  VAL207     -0.1980
     80  CA        -9.7350  -26.9050  -26.8550 C.3   207  VAL207      0.1595
     81  C        -11.1430  -27.4290  -26.6520 C.2   207  VAL207      0.2287
     82  O        -11.3440  -28.4870  -26.0210 O.2   207  VAL207     -0.2864
     83  CB        -8.9340  -27.6750  -27.9450 C.3   207  VAL207      0.0276
     84  CG1       -7.4870  -27.1740  -27.9870 C.3   207  VAL207      0.0022
     85  CG2       -8.9850  -29.2160  -27.7540 C.3   207  VAL207      0.0022
@<TRIPOS>BOND
     1    50    51    1
     2    50    49    1
     3    51    45    1
     4     1     2    1
     5    49    46    1
     6    34    33    2
     7     7     5    1
     8    45    46    1
     9     2     5    1
    10     2     3    1
    11    37    39   ar
    12    37    36   ar
    13    46    47    1
    14    33    32    1
    15     8     3   am
    16     8     9    1
    17     5     6    1
    18    39    40   ar
    19    35    36    1
    20    35    32    1
    21     3     4    2
    22    12    13    1
    23    12     9    1
    24    10     9    1
    25    10    11    2
    26    36    38   ar
    27    15    13   ar
    28    15    17   ar
    29    13    14   ar
    30    17    16   ar
    31    47    48    2
    32    47    52   am
    33    31    32    1
    34    14    16   ar
    35    55    54    2
    36    40    38   ar
    37    40    42   ar
    38    52    53    1
    39    38    41   ar
    40    18    19    1
    41    54    53    1
    42    42    44   ar
    43    53    56    1
    44    29    28    1
    45    41    43   ar
    46    27    26    2
    47    19    20    1
    48    19    22    1
    49    56    57    1
    50    73    71    1
    51    44    43   ar
    52    72    71    1
    53    20    21    2
    54    26    25    1
    55    71    68    1
    56    22    23    1
    57    28    25    1
    58    28    30    1
    59    84    83    1
    60    83    85    1
    61    83    80    1
    62    25    24    1
    63    57    58    1
    64    80    81    1
    65    80    79    1
    66    68    69    1
    67    68    67    1
    68    81    82    2
    69    70    69    2
    70    58    59    1
    71    67    63   am
    72    66    65    1
    73    79    76   am
    74    59    60    1
    75    61    62    1
    76    63    62    1
    77    63    64    2
    78    77    76    2
    79    76    75    1
    80    65    62    1
    81    75    74    1
    82    75    78    1
