@<TRIPOS>MOLECULE
tmp/4jjjA00.pdb
 170 168 0 0 0
SMALL
GASTEIGER

@<TRIPOS>ATOM
      1  N         23.3550   35.8970   43.7680 N.3    32  HIS32      -0.1241
      2  CA        22.8010   37.0680   43.0640 C.3    32  HIS32       0.1621
      3  C         23.1940   37.0310   41.5870 C.2    32  HIS32       0.2264
      4  O         22.4140   37.2510   40.6930 O.2    32  HIS32      -0.2867
      5  CB        23.2350   38.3530   43.7310 C.3    32  HIS32       0.0745
      6  CG        22.7730   39.5630   42.9580 C.ar   32  HIS32       0.0817
      7  ND1       21.4530   39.9830   42.9660 N.ar   32  HIS32      -0.2268
      8  CD2       23.4530   40.4500   42.1980 C.ar   32  HIS32       0.1154
      9  CE1       21.3390   41.0520   42.2210 C.ar   32  HIS32       0.1986
     10  NE2       22.5370   41.3910   41.7610 N.ar   32  HIS32      -0.2212
     11  N         24.8780   47.0210   43.4960 N.3    40  GLU40      -0.1231
     12  CA        23.6400   47.6270   42.9570 C.3    40  GLU40       0.1699
     13  C         22.4840   47.6180   43.9230 C.2    40  GLU40       0.2592
     14  O         21.6750   48.5380   43.9600 O.2    40  GLU40      -0.2718
     15  CB        23.2450   47.0430   41.5920 C.3    40  GLU40       0.0402
     16  CG        22.9690   45.5430   41.5820 C.3    40  GLU40       0.1161
     17  CD        23.0110   44.9060   40.1700 C.2    40  GLU40       0.3649
     18  OE1       23.5380   45.5340   39.2420 O.co2  40  GLU40      -0.2457
     19  OE2       22.3970   43.7990   40.1230 O.co2  40  GLU40      -0.2457
     20  N         22.3130   46.5640   44.6840 N.am   41  ALA41      -0.1966
     21  CA        21.3110   46.4020   45.6970 C.3    41  ALA41       0.1713
     22  C         21.8780   45.5240   46.7920 C.2    41  ALA41       0.2458
     23  O         22.2170   46.0520   47.8080 O.2    41  ALA41      -0.2730
     24  CB        19.9150   45.9690   45.1930 C.3    41  ALA41       0.0333
     25  N         22.2370   44.2620   46.4930 N.am   42  PRO42      -0.2727
     26  CA        23.3410   43.5980   47.1970 C.3    42  PRO42       0.1402
     27  C         24.6160   44.3220   46.7640 C.2    42  PRO42       0.2269
     28  O         24.6060   45.0280   45.7440 O.2    42  PRO42      -0.2865
     29  CB        23.2550   42.1420   46.7440 C.3    42  PRO42       0.0296
     30  CG        22.7260   42.2550   45.3860 C.3    42  PRO42       0.0237
     31  CD        21.7070   43.3800   45.3730 C.3    42  PRO42       0.0939
     32  N         19.7190   36.7250   47.8090 N.3    49  THR49      -0.1218
     33  CA        18.5640   37.5230   48.1760 C.3    49  THR49       0.1862
     34  C         17.3290   36.6930   48.2070 C.2    49  THR49       0.2287
     35  O         17.2240   35.6480   47.4940 O.2    49  THR49      -0.2866
     36  CB        18.2900   38.6580   47.1490 C.3    49  THR49       0.1770
     37  OG1       18.1360   38.0970   45.8550 O.3    49  THR49      -0.2211
     38  CG2       19.4860   39.6030   47.1460 C.3    49  THR49       0.0375
     39  N         14.8080   37.7630   46.7700 N.3    51  GLU51      -0.1245
     40  CA        14.4960   37.9010   45.4030 C.3    51  GLU51       0.1567
     41  C         14.9560   36.6700   44.6110 C.2    51  GLU51       0.2260
     42  O         14.2280   36.1200   43.8020 O.2    51  GLU51      -0.2867
     43  CB        15.1200   39.2180   44.8850 C.3    51  GLU51       0.0388
     44  CG        15.2360   39.3410   43.3730 C.3    51  GLU51       0.1160
     45  CD        15.9180   40.6360   43.0400 C.2    51  GLU51       0.3649
     46  OE1       17.1440   40.6280   42.7910 O.co2  51  GLU51      -0.2457
     47  OE2       15.2350   41.7180   43.1290 O.co2  51  GLU51      -0.2457
     48  N          8.4900   42.5450   47.9500 N.3   224  ASN224     -0.1240
     49  CA         8.4830   42.3190   46.4820 C.3   224  ASN224      0.1653
     50  C          8.7570   40.8290   46.1970 C.2   224  ASN224      0.2266
     51  O          8.1080   40.2130   45.3370 O.2   224  ASN224     -0.2867
     52  CB         9.5260   43.1750   45.7700 C.3   224  ASN224      0.1155
     53  CG         9.2780   43.3800   44.2770 C.2   224  ASN224      0.2627
     54  OD1        8.2620   43.1670   43.7380 O.2   224  ASN224     -0.2716
     55  ND2       10.3190   43.9230   43.6690 N.am  224  ASN224     -0.0877
     56  N          7.7530   48.7050   51.5100 N.3   299  TRP299     -0.1241
     57  CA         9.1320   48.3650   51.2100 C.3   299  TRP299      0.1605
     58  C          9.6670   47.2970   52.0790 C.2   299  TRP299      0.2264
     59  O         10.5540   46.5560   51.6990 O.2   299  TRP299     -0.2867
     60  CB         9.9900   49.6040   51.3820 C.3   299  TRP299      0.0550
     61  CG        11.3710   49.5670   50.7690 C.ar  299  TRP299      0.0003
     62  CD1       12.5450   49.3140   51.3760 C.ar  299  TRP299      0.0946
     63  CD2       11.6870   49.9150   49.4300 C.ar  299  TRP299      0.0152
     64  NE1       13.5930   49.4980   50.5150 N.ar  299  TRP299     -0.2442
     65  CE2       13.0840   49.8880   49.3030 C.ar  299  TRP299      0.0810
     66  CE3       10.9170   50.3250   48.3600 C.ar  299  TRP299      0.0012
     67  CZ2       13.7070   50.2100   48.0830 C.ar  299  TRP299      0.0191
     68  CZ3       11.5230   50.5760   47.1480 C.ar  299  TRP299      0.0001
     69  CH2       12.9030   50.5110   47.0030 C.ar  299  TRP299      0.0015
     70  N         14.2640   55.0040   48.9000 N.3   404  TRP404     -0.1241
     71  CA        15.6690   55.2550   48.4620 C.3   404  TRP404      0.1605
     72  C         15.6600   56.6230   47.7390 C.2   404  TRP404      0.2264
     73  O         14.8220   56.8850   46.8400 O.2   404  TRP404     -0.2867
     74  CB        16.1370   54.2440   47.4250 C.3   404  TRP404      0.0550
     75  CG        16.6280   52.9280   47.8840 C.ar  404  TRP404      0.0003
     76  CD1       16.5190   52.3430   49.0860 C.ar  404  TRP404      0.0946
     77  CD2       17.3920   52.0470   47.0280 C.ar  404  TRP404      0.0152
     78  NE1       17.1740   51.0960   49.0270 N.ar  404  TRP404     -0.2442
     79  CE2       17.7220   50.9130   47.7740 C.ar  404  TRP404      0.0810
     80  CE3       17.8310   52.1510   45.7570 C.ar  404  TRP404      0.0012
     81  CZ2       18.4860   49.8880   47.2140 C.ar  404  TRP404      0.0191
     82  CZ3       18.6380   51.0980   45.1950 C.ar  404  TRP404      0.0001
     83  CH2       18.9110   50.0330   45.9330 C.ar  404  TRP404      0.0015
     84  N         14.4320   53.6490   37.9070 N.3   412  TRP412     -0.1241
     85  CA        14.7090   52.3940   37.0900 C.3   412  TRP412      0.1605
     86  C         13.4990   51.8800   36.4290 C.2   412  TRP412      0.2264
     87  O         12.4930   51.5730   37.1080 O.2   412  TRP412     -0.2867
     88  CB        15.2180   51.3690   38.0770 C.3   412  TRP412      0.0550
     89  CG        15.6370   50.0960   37.3800 C.ar  412  TRP412      0.0003
     90  CD1       16.4540   49.9920   36.2660 C.ar  412  TRP412      0.0946
     91  CD2       15.3470   48.7550   37.8080 C.ar  412  TRP412      0.0152
     92  NE1       16.6100   48.6770   35.9290 N.ar  412  TRP412     -0.2442
     93  CE2       15.9520   47.8900   36.8580 C.ar  412  TRP412      0.0810
     94  CE3       14.5510   48.2170   38.8060 C.ar  412  TRP412      0.0012
     95  CZ2       15.8400   46.5130   36.9850 C.ar  412  TRP412      0.0191
     96  CZ3       14.4480   46.8830   38.9230 C.ar  412  TRP412      0.0001
     97  CH2       15.0800   46.0250   38.0060 C.ar  412  TRP412      0.0015
     98  N         11.2600   48.5670   37.4330 N.3   415  PHE415     -0.1241
     99  CA        10.1180   48.4210   38.2890 C.3   415  PHE415      0.1605
    100  C          8.8130   48.5580   37.5260 C.2   415  PHE415      0.2264
    101  O          7.7880   48.0120   37.8990 O.2   415  PHE415     -0.2867
    102  CB        10.1830   49.4800   39.3830 C.3   415  PHE415      0.0534
    103  CG        11.0490   49.1620   40.5510 C.ar  415  PHE415     -0.0203
    104  CD1       10.9380   47.9490   41.2280 C.ar  415  PHE415     -0.0042
    105  CD2       12.0260   50.0400   40.9150 C.ar  415  PHE415     -0.0042
    106  CE1       11.7430   47.6820   42.3670 C.ar  415  PHE415     -0.0003
    107  CE2       12.8140   49.7620   41.9930 C.ar  415  PHE415     -0.0003
    108  CZ        12.6670   48.6070   42.7110 C.ar  415  PHE415     -0.0000
    109  N          8.3090   44.9700   36.1730 N.3   418  TRP418     -0.1241
    110  CA         8.0470   44.0040   37.2520 C.3   418  TRP418      0.1605
    111  C          6.5810   44.1370   37.7400 C.2   418  TRP418      0.2264
    112  O          5.8420   43.1240   37.9000 O.2   418  TRP418     -0.2867
    113  CB         9.0150   44.1290   38.3560 C.3   418  TRP418      0.0550
    114  CG        10.3240   43.5070   38.1480 C.ar  418  TRP418      0.0003
    115  CD1       10.6970   42.6720   37.1640 C.ar  418  TRP418      0.0946
    116  CD2       11.4290   43.5480   39.0770 C.ar  418  TRP418      0.0152
    117  NE1       11.9730   42.2540   37.3740 N.ar  418  TRP418     -0.2442
    118  CE2       12.4390   42.7400   38.5580 C.ar  418  TRP418      0.0810
    119  CE3       11.6170   44.1930   40.3020 C.ar  418  TRP418      0.0012
    120  CZ2       13.6310   42.5270   39.2180 C.ar  418  TRP418      0.0191
    121  CZ3       12.8230   43.9900   40.9860 C.ar  418  TRP418      0.0001
    122  CH2       13.8020   43.1650   40.4490 C.ar  418  TRP418      0.0015
    123  N         15.7200   52.3400   30.2620 N.3   465  SER465     -0.1217
    124  CA        16.5240   52.1210   31.4130 C.3   465  SER465      0.1889
    125  C         16.2550   53.1530   32.5070 C.2   465  SER465      0.2288
    126  O         15.6480   52.8380   33.5430 O.2   465  SER465     -0.2866
    127  CB        18.0250   52.0720   31.0360 C.3   465  SER465      0.2089
    128  OG        18.7820   52.0120   32.2520 O.3   465  SER465     -0.2183
    129  N         19.4610   45.5640   28.9460 N.3   496  ASP496     -0.1239
    130  CA        19.3230   44.7800   30.1770 C.3   496  ASP496      0.1674
    131  C         18.3970   43.6040   29.8720 C.2   496  ASP496      0.2266
    132  O         17.2580   43.8040   29.5970 O.2   496  ASP496     -0.2867
    133  CB        18.8100   45.6850   31.2700 C.3   496  ASP496      0.1410
    134  CG        18.6570   45.0310   32.5550 C.2   496  ASP496      0.3668
    135  OD1       18.1530   43.8910   32.6220 O.co2 496  ASP496     -0.2456
    136  OD2       18.9280   45.6850   33.6210 O.co2 496  ASP496     -0.2456
    137  N         27.3660   45.6910   29.3860 N.3   543  GLU543     -0.1196
    138  CA        27.0240   46.8330   30.2520 C.3   543  GLU543      0.1783
    139  C         28.3400   47.4320   30.7830 C.2   543  GLU543      0.2306
    140  O         29.3720   46.7450   30.8320 O.2   543  GLU543     -0.2863
    141  CB        26.0050   46.4730   31.3040 C.2   543  GLU543      0.0071
    142  CG        26.4800   45.7360   32.4150 C.2   543  GLU543      0.0834
    143  CD        25.4430   45.3990   33.4960 C.2   543  GLU543      0.3877
    144  OE1       24.7790   44.4360   33.1300 O.co2 543  GLU543     -0.2406
    145  OE2       25.3560   45.9520   34.6390 O.co2 543  GLU543     -0.2406
    146  N         23.0560   37.7110   36.0350 N.3   617  ARG617     -0.1245
    147  CA        22.2600   37.8750   37.2480 C.3   617  ARG617      0.1563
    148  C         21.2490   36.7490   37.2860 C.2   617  ARG617      0.2260
    149  O         20.5630   36.5180   36.3260 O.2   617  ARG617     -0.2867
    150  CB        21.5390   39.1990   37.2800 C.3   617  ARG617      0.0307
    151  CG        22.5120   40.4080   37.3660 C.3   617  ARG617      0.0489
    152  CD        21.6460   41.6940   37.2080 C.3   617  ARG617      0.2205
    153  NE        22.4830   42.8920   37.3190 N.pl3 617  ARG617     -0.0865
    154  CZ        23.1450   43.4510   36.3280 C.cat 617  ARG617      0.5346
    155  NH1       23.1230   42.9430   35.1220 N.pl3 617  ARG617      0.1354
    156  NH2       23.8290   44.5510   36.5860 N.pl3 617  ARG617      0.1354
    157  N         18.3000   36.3410   38.7050 N.3   619  TRP619     -0.1241
    158  CA        16.9210   36.7390   38.4830 C.3   619  TRP619      0.1605
    159  C         16.7370   37.0130   37.0120 C.2   619  TRP619      0.2264
    160  O         15.7120   36.6940   36.4710 O.2   619  TRP619     -0.2867
    161  CB        16.5320   37.8810   39.3550 C.3   619  TRP619      0.0550
    162  CG        16.9990   39.2990   39.0040 C.ar  619  TRP619      0.0003
    163  CD1       17.9810   39.9950   39.5910 C.ar  619  TRP619      0.0946
    164  CD2       16.4810   40.1950   37.9590 C.ar  619  TRP619      0.0152
    165  NE1       18.0930   41.2280   39.0530 N.ar  619  TRP619     -0.2442
    166  CE2       17.1600   41.4000   38.0710 C.ar  619  TRP619      0.0810
    167  CE3       15.4200   40.1040   37.0430 C.ar  619  TRP619      0.0012
    168  CZ2       16.8830   42.4890   37.2910 C.ar  619  TRP619      0.0191
    169  CZ3       15.1310   41.1650   36.2800 C.ar  619  TRP619      0.0001
    170  CH2       15.8700   42.3760   36.3860 C.ar  619  TRP619      0.0015
@<TRIPOS>BOND
     1   129   130    1
     2   137   138    1
     3   132   131    2
     4   131   130    1
     5   130   133    1
     6   138   139    1
     7   138   141    1
     8   123   124    1
     9   139   140    2
    10   127   124    1
    11   127   128    1
    12   133   134    1
    13   141   142    2
    14   124   125    1
    15   142   143    1
    16   125   126    2
    17   134   135   ar
    18   134   136   ar
    19   144   143   ar
    20   143   145   ar
    21   155   154    1
    22    92    90   ar
    23    92    93   ar
    24   146   147    1
    25   109   110    1
    26    90    89   ar
    27   169   170   ar
    28   169   167   ar
    29   149   148    2
    30   154   156    1
    31   154   153    2
    32   170   168   ar
    33    86    85    1
    34    86    87    2
    35   160   159    2
    36    93    95   ar
    37    93    91   ar
    38    95    97   ar
    39   159   158    1
    40   167   164   ar
    41    85    84    1
    42    85    88    1
    43   115   117   ar
    44   115   114   ar
    45   152   153    1
    46   152   151    1
    47   147   150    1
    48   147   148    1
    49   110   111    1
    50   110   113    1
    51   150   151    1
    52   168   166   ar
    53   117   118   ar
    54    89    91   ar
    55    89    88    1
    56    98    99    1
    57   100   101    2
    58   100    99    1
    59   111   112    2
    60    91    94   ar
    61   164   166   ar
    62   164   162   ar
    63    97    96   ar
    64   166   165   ar
    65   114   113    1
    66   114   116   ar
    67    99   102    1
    68   158   157    1
    69   158   161    1
    70   118   116   ar
    71   118   120   ar
    72    94    96   ar
    73   162   161    1
    74   162   163   ar
    75   165   163   ar
    76   116   119   ar
    77   120   122   ar
    78    18    17   ar
    79   102   103    1
    80    19    17   ar
    81    17    16    1
    82   119   121   ar
    83   122   121   ar
    84   103   105   ar
    85   103   104   ar
    86     4     3    2
    87   105   107   ar
    88   104   106   ar
    89    16    15    1
    90     3     2    1
    91    15    12    1
    92    10     8   ar
    93    10     9   ar
    94   107   108   ar
    95     8     6   ar
    96     9     7   ar
    97   106   108   ar
    98    46    45   ar
    99    12    11    1
   100    12    13    1
   101     6     7   ar
   102     6     5    1
   103    45    47   ar
   104    45    44    1
   105     2     5    1
   106     2     1    1
   107    44    43    1
   108    55    53   am
   109    54    53    2
   110    42    41    2
   111    13    14    2
   112    13    20   am
   113    53    52    1
   114    41    40    1
   115    20    21    1
   116    43    40    1
   117    24    21    1
   118    82    80   ar
   119    82    83   ar
   120    51    50    2
   121    31    30    1
   122    31    25    1
   123    30    29    1
   124    40    39    1
   125    21    22    1
   126    28    27    2
   127    80    77   ar
   128    52    49    1
   129    37    36    1
   130    83    81   ar
   131    50    49    1
   132    49    48    1
   133    25    22   am
   134    25    26    1
   135    29    26    1
   136    27    26    1
   137    22    23    2
   138    73    72    2
   139    69    68   ar
   140    69    67   ar
   141    77    79   ar
   142    77    75   ar
   143    38    36    1
   144    68    66   ar
   145    36    33    1
   146    81    79   ar
   147    74    75    1
   148    74    71    1
   149    35    34    2
   150    72    71    1
   151    79    78   ar
   152    32    33    1
   153    75    76   ar
   154    67    65   ar
   155    33    34    1
   156    66    63   ar
   157    71    70    1
   158    78    76   ar
   159    65    63   ar
   160    65    64   ar
   161    63    61   ar
   162    64    62   ar
   163    61    62   ar
   164    61    60    1
   165    57    60    1
   166    57    56    1
   167    57    58    1
   168    59    58    2
