@<TRIPOS>MOLECULE
tmp/4jjqA00.pdb
 107 104 0 0 0
SMALL
GASTEIGER

@<TRIPOS>ATOM
      1  N         32.1540  -10.1010  -20.9890 N.3    38  MET38      -0.1245
      2  CA        33.3740  -10.8420  -21.2870 C.3    38  MET38       0.1570
      3  C         33.0650  -12.3220  -21.1240 C.2    38  MET38       0.2261
      4  O         32.5810  -12.7400  -20.0730 O.2    38  MET38      -0.2867
      5  CB        34.4880  -10.4450  -20.3170 C.3    38  MET38       0.0387
      6  CG        35.8280  -11.1040  -20.6120 C.3    38  MET38       0.0595
      7  SD        37.0150  -10.8870  -19.2620 S.3    38  MET38      -0.1393
      8  CE        37.2590   -9.1200  -19.3170 C.3    38  MET38       0.0692
      9  N         34.5800  -16.3960  -21.7290 N.3    40  MET40      -0.1245
     10  CA        35.7840  -17.1850  -21.9700 C.3    40  MET40       0.1570
     11  C         35.6590  -18.6140  -21.4650 C.2    40  MET40       0.2261
     12  O         35.0110  -18.8690  -20.4560 O.2    40  MET40      -0.2867
     13  CB        36.9720  -16.5350  -21.2730 C.3    40  MET40       0.0387
     14  CG        36.8100  -16.4700  -19.7620 C.3    40  MET40       0.0595
     15  SD        38.1960  -15.6560  -18.9670 S.3    40  MET40      -0.1393
     16  CE        37.6530  -13.9690  -19.0330 C.3    40  MET40       0.0692
     17  N         36.7000  -21.8560  -19.5040 N.3    42  ARG42      -0.1245
     18  CA        37.5200  -22.0510  -18.3110 C.3    42  ARG42       0.1563
     19  C         37.6150  -23.5360  -17.9770 C.2    42  ARG42       0.2260
     20  O         36.7250  -24.3130  -18.3220 O.2    42  ARG42      -0.2867
     21  CB        36.9240  -21.2820  -17.1250 C.3    42  ARG42       0.0307
     22  CG        36.8850  -19.7620  -17.3200 C.3    42  ARG42       0.0489
     23  CD        38.2880  -19.1710  -17.3820 C.3    42  ARG42       0.2205
     24  NE        38.9290  -19.1480  -16.0700 N.pl3  42  ARG42      -0.0865
     25  CZ        38.9060  -18.1080  -15.2410 C.cat  42  ARG42       0.5346
     26  NH1       38.2780  -16.9910  -15.5850 N.pl3  42  ARG42       0.1354
     27  NH2       39.5050  -18.1860  -14.0590 N.pl3  42  ARG42       0.1354
     28  N         31.8280  -12.7450  -17.3340 N.3    50  PHE50      -0.1241
     29  CA        32.1360  -11.5840  -16.5000 C.3    50  PHE50       0.1605
     30  C         31.6010  -10.2760  -17.0560 C.2    50  PHE50       0.2264
     31  O         31.3960  -10.1360  -18.2620 O.2    50  PHE50      -0.2867
     32  CB        33.6510  -11.4230  -16.3310 C.3    50  PHE50       0.0534
     33  CG        34.3330  -12.6320  -15.7720 C.ar   50  PHE50      -0.0203
     34  CD1       34.6510  -13.7070  -16.5950 C.ar   50  PHE50      -0.0042
     35  CD2       34.6510  -12.7000  -14.4190 C.ar   50  PHE50      -0.0042
     36  CE1       35.2770  -14.8370  -16.0790 C.ar   50  PHE50      -0.0003
     37  CE2       35.2760  -13.8270  -13.8890 C.ar   50  PHE50      -0.0003
     38  CZ        35.5900  -14.8980  -14.7190 C.ar   50  PHE50      -0.0000
     39  N         25.2960  -10.4390   -9.2160 N.3    86  ILE86      -0.1245
     40  CA        26.5500   -9.9640   -8.6450 C.3    86  ILE86       0.1561
     41  C         26.3540   -8.5610   -8.0870 C.2    86  ILE86       0.2260
     42  O         25.4040   -7.8570   -8.4380 O.2    86  ILE86      -0.2867
     43  CB        27.6910   -9.9010   -9.6910 C.3    86  ILE86       0.0252
     44  CG1       27.2650   -9.0330  -10.8790 C.3    86  ILE86       0.0019
     45  CG2       28.0720  -11.3020  -10.1400 C.3    86  ILE86       0.0019
     46  CD1       28.3750   -8.8050  -11.9020 C.3    86  ILE86       0.0001
     47  N         41.7490   -1.7460  -10.4310 N.3    93  LYS93      -0.1231
     48  CA        42.3660   -3.0220  -10.0720 C.3    93  LYS93       0.1693
     49  C         41.3760   -4.1930  -10.0840 C.2    93  LYS93       0.2591
     50  O         41.7800   -5.3550  -10.1180 O.2    93  LYS93      -0.2718
     51  CB        43.0210   -2.9240   -8.6950 C.3    93  LYS93       0.0285
     52  CG        44.2380   -2.0130   -8.6540 C.3    93  LYS93       0.0035
     53  CD        44.8410   -1.9850   -7.2580 C.3    93  LYS93       0.0206
     54  CE        46.1290   -1.1750   -7.2170 C.3    93  LYS93       0.1093
     55  NZ        46.7620   -1.2260   -5.8660 N.3    93  LYS93      -0.1314
     56  N         40.0840   -3.8830  -10.0270 N.am   94  GLU94      -0.1979
     57  CA        39.0380   -4.9010  -10.0690 C.3    94  GLU94       0.1602
     58  C         37.9890   -4.3620  -11.0370 C.2    94  GLU94       0.2287
     59  O         36.8690   -4.0250  -10.6410 O.2    94  GLU94      -0.2864
     60  CB        38.4380   -5.1320   -8.6670 C.3    94  GLU94       0.0415
     61  CG        39.4370   -5.7650   -7.6890 C.3    94  GLU94       0.1163
     62  CD        38.8250   -6.2400   -6.3700 C.2    94  GLU94       0.3649
     63  OE1       39.4950   -7.0360   -5.6760 O.co2  94  GLU94      -0.2457
     64  OE2       37.6990   -5.8250   -6.0150 O.co2  94  GLU94      -0.2457
     65  N         36.5260   -5.9640  -13.5570 N.3    96  ASP96      -0.1225
     66  CA        35.5710   -6.9380  -14.0790 C.3    96  ASP96       0.1805
     67  C         35.1840   -7.8610  -12.9400 C.2    96  ASP96       0.2598
     68  O         35.9410   -8.0320  -11.9780 O.2    96  ASP96      -0.2718
     69  CB        36.1470   -7.7340  -15.2530 C.3    96  ASP96       0.1424
     70  CG        37.1290   -8.7980  -14.8210 C.2    96  ASP96       0.3668
     71  OD1       36.7660   -9.6520  -13.9850 O.co2  96  ASP96      -0.2456
     72  OD2       38.2640   -8.7890  -15.3330 O.co2  96  ASP96      -0.2456
     73  N         34.0110   -8.4650  -13.0450 N.am   97  TRP97      -0.1962
     74  CA        33.5350   -9.3300  -11.9790 C.3    97  TRP97       0.1771
     75  C         32.5200  -10.3040  -12.5490 C.2    97  TRP97       0.2620
     76  O         31.7300   -9.9450  -13.4230 O.2    97  TRP97      -0.2715
     77  CB        32.8940   -8.4560  -10.9000 C.3    97  TRP97       0.0590
     78  CG        32.6640   -9.1290   -9.5930 C.ar   97  TRP97       0.0006
     79  CD1       31.4670   -9.5390   -9.0780 C.ar   97  TRP97       0.0946
     80  CD2       33.6500   -9.4110   -8.5960 C.ar   97  TRP97       0.0152
     81  NE1       31.6470  -10.0500   -7.8140 N.ar   97  TRP97      -0.2442
     82  CE2       32.9780   -9.9850   -7.4950 C.ar   97  TRP97       0.0810
     83  CE3       35.0360   -9.2330   -8.5250 C.ar   97  TRP97       0.0012
     84  CZ2       33.6470  -10.3780   -6.3330 C.ar   97  TRP97       0.0191
     85  CZ3       35.7030   -9.6250   -7.3680 C.ar   97  TRP97       0.0001
     86  CH2       35.0060  -10.1920   -6.2890 C.ar   97  TRP97       0.0015
     87  N         32.5490  -11.5380  -12.0630 N.am   98  GLY98      -0.1940
     88  CA        31.6120  -12.5290  -12.5550 C.3    98  GLY98       0.2014
     89  C         31.9650  -13.9220  -12.0770 C.2    98  GLY98       0.2639
     90  O         32.4820  -14.0920  -10.9680 O.2    98  GLY98      -0.2714
     91  N         31.7110  -14.9170  -12.9210 N.am   99  PHE99      -0.1959
     92  CA        31.9810  -16.3000  -12.5580 C.3    99  PHE99       0.1771
     93  C         32.8300  -17.0440  -13.5800 C.2    99  PHE99       0.2620
     94  O         32.5000  -17.0770  -14.7640 O.2    99  PHE99      -0.2715
     95  CB        30.6580  -17.0450  -12.3650 C.3    99  PHE99       0.0574
     96  CG        29.6690  -16.3150  -11.4950 C.ar   99  PHE99      -0.0200
     97  CD1       28.9250  -15.2540  -12.0030 C.ar   99  PHE99      -0.0042
     98  CD2       29.4870  -16.6900  -10.1680 C.ar   99  PHE99      -0.0042
     99  CE1       28.0090  -14.5760  -11.1990 C.ar   99  PHE99      -0.0003
    100  CE2       28.5750  -16.0200   -9.3540 C.ar   99  PHE99      -0.0003
    101  CZ        27.8320  -14.9580   -9.8730 C.ar   99  PHE99      -0.0000
    102  N         33.9230  -17.6480  -13.1190 N.am  100  SER100     -0.1950
    103  CA        34.7890  -18.4070  -14.0110 C.3   100  SER100      0.1924
    104  C         34.0650  -19.6940  -14.4010 C.2   100  SER100      0.2314
    105  O         34.2950  -20.2560  -15.4750 O.2   100  SER100     -0.2863
    106  CB        36.1110  -18.7400  -13.3190 C.3   100  SER100      0.2116
    107  OG        35.8810  -19.4700  -12.1300 O.3   100  SER100     -0.2180
@<TRIPOS>BOND
     1    10     9    1
     2    10    11    1
     3    10    13    1
     4    11    12    2
     5     2     3    1
     6     2     1    1
     7     2     5    1
     8    13    14    1
     9     3     4    2
    10     6     5    1
    11     6     7    1
    12    14    15    1
    13    17    18    1
    14     8     7    1
    15    16    15    1
    16    20    19    2
    17    18    19    1
    18    18    21    1
    19    31    30    2
    20    23    22    1
    21    23    24    1
    22    28    29    1
    23    22    21    1
    24    30    29    1
    25    34    36   ar
    26    34    33   ar
    27    29    32    1
    28    32    33    1
    29    36    38   ar
    30    24    25    2
    31    33    35   ar
    32    26    25    1
    33   105   104    2
    34    72    70   ar
    35    69    70    1
    36    69    66    1
    37    25    27    1
    38    70    71   ar
    39    94    93    2
    40    38    37   ar
    41    35    37   ar
    42   104   103    1
    43    66    65    1
    44    66    67    1
    45   103   106    1
    46   103   102    1
    47    93   102   am
    48    93    92    1
    49    76    75    2
    50   106   107    1
    51    73    67   am
    52    73    74    1
    53    67    68    2
    54    91    92    1
    55    91    89   am
    56    92    95    1
    57    88    89    1
    58    88    87    1
    59    75    87   am
    60    75    74    1
    61    95    96    1
    62    89    90    2
    63    97    96   ar
    64    97    99   ar
    65    74    77    1
    66    46    44    1
    67    96    98   ar
    68    99   101   ar
    69    58    59    2
    70    58    57    1
    71    77    78    1
    72    44    43    1
    73    47    48    1
    74    98   100   ar
    75    45    43    1
    76    50    49    2
    77    49    48    1
    78    49    56   am
    79    48    51    1
    80    57    56    1
    81    57    60    1
    82   101   100   ar
    83    43    40    1
    84    78    79   ar
    85    78    80   ar
    86    39    40    1
    87    79    81   ar
    88    51    52    1
    89    60    61    1
    90    52    53    1
    91    40    41    1
    92    80    83   ar
    93    80    82   ar
    94    83    85   ar
    95    42    41    2
    96    81    82   ar
    97    61    62    1
    98    82    84   ar
    99    85    86   ar
   100    53    54    1
   101    54    55    1
   102    62    64   ar
   103    62    63   ar
   104    84    86   ar
