@<TRIPOS>MOLECULE
tmp/4jjsA00.pdb
 124 119 0 0 0
SMALL
GASTEIGER

@<TRIPOS>ATOM
      1  N        -24.9100   47.0110   48.4220 N.3   415  LEU415     -0.1245
      2  CA       -24.8970   48.0550   49.4170 C.3   415  LEU415      0.1561
      3  C        -25.1580   49.4210   48.7890 C.2   415  LEU415      0.2260
      4  O        -25.9300   50.2210   49.3210 O.2   415  LEU415     -0.2867
      5  CB       -23.5380   48.0500   50.1150 C.3   415  LEU415      0.0270
      6  CG       -23.1700   49.1960   51.0550 C.3   415  LEU415      0.0019
      7  CD1      -24.1930   49.3050   52.2070 C.3   415  LEU415      0.0001
      8  CD2      -21.7410   48.9510   51.5840 C.3   415  LEU415      0.0001
      9  N        -28.8920   49.8590   46.9890 N.3   418  ARG418     -0.1231
     10  CA       -29.9340   50.0090   48.0000 C.3   418  ARG418      0.1694
     11  C        -29.8570   51.3560   48.7630 C.2   418  ARG418      0.2591
     12  O        -30.8150   52.1320   48.8190 O.2   418  ARG418     -0.2718
     13  CB       -29.8470   48.8360   48.9960 C.3   418  ARG418      0.0321
     14  CG       -30.1840   47.4700   48.4100 C.3   418  ARG418      0.0489
     15  CD       -29.7920   46.3600   49.3660 C.3   418  ARG418      0.2205
     16  NE       -30.7250   46.2200   50.4750 N.pl3 418  ARG418     -0.0865
     17  CZ       -30.4260   45.6590   51.6430 C.cat 418  ARG418      0.5346
     18  NH1      -29.2070   45.1780   51.8690 N.pl3 418  ARG418      0.1354
     19  NH2      -31.3450   45.5930   52.5920 N.pl3 418  ARG418      0.1354
     20  N        -28.6990   51.6200   49.3490 N.am  419  MET419     -0.1979
     21  CA       -28.4880   52.8460   50.1070 C.3   419  MET419      0.1605
     22  C        -28.6940   54.1420   49.3220 C.2   419  MET419      0.2287
     23  O        -29.2960   55.0840   49.8260 O.2   419  MET419     -0.2864
     24  CB       -27.0580   52.8590   50.6800 C.3   419  MET419      0.0413
     25  CG       -26.6690   54.1490   51.4220 C.3   419  MET419      0.0598
     26  SD       -24.9500   54.2010   52.0640 S.3   419  MET419     -0.1393
     27  CE       -24.1370   54.8980   50.8050 C.3   419  MET419      0.0692
     28  N        -29.7320   41.8790   53.3000 N.3   470  LEU470     -0.1231
     29  CA       -28.2840   41.7140   53.2870 C.3   470  LEU470      0.1693
     30  C        -27.6160   42.7470   54.1690 C.2   470  LEU470      0.2592
     31  O        -28.0290   43.9090   54.2200 O.2   470  LEU470     -0.2718
     32  CB       -27.7190   41.8040   51.8590 C.3   470  LEU470      0.0284
     33  CG       -28.1890   40.7090   50.8990 C.3   470  LEU470      0.0019
     34  CD1      -27.3990   40.8060   49.6050 C.3   470  LEU470      0.0001
     35  CD2      -28.0090   39.3350   51.5390 C.3   470  LEU470      0.0001
     36  N        -26.5890   42.2950   54.8760 N.am  471  HIS471     -0.1962
     37  CA       -25.8160   43.1300   55.7710 C.3   471  HIS471      0.1787
     38  C        -24.4690   42.4390   55.9960 C.2   471  HIS471      0.2621
     39  O        -24.2700   41.2940   55.5820 O.2   471  HIS471     -0.2715
     40  CB       -26.5560   43.2980   57.1070 C.3   471  HIS471      0.0785
     41  CG       -26.6900   42.0210   57.8730 C.ar  471  HIS471      0.0821
     42  ND1      -25.7140   41.5660   58.7310 N.ar  471  HIS471     -0.2267
     43  CD2      -27.6580   41.0750   57.8620 C.ar  471  HIS471      0.1154
     44  CE1      -26.0800   40.3930   59.2190 C.ar  471  HIS471      0.1986
     45  NE2      -27.2560   40.0730   58.7070 N.ar  471  HIS471     -0.2212
     46  N        -23.5620   43.1350   56.6650 N.am  472  SER472     -0.1936
     47  CA       -22.2320   42.6100   56.8940 C.3   472  SER472      0.2055
     48  C        -21.5580   42.2420   55.5730 C.2   472  SER472      0.2643
     49  O        -21.2640   41.0790   55.3640 O.2   472  SER472     -0.2714
     50  CB       -22.2650   41.3670   57.7900 C.3   472  SER472      0.2130
     51  OG       -22.6560   41.7160   59.1030 O.3   472  SER472     -0.2179
     52  N        -21.3370   43.2300   54.6970 N.am  473  TYR473     -0.1973
     53  CA       -20.6820   43.0230   53.3980 C.3   473  TYR473      0.1639
     54  C        -19.1660   42.8230   53.5670 C.2   473  TYR473      0.2290
     55  O        -18.6030   43.0880   54.6270 O.2   473  TYR473     -0.2864
     56  CB       -20.9380   44.2110   52.4640 C.3   473  TYR473      0.0560
     57  CG       -22.3840   44.3480   52.0300 C.ar  473  TYR473     -0.0198
     58  CD1      -23.3650   44.7760   52.9260 C.ar  473  TYR473     -0.0009
     59  CD2      -22.7750   44.0570   50.7240 C.ar  473  TYR473     -0.0009
     60  CE1      -24.6910   44.9190   52.5240 C.ar  473  TYR473      0.0417
     61  CE2      -24.1030   44.1930   50.3090 C.ar  473  TYR473      0.0417
     62  CZ       -25.0610   44.6330   51.2060 C.ar  473  TYR473      0.1957
     63  OH       -26.3580   44.8620   50.7860 O.3   473  TYR473     -0.2866
     64  N        -16.8740   46.9850   50.9810 N.3   478  ILE478     -0.1245
     65  CA       -17.0460   48.2040   51.7600 C.3   478  ILE478      0.1561
     66  C        -15.9800   49.2630   51.4490 C.2   478  ILE478      0.2260
     67  O        -16.2830   50.4590   51.3620 O.2   478  ILE478     -0.2867
     68  CB       -17.0430   47.8860   53.2600 C.3   478  ILE478      0.0252
     69  CG1      -18.3700   47.2200   53.6380 C.3   478  ILE478      0.0019
     70  CG2      -16.8600   49.1510   54.0670 C.3   478  ILE478      0.0019
     71  CD1      -18.4120   46.6270   55.0620 C.3   478  ILE478      0.0001
     72  N        -16.7680   50.8310   47.8650 N.3   481  VAL481     -0.1231
     73  CA       -17.8860   51.7760   47.8980 C.3   481  VAL481      0.1692
     74  C        -17.4810   53.0790   48.6010 C.2   481  VAL481      0.2591
     75  O        -17.6660   54.1680   48.0650 O.2   481  VAL481     -0.2718
     76  CB       -19.1150   51.1800   48.6710 C.3   481  VAL481      0.0266
     77  CG1      -20.1250   52.2810   48.9590 C.3   481  VAL481      0.0020
     78  CG2      -19.7650   50.0380   47.8760 C.3   481  VAL481      0.0020
     79  N        -16.9400   52.9590   49.8140 N.am  482  ALA482     -0.1980
     80  CA       -16.5290   54.1410   50.5620 C.3   482  ALA482      0.1597
     81  C        -15.5790   54.9920   49.7090 C.2   482  ALA482      0.2287
     82  O        -15.7040   56.2120   49.6560 O.2   482  ALA482     -0.2864
     83  CB       -15.8490   53.7330   51.8640 C.3   482  ALA482      0.0319
     84  N        -17.5380   56.8790   47.1780 N.3   485  LEU485     -0.1245
     85  CA       -18.2750   58.0030   47.7530 C.3   485  LEU485      0.1561
     86  C        -17.4000   59.2440   48.0120 C.2   485  LEU485      0.2260
     87  O        -17.7980   60.3810   47.7190 O.2   485  LEU485     -0.2867
     88  CB       -18.9710   57.5620   49.0550 C.3   485  LEU485      0.0270
     89  CG       -19.8810   56.3390   48.9160 C.3   485  LEU485      0.0019
     90  CD1      -20.7110   56.1590   50.1700 C.3   485  LEU485      0.0001
     91  CD2      -20.7840   56.5210   47.6920 C.3   485  LEU485      0.0001
     92  N        -23.5230   57.3740   54.6030 N.3   493  LEU493     -0.1245
     93  CA       -24.6270   56.5220   55.0070 C.3   493  LEU493      0.1561
     94  C        -25.6300   57.2550   55.9070 C.2   493  LEU493      0.2260
     95  O        -26.8280   57.2360   55.6410 O.2   493  LEU493     -0.2867
     96  CB       -24.0870   55.2910   55.7290 C.3   493  LEU493      0.0270
     97  CG       -25.1440   54.4570   56.4550 C.3   493  LEU493      0.0019
     98  CD1      -26.0820   53.8060   55.4520 C.3   493  LEU493      0.0001
     99  CD2      -24.4760   53.4130   57.3110 C.3   493  LEU493      0.0001
    100  N        -29.5290   57.2640   55.2370 N.3   497  ARG497     -0.1245
    101  CA       -30.4150   56.6030   56.1930 C.3   497  ARG497      0.1563
    102  C        -31.5680   57.5300   56.5780 C.2   497  ARG497      0.2260
    103  O        -32.7100   57.0840   56.6340 O.2   497  ARG497     -0.2867
    104  CB       -29.6790   56.1630   57.4710 C.3   497  ARG497      0.0307
    105  CG       -30.6320   55.5300   58.4940 C.3   497  ARG497      0.0489
    106  CD       -29.9110   54.6820   59.5170 C.3   497  ARG497      0.2205
    107  NE       -29.0370   55.4780   60.3510 N.pl3 497  ARG497     -0.0865
    108  CZ       -27.7160   55.5500   60.2180 C.cat 497  ARG497      0.5346
    109  NH1      -27.0840   54.8660   59.2710 N.pl3 497  ARG497      0.1354
    110  NH2      -27.0280   56.3120   61.0520 N.pl3 497  ARG497      0.1354
    111  N        -34.0710   48.2320   55.7270 N.3   524  TRP524     -0.1241
    112  CA       -32.7190   48.3820   56.2350 C.3   524  TRP524      0.1605
    113  C        -32.5140   49.6890   56.9870 C.2   524  TRP524      0.2264
    114  O        -31.6410   49.7710   57.8530 O.2   524  TRP524     -0.2867
    115  CB       -31.6770   48.3160   55.1050 C.3   524  TRP524      0.0550
    116  CG       -31.8180   49.3740   54.0350 C.ar  524  TRP524      0.0003
    117  CD1      -32.4800   49.2480   52.8540 C.ar  524  TRP524      0.0946
    118  CD2      -31.3420   50.7240   54.0830 C.ar  524  TRP524      0.0152
    119  NE1      -32.4500   50.4310   52.1610 N.ar  524  TRP524     -0.2442
    120  CE2      -31.7580   51.3560   52.8950 C.ar  524  TRP524      0.0810
    121  CE3      -30.6070   51.4580   55.0110 C.ar  524  TRP524      0.0012
    122  CZ2      -31.4730   52.6860   52.6190 C.ar  524  TRP524      0.0191
    123  CZ3      -30.3230   52.7720   54.7360 C.ar  524  TRP524      0.0001
    124  CH2      -30.7500   53.3770   53.5490 C.ar  524  TRP524      0.0015
@<TRIPOS>BOND
     1     9    10    1
     2    84    85    1
     3    91    89    1
     4    87    86    2
     5    85    86    1
     6    85    88    1
     7    72    73    1
     8    78    76    1
     9    73    74    1
    10    73    76    1
    11    10    11    1
    12    10    13    1
    13    75    74    2
    14    14    13    1
    15    14    15    1
    16     1     2    1
    17    74    79   am
    18    76    77    1
    19    11    12    2
    20    11    20   am
    21     3     4    2
    22     3     2    1
    23    89    88    1
    24    89    90    1
    25    22    23    2
    26    22    21    1
    27    20    21    1
    28    15    16    1
    29     2     5    1
    30    34    33    1
    31    82    81    2
    32    81    80    1
    33    79    80    1
    34    21    24    1
    35     5     6    1
    36    61    59   ar
    37    61    62   ar
    38    16    17    2
    39    80    83    1
    40    24    25    1
    41    59    57   ar
    42    63    62    1
    43    27    26    1
    44    33    35    1
    45    33    32    1
    46    64    65    1
    47     6     8    1
    48     6     7    1
    49    62    60   ar
    50    67    66    2
    51    25    26    1
    52    66    65    1
    53    17    18    1
    54    17    19    1
    55    65    68    1
    56    32    29    1
    57    57    56    1
    58    57    58   ar
    59   119   117   ar
    60   119   120   ar
    61    56    53    1
    62    60    58   ar
    63   122   120   ar
    64   122   124   ar
    65   117   116   ar
    66   120   118   ar
    67    68    69    1
    68    68    70    1
    69    29    28    1
    70    29    30    1
    71    53    54    1
    72    53    52    1
    73   124   123   ar
    74    54    55    2
    75    69    71    1
    76   116   118   ar
    77   116   115    1
    78   118   121   ar
    79    30    31    2
    80    30    36   am
    81    92    93    1
    82    52    48   am
    83   123   121   ar
    84    36    37    1
    85    93    96    1
    86    93    94    1
    87   115   112    1
    88   100   101    1
    89    49    48    2
    90    98    97    1
    91    48    47    1
    92    39    38    2
    93    95    94    2
    94   111   112    1
    95    96    97    1
    96    37    38    1
    97    37    40    1
    98    38    46   am
    99   101   102    1
   100   101   104    1
   101   112   113    1
   102    97    99    1
   103   102   103    2
   104    46    47    1
   105    47    50    1
   106   113   114    2
   107    40    41    1
   108   104   105    1
   109    50    51    1
   110    43    41   ar
   111    43    45   ar
   112    41    42   ar
   113   105   106    1
   114    45    44   ar
   115    42    44   ar
   116   109   108    1
   117   106   107    1
   118   108   107    2
   119   108   110    1
