@<TRIPOS>MOLECULE
tmp/4jk4A00.pdb
 131 123 0 0 0
SMALL
GASTEIGER

@<TRIPOS>ATOM
      1  N         85.6100   22.4600   16.8820 N.3   148  TYR148     -0.1241
      2  CA        86.2660   21.7060   15.8210 C.3   148  TYR148      0.1605
      3  C         85.3160   20.5550   15.3250 C.2   148  TYR148      0.2264
      4  O         85.1640   19.5230   16.0070 O.2   148  TYR148     -0.2867
      5  CB        87.5400   21.1120   16.3810 C.3   148  TYR148      0.0534
      6  CG        88.4980   20.5080   15.3900 C.ar  148  TYR148     -0.0201
      7  CD1       88.7190   21.0610   14.1340 C.ar  148  TYR148     -0.0009
      8  CD2       89.1970   19.3680   15.7170 C.ar  148  TYR148     -0.0009
      9  CE1       89.6430   20.4780   13.2420 C.ar  148  TYR148      0.0417
     10  CE2       90.1020   18.7760   14.8340 C.ar  148  TYR148      0.0417
     11  CZ        90.3320   19.3240   13.5950 C.ar  148  TYR148      0.1957
     12  OH        91.2580   18.6920   12.7470 O.3   148  TYR148     -0.2866
     13  N         92.9990   27.9950   18.7760 N.3   197  ARG197     -0.1245
     14  CA        93.4830   27.9170   17.3760 C.3   197  ARG197      0.1563
     15  C         92.8840   29.0230   16.4480 C.2   197  ARG197      0.2260
     16  O         93.5740   29.7410   15.7290 O.2   197  ARG197     -0.2867
     17  CB        93.0960   26.5500   16.8040 C.3   197  ARG197      0.0307
     18  CG        93.8360   25.3250   17.3850 C.3   197  ARG197      0.0489
     19  CD        93.6490   24.1220   16.3980 C.3   197  ARG197      0.2205
     20  NE        94.3180   22.9380   16.9400 N.pl3 197  ARG197     -0.0865
     21  CZ        93.7410   22.0440   17.7250 C.cat 197  ARG197      0.5346
     22  NH1       92.4510   22.1250   17.9490 N.pl3 197  ARG197      0.1354
     23  NH2       94.4410   21.0360   18.2170 N.pl3 197  ARG197      0.1354
     24  N        104.4400   21.0270   18.4880 N.3   216  ARG216     -0.1231
     25  CA       103.6740   19.8270   18.8360 C.3   216  ARG216      0.1694
     26  C        104.1580   18.5140   18.0940 C.2   216  ARG216      0.2591
     27  O        104.4650   17.4730   18.7220 O.2   216  ARG216     -0.2718
     28  CB       102.2210   20.0950   18.4960 C.3   216  ARG216      0.0321
     29  CG       101.3020   20.4870   19.6300 C.3   216  ARG216      0.0489
     30  CD        99.8040   20.5360   19.1960 C.3   216  ARG216      0.2205
     31  NE        99.3850   19.1700   18.8220 N.pl3 216  ARG216     -0.0865
     32  CZ        98.8770   18.8100   17.6350 C.cat 216  ARG216      0.5346
     33  NH1       98.6590   19.7170   16.6720 N.pl3 216  ARG216      0.1354
     34  NH2       98.5710   17.5420   17.4410 N.pl3 216  ARG216      0.1354
     35  N        104.3090   18.5900   16.7800 N.am  217  LEU217     -0.1980
     36  CA       104.5660   17.3950   15.9660 C.3   217  LEU217      0.1596
     37  C        106.0190   17.0150   16.1290 C.2   217  LEU217      0.2287
     38  O        106.4210   15.8570   15.9530 O.2   217  LEU217     -0.2864
     39  CB       104.2850   17.6460   14.4250 C.3   217  LEU217      0.0297
     40  CG       102.9220   18.1590   13.8960 C.3   217  LEU217      0.0022
     41  CD1      102.5280   17.4730   12.6850 C.3   217  LEU217      0.0001
     42  CD2      101.7780   18.0060   14.8780 C.3   217  LEU217      0.0001
     43  N        105.8020   14.8660   19.0680 N.3   220  LYS220     -0.1231
     44  CA       105.2840   13.5110   18.8760 C.3   220  LYS220      0.1693
     45  C        106.1060   12.6530   17.8950 C.2   220  LYS220      0.2592
     46  O        106.1730   11.4340   18.0180 O.2   220  LYS220     -0.2718
     47  CB       103.8260   13.5810   18.4340 C.3   220  LYS220      0.0285
     48  CG       102.9730   14.0450   19.6040 C.3   220  LYS220      0.0035
     49  CD       101.6670   14.7490   19.1980 C.3   220  LYS220      0.0206
     50  CE       100.7630   13.9720   18.2250 C.3   220  LYS220      0.1093
     51  NZ        99.6410   14.8510   17.6690 N.3   220  LYS220     -0.1314
     52  N        106.7370   13.2990   16.9230 N.am  221  PHE221     -0.1976
     53  CA       107.3580   12.5630   15.8370 C.3   221  PHE221      0.1639
     54  C        108.8500   12.8480   15.7500 C.2   221  PHE221      0.2290
     55  O        109.3800   13.1680   14.6800 O.2   221  PHE221     -0.2864
     56  CB       106.6700   12.8690   14.4950 C.3   221  PHE221      0.0560
     57  CG       105.1780   12.6890   14.5170 C.ar  221  PHE221     -0.0200
     58  CD1      104.5990   11.6700   15.2440 C.ar  221  PHE221     -0.0042
     59  CD2      104.3440   13.4900   13.7420 C.ar  221  PHE221     -0.0042
     60  CE1      103.1890   11.4720   15.2470 C.ar  221  PHE221     -0.0003
     61  CE2      102.9220   13.2940   13.7440 C.ar  221  PHE221     -0.0003
     62  CZ       102.3570   12.2840   14.5290 C.ar  221  PHE221     -0.0000
     63  N         97.8050   20.2620    8.0280 N.3   236  LEU236     -0.1301
     64  CA        97.0720   20.3600    9.3010 C.3   236  LEU236      0.1247
     65  C         96.6660   21.8060    9.6000 C.3   236  LEU236      0.2009
     66  O         95.4980   22.1320   10.0780 O.3   236  LEU236     -0.2188
     67  CB        97.9710   19.8430   10.4410 C.3   236  LEU236      0.0217
     68  CG        97.2930   20.0240   11.7840 C.3   236  LEU236      0.0015
     69  CD1       95.9270   19.2740   11.7740 C.3   236  LEU236      0.0000
     70  CD2       98.2250   19.5010   12.8590 C.3   236  LEU236      0.0000
     71  N         92.8730   23.5360    9.9980 N.3   240  HIS240     -0.1241
     72  CA        92.3600   24.4780   11.0180 C.3   240  HIS240      0.1621
     73  C         91.8180   25.7490   10.4370 C.2   240  HIS240      0.2264
     74  O         90.7290   26.1770   10.7900 O.2   240  HIS240     -0.2867
     75  CB        93.3600   24.7380   12.1310 C.3   240  HIS240      0.0745
     76  CG        93.6540   23.5130   12.9290 C.ar  240  HIS240      0.0817
     77  ND1       94.9300   23.0200   13.0870 N.ar  240  HIS240     -0.2268
     78  CD2       92.8250   22.6330   13.5390 C.ar  240  HIS240      0.1154
     79  CE1       94.8850   21.9010   13.8040 C.ar  240  HIS240      0.1986
     80  NE2       93.6170   21.6390   14.0740 N.ar  240  HIS240     -0.2212
     81  N         90.9200   16.9080    6.3830 N.3   255  ARG255     -0.1245
     82  CA        91.3740   16.1700    7.5340 C.3   255  ARG255      0.1563
     83  C         91.4300   14.6940    7.2720 C.2   255  ARG255      0.2260
     84  O         92.4230   14.0220    7.6630 O.2   255  ARG255     -0.2867
     85  CB        90.4860   16.4370    8.7210 C.3   255  ARG255      0.0307
     86  CG        91.1140   15.9240    9.9870 C.3   255  ARG255      0.0489
     87  CD        90.0560   15.7980   11.0550 C.3   255  ARG255      0.2205
     88  NE        90.6290   15.6330   12.3790 N.pl3 255  ARG255     -0.0865
     89  CZ        89.9650   15.1790   13.4310 C.cat 255  ARG255      0.5346
     90  NH1       88.6860   14.8380   13.2910 N.pl3 255  ARG255      0.1354
     91  NH2       90.5810   15.0860   14.6120 N.pl3 255  ARG255      0.1354
     92  N         94.4300   14.0410    5.3940 N.3   258  LEU258     -0.1231
     93  CA        95.6440   14.0450    6.2020 C.3   258  LEU258      0.1693
     94  C         95.8000   12.6890    6.8970 C.2   258  LEU258      0.2591
     95  O         96.9170   12.1910    7.0840 O.2   258  LEU258     -0.2718
     96  CB        95.5870   15.1670    7.2480 C.3   258  LEU258      0.0284
     97  CG        96.8300   15.2670    8.1070 C.3   258  LEU258      0.0019
     98  CD1       98.1030   15.4240    7.2690 C.3   258  LEU258      0.0001
     99  CD2       96.6630   16.3930    9.1080 C.3   258  LEU258      0.0001
    100  N         94.6910   12.1450    7.3700 N.am  259  ALA259     -0.1980
    101  CA        94.8450   10.9790    8.1810 C.3   259  ALA259      0.1597
    102  C         95.2550    9.8810    7.1630 C.2   259  ALA259      0.2287
    103  O         96.1710    9.0500    7.4270 O.2   259  ALA259     -0.2864
    104  CB        93.5470   10.6490    9.0150 C.3   259  ALA259      0.0319
    105  N         98.9750   10.1980    6.6120 N.3   262  ILE262     -0.1245
    106  CA        99.7350    9.7450    7.7390 C.3   262  ILE262      0.1561
    107  C         99.7140    8.1920    7.8680 C.2   262  ILE262      0.2260
    108  O        100.7620    7.4910    7.9480 O.2   262  ILE262     -0.2867
    109  CB        99.2870   10.5060    9.0800 C.3   262  ILE262      0.0252
    110  CG1       99.7950   11.9480    9.0340 C.3   262  ILE262      0.0019
    111  CG2       99.8340    9.8570   10.2360 C.3   262  ILE262      0.0019
    112  CD1       99.1110   12.8870    9.9850 C.3   262  ILE262      0.0001
    113  N         91.2980    9.5950   13.1120 N.3   285  SER285     -0.1217
    114  CA        91.8590   10.9590   13.1430 C.3   285  SER285      0.1889
    115  C         92.0620   11.4000   14.5900 C.2   285  SER285      0.2288
    116  O         93.1230   11.9230   14.9650 O.2   285  SER285     -0.2866
    117  CB        90.9320   11.9040   12.4080 C.3   285  SER285      0.2089
    118  OG        90.6910   11.3670   11.1090 O.3   285  SER285     -0.2183
    119  N         95.0240    9.5390   16.0270 N.3   288  ILE288     -0.1231
    120  CA        96.1930   10.2050   15.5030 C.3   288  ILE288      0.1692
    121  C         96.5020   11.5280   16.2580 C.2   288  ILE288      0.2591
    122  O         97.6720   11.8000   16.5810 O.2   288  ILE288     -0.2718
    123  CB        95.9760   10.5070   13.9840 C.3   288  ILE288      0.0266
    124  CG1       96.0840    9.2060   13.1950 C.3   288  ILE288      0.0019
    125  CG2       97.0120   11.4100   13.4450 C.3   288  ILE288      0.0020
    126  CD1       95.8060    9.4010   11.7250 C.3   288  ILE288      0.0001
    127  N         95.4670   12.2960   16.6120 N.am  289  ALA289     -0.1980
    128  CA        95.6510   13.5280   17.3920 C.3   289  ALA289      0.1597
    129  C         96.3420   13.2500   18.7070 C.2   289  ALA289      0.2287
    130  O         97.3220   13.9260   18.9970 O.2   289  ALA289     -0.2864
    131  CB        94.3160   14.2410   17.6760 C.3   289  ALA289      0.0319
@<TRIPOS>BOND
     1    92    93    1
     2    93    94    1
     3    93    96    1
     4    81    82    1
     5   105   106    1
     6    94    95    2
     7    94   100   am
     8   102   103    2
     9   102   101    1
    10    96    97    1
    11    98    97    1
    12    83    82    1
    13    83    84    2
    14   100   101    1
    15    82    85    1
    16   106   107    1
    17   106   109    1
    18   107   108    2
    19    63    64    1
    20    97    99    1
    21   101   104    1
    22    85    86    1
    23   110   109    1
    24   110   112    1
    25   109   111    1
    26    64    65    1
    27    64    67    1
    28    65    66    1
    29    86    87    1
    30    71    72    1
    31    73    74    2
    32    73    72    1
    33    67    68    1
    34    72    75    1
    35    87    88    1
    36   118   117    1
    37   126   124    1
    38    69    68    1
    39    68    70    1
    40    75    76    1
    41    88    89    2
    42   117   114    1
    43    41    40    1
    44    12    11    1
    45    76    77   ar
    46    76    78   ar
    47    77    79   ar
    48   113   114    1
    49   114   115    1
    50   124   123    1
    51     9    11   ar
    52     9     7   ar
    53    90    89    1
    54    89    91    1
    55   125   123    1
    56    78    80   ar
    57    11    10   ar
    58    59    61   ar
    59    59    57   ar
    60    61    62   ar
    61    79    80   ar
    62    40    39    1
    63    40    42    1
    64   123   120    1
    65     7     6   ar
    66    39    36    1
    67    56    57    1
    68    56    53    1
    69    57    58   ar
    70    62    60   ar
    71   115   116    2
    72    55    54    2
    73    10     8   ar
    74    58    60   ar
    75     3     2    1
    76     3     4    2
    77     6     8   ar
    78     6     5    1
    79   120   119    1
    80   120   121    1
    81    16    15    2
    82    54    53    1
    83     2     5    1
    84     2     1    1
    85    53    52    1
    86    38    37    2
    87    36    37    1
    88    36    35    1
    89   121   122    2
    90   121   127   am
    91    19    20    1
    92    19    18    1
    93    15    14    1
    94   127   128    1
    95    33    32    1
    96    35    26   am
    97    17    14    1
    98    17    18    1
    99    52    45   am
   100    20    21    2
   101    14    13    1
   102   128   131    1
   103   128   129    1
   104    34    32    1
   105    32    31    2
   106    51    50    1
   107    21    22    1
   108    21    23    1
   109    45    46    2
   110    45    44    1
   111    26    27    2
   112    26    25    1
   113    50    49    1
   114    47    44    1
   115    47    48    1
   116    24    25    1
   117    28    25    1
   118    28    29    1
   119   129   130    2
   120    31    30    1
   121    44    43    1
   122    30    29    1
   123    49    48    1
