@<TRIPOS>MOLECULE
tmp/4jk4A03.pdb
 120 113 0 0 0
SMALL
GASTEIGER

@<TRIPOS>ATOM
      1  N         90.4410   24.4720   23.1480 N.3   193  ARG193     -0.1245
      2  CA        91.5820   24.3450   22.2460 C.3   193  ARG193      0.1563
      3  C         91.2950   24.8630   20.8400 C.2   193  ARG193      0.2260
      4  O         92.0830   25.6190   20.2900 O.2   193  ARG193     -0.2867
      5  CB        92.0060   22.8710   22.2040 C.3   193  ARG193      0.0307
      6  CG        93.3390   22.5860   21.5400 C.3   193  ARG193      0.0489
      7  CD        93.6680   21.0570   21.6760 C.3   193  ARG193      0.2205
      8  NE        93.3900   20.5420   23.0190 N.pl3 193  ARG193     -0.0865
      9  CZ        94.2140   20.6490   24.0710 C.cat 193  ARG193      0.5346
     10  NH1       95.4430   21.2220   23.9750 N.pl3 193  ARG193      0.1354
     11  NH2       93.8090   20.1700   25.2470 N.pl3 193  ARG193      0.1354
     12  N         91.1790   28.6180   20.8760 N.3   196  LEU196     -0.1231
     13  CA        92.4950   29.1840   20.8540 C.3   196  LEU196      0.1693
     14  C         93.0720   29.1260   19.4710 C.2   196  LEU196      0.2591
     15  O         93.6270   30.0910   19.0400 O.2   196  LEU196     -0.2718
     16  CB        93.4230   28.4940   21.8800 C.3   196  LEU196      0.0284
     17  CG        94.9170   28.8860   21.9630 C.3   196  LEU196      0.0019
     18  CD1       95.1260   30.3230   21.6970 C.3   196  LEU196      0.0001
     19  CD2       95.4160   28.6330   23.3450 C.3   196  LEU196      0.0001
     20  N         92.9990   27.9950   18.7760 N.am  197  ARG197     -0.1980
     21  CA        93.4830   27.9170   17.3760 C.3   197  ARG197      0.1597
     22  C         92.8840   29.0230   16.4480 C.2   197  ARG197      0.2287
     23  O         93.5740   29.7410   15.7290 O.2   197  ARG197     -0.2864
     24  CB        93.0960   26.5500   16.8040 C.3   197  ARG197      0.0334
     25  CG        93.8360   25.3250   17.3850 C.3   197  ARG197      0.0492
     26  CD        93.6490   24.1220   16.3980 C.3   197  ARG197      0.2205
     27  NE        94.3180   22.9380   16.9400 N.pl3 197  ARG197     -0.0865
     28  CZ        93.7410   22.0440   17.7250 C.cat 197  ARG197      0.5346
     29  NH1       92.4510   22.1250   17.9490 N.pl3 197  ARG197      0.1354
     30  NH2       94.4410   21.0360   18.2170 N.pl3 197  ARG197      0.1354
     31  N         93.9240   32.4630   17.5570 N.3   200  SER200     -0.1217
     32  CA        95.3050   32.7380   17.2320 C.3   200  SER200      0.1889
     33  C         95.3680   33.0620   15.7410 C.2   200  SER200      0.2288
     34  O         95.9080   34.0800   15.3690 O.2   200  SER200     -0.2866
     35  CB        96.2400   31.5870   17.5890 C.3   200  SER200      0.2089
     36  OG        96.4370   30.6550   16.5260 O.3   200  SER200     -0.2183
     37  N        101.4910   31.7700   13.5790 N.3   208  ALA208     -0.1231
     38  CA       101.5160   31.3470   14.9710 C.3   208  ALA208      0.1694
     39  C        101.0160   29.8930   15.1580 C.2   208  ALA208      0.2591
     40  O        101.6570   29.0470   15.8250 O.2   208  ALA208     -0.2718
     41  CB       100.6830   32.3210   15.8280 C.3   208  ALA208      0.0304
     42  N         99.8680   29.6100   14.5550 N.am  209  LEU209     -0.1980
     43  CA        99.3570   28.2750   14.5600 C.3   209  LEU209      0.1596
     44  C        100.3960   27.3240   13.9460 C.2   209  LEU209      0.2287
     45  O        100.6580   26.2440   14.4930 O.2   209  LEU209     -0.2864
     46  CB        98.0620   28.2320   13.7920 C.3   209  LEU209      0.0297
     47  CG        97.4290   26.8710   13.8580 C.3   209  LEU209      0.0022
     48  CD1       97.4970   26.3740   15.2770 C.3   209  LEU209      0.0001
     49  CD2       95.9690   26.9830   13.4440 C.3   209  LEU209      0.0001
     50  N        103.1930   26.6910   16.4970 N.3   212  TRP212     -0.1227
     51  CA       102.7100   25.8180   17.5090 C.3   212  TRP212      0.1737
     52  C        102.7600   24.3890   16.9360 C.2   212  TRP212      0.2596
     53  O        103.2750   23.4560   17.5750 O.2   212  TRP212     -0.2718
     54  CB       101.2810   26.2320   17.9550 C.3   212  TRP212      0.0564
     55  CG       100.8020   25.4090   19.1570 C.ar  212  TRP212      0.0003
     56  CD1      100.4180   24.0970   19.1340 C.ar  212  TRP212      0.0946
     57  CD2      100.6750   25.8410   20.5100 C.ar  212  TRP212      0.0152
     58  NE1      100.0830   23.6750   20.4020 N.ar  212  TRP212     -0.2442
     59  CE2      100.2350   24.7250   21.2690 C.ar  212  TRP212      0.0810
     60  CE3      100.9200   27.0390   21.1610 C.ar  212  TRP212      0.0012
     61  CZ2      100.0510   24.7700   22.6850 C.ar  212  TRP212      0.0191
     62  CZ3      100.7020   27.1100   22.5830 C.ar  212  TRP212      0.0001
     63  CH2      100.2610   25.9670   23.3200 C.ar  212  TRP212      0.0015
     64  N        102.2960   24.2240   15.7100 N.am  213  SER213     -0.1952
     65  CA       102.2010   22.8970   15.1560 C.3   213  SER213      0.1924
     66  C        103.5480   22.2060   14.9590 C.2   213  SER213      0.2314
     67  O        103.7120   20.9930   15.2610 O.2   213  SER213     -0.2863
     68  CB       101.3640   22.9360   13.8940 C.3   213  SER213      0.2116
     69  OG       100.0070   23.1910   14.2700 O.3   213  SER213     -0.2180
     70  N        104.4400   21.0270   18.4880 N.3   216  ARG216     -0.1245
     71  CA       103.6740   19.8270   18.8360 C.3   216  ARG216      0.1563
     72  C        104.1580   18.5140   18.0940 C.2   216  ARG216      0.2260
     73  O        104.4650   17.4730   18.7220 O.2   216  ARG216     -0.2867
     74  CB       102.2210   20.0950   18.4960 C.3   216  ARG216      0.0307
     75  CG       101.3020   20.4870   19.6300 C.3   216  ARG216      0.0489
     76  CD        99.8040   20.5360   19.1960 C.3   216  ARG216      0.2205
     77  NE        99.3850   19.1700   18.8220 N.pl3 216  ARG216     -0.0865
     78  CZ        98.8770   18.8100   17.6350 C.cat 216  ARG216      0.5346
     79  NH1       98.6590   19.7170   16.6720 N.pl3 216  ARG216      0.1354
     80  NH2       98.5710   17.5420   17.4410 N.pl3 216  ARG216      0.1354
     81  N         92.8730   23.5360    9.9980 N.3   240  HIS240     -0.1241
     82  CA        92.3600   24.4780   11.0180 C.3   240  HIS240      0.1621
     83  C         91.8180   25.7490   10.4370 C.2   240  HIS240      0.2264
     84  O         90.7290   26.1770   10.7900 O.2   240  HIS240     -0.2867
     85  CB        93.3600   24.7380   12.1310 C.3   240  HIS240      0.0745
     86  CG        93.6540   23.5130   12.9290 C.ar  240  HIS240      0.0817
     87  ND1       94.9300   23.0200   13.0870 N.ar  240  HIS240     -0.2268
     88  CD2       92.8250   22.6330   13.5390 C.ar  240  HIS240      0.1154
     89  CE1       94.8850   21.9010   13.8040 C.ar  240  HIS240      0.1986
     90  NE2       93.6170   21.6390   14.0740 N.ar  240  HIS240     -0.2212
     91  N         99.8590   24.3580   28.9890 N.3   449  ASP449     -0.1239
     92  CA        98.9470   24.2120   27.8440 C.3   449  ASP449      0.1674
     93  C         97.5110   24.5460   28.3300 C.2   449  ASP449      0.2266
     94  O         96.7410   25.2740   27.6890 O.2   449  ASP449     -0.2867
     95  CB        99.1090   22.8250   27.1630 C.3   449  ASP449      0.1410
     96  CG       100.4650   22.6960   26.3480 C.2   449  ASP449      0.3668
     97  OD1      101.3200   23.6340   26.3540 O.co2 449  ASP449     -0.2456
     98  OD2      100.6850   21.6320   25.7060 O.co2 449  ASP449     -0.2456
     99  N         97.0190   28.4570   28.7820 N.3   452  SER452     -0.1202
    100  CA        96.8690   29.1970   27.5230 C.3   452  SER452      0.2020
    101  C         95.4260   29.1540   27.1780 C.2   452  SER452      0.2618
    102  O         94.8330   30.1900   26.8890 O.2   452  SER452     -0.2717
    103  CB        97.6230   28.5120   26.3840 C.3   452  SER452      0.2103
    104  OG        99.0210   28.7260   26.5530 O.3   452  SER452     -0.2182
    105  N         94.8620   27.9490   27.2940 N.am  453  LEU453     -0.1979
    106  CA        93.4590   27.6970   27.0040 C.3   453  LEU453      0.1596
    107  C         92.5020   28.5850   27.7630 C.2   453  LEU453      0.2287
    108  O         91.6630   29.2760   27.1230 O.2   453  LEU453     -0.2864
    109  CB        93.1360   26.2480   27.3170 C.3   453  LEU453      0.0297
    110  CG        93.5780   25.2770   26.2400 C.3   453  LEU453      0.0022
    111  CD1       93.3770   23.8750   26.6910 C.3   453  LEU453      0.0001
    112  CD2       92.6680   25.6030   25.1400 C.3   453  LEU453      0.0001
    113  N        101.0090   36.4070   21.6290 N.3   479  LEU479     -0.1245
    114  CA       100.1660   35.2860   21.9260 C.3   479  LEU479      0.1561
    115  C        100.8900   34.3200   22.8810 C.2   479  LEU479      0.2260
    116  O        100.2650   33.6860   23.7510 O.2   479  LEU479     -0.2867
    117  CB        99.7370   34.6380   20.6050 C.3   479  LEU479      0.0270
    118  CG        99.2930   33.2000   20.7370 C.3   479  LEU479      0.0019
    119  CD1       98.0580   33.0660   21.6350 C.3   479  LEU479      0.0001
    120  CD2       99.0520   32.7420   19.3280 C.3   479  LEU479      0.0001
@<TRIPOS>BOND
     1    81    82    1
     2    83    84    2
     3    83    82    1
     4    82    85    1
     5    85    86    1
     6    86    87   ar
     7    86    88   ar
     8    87    89   ar
     9    49    47    1
    10    88    90   ar
    11    37    38    1
    12    46    47    1
    13    46    43    1
    14    89    90   ar
    15    47    48    1
    16    68    69    1
    17    68    65    1
    18    44    45    2
    19    44    43    1
    20    42    43    1
    21    42    39   am
    22    66    65    1
    23    66    67    2
    24    38    39    1
    25    38    41    1
    26    65    64    1
    27    39    40    2
    28    34    33    2
    29    64    52   am
    30    23    22    2
    31    33    32    1
    32    26    27    1
    33    26    25    1
    34    22    21    1
    35    50    51    1
    36    36    35    1
    37    79    78    1
    38    24    21    1
    39    24    25    1
    40    52    51    1
    41    52    53    2
    42    27    28    2
    43    32    31    1
    44    32    35    1
    45    21    20    1
    46    80    78    1
    47    51    54    1
    48    78    77    2
    49    28    29    1
    50    28    30    1
    51    54    55    1
    52    72    73    2
    53    72    71    1
    54    70    71    1
    55    74    71    1
    56    74    75    1
    57    20    14   am
    58    77    76    1
    59    15    14    2
    60    56    55   ar
    61    56    58   ar
    62    55    57   ar
    63    76    75    1
    64   120   118    1
    65    14    13    1
    66     4     3    2
    67    58    59   ar
    68    57    60   ar
    69    57    59   ar
    70   117   118    1
    71   117   114    1
    72   118   119    1
    73     3     2    1
    74    13    12    1
    75    13    16    1
    76    60    62   ar
    77    59    61   ar
    78     6     7    1
    79     6     5    1
    80   113   114    1
    81     7     8    1
    82    18    17    1
    83    16    17    1
    84   114   115    1
    85    17    19    1
    86     5     2    1
    87     2     1    1
    88    62    63   ar
    89    61    63   ar
    90   115   116    2
    91     8     9    2
    92    10     9    1
    93     9    11    1
    94   112   110    1
    95    98    96   ar
    96   110   111    1
    97   110   109    1
    98    96    97   ar
    99    96    95    1
   100   103   104    1
   101   103   100    1
   102   102   101    2
   103   106   105    1
   104   106   109    1
   105   106   107    1
   106   108   107    2
   107    95    92    1
   108   101   105   am
   109   101   100    1
   110   100    99    1
   111    94    93    2
   112    92    93    1
   113    92    91    1
