@<TRIPOS>MOLECULE
tmp/4jk4A05.pdb
 128 118 0 0 0
SMALL
GASTEIGER

@<TRIPOS>ATOM
      1  N         96.9640   36.7120   14.9930 N.3   204  PHE204     -0.1241
      2  CA        98.4300   36.7020   15.0090 C.3   204  PHE204      0.1605
      3  C         99.0210   36.1100   13.8070 C.2   204  PHE204      0.2264
      4  O        100.2620   36.0370   13.6620 O.2   204  PHE204     -0.2867
      5  CB        98.9160   35.9500   16.1800 C.3   204  PHE204      0.0534
      6  CG        98.5490   36.6070   17.4760 C.ar  204  PHE204     -0.0203
      7  CD1       99.5050   37.4050   18.1590 C.ar  204  PHE204     -0.0042
      8  CD2       97.2730   36.4210   18.0470 C.ar  204  PHE204     -0.0042
      9  CE1       99.1980   38.0080   19.3570 C.ar  204  PHE204     -0.0003
     10  CE2       96.9530   37.0480   19.2760 C.ar  204  PHE204     -0.0003
     11  CZ        97.9280   37.8430   19.9240 C.ar  204  PHE204     -0.0000
     12  N        100.9550   32.0800   10.8360 N.3   207  ARG207     -0.1231
     13  CA       102.3070   31.7850   11.2430 C.3   207  ARG207      0.1694
     14  C        102.3610   31.2780   12.7090 C.2   207  ARG207      0.2591
     15  O        103.2020   30.4500   13.0430 O.2   207  ARG207     -0.2718
     16  CB       103.2060   33.0210   11.0290 C.3   207  ARG207      0.0321
     17  CG       104.6130   32.9160   11.6550 C.3   207  ARG207      0.0489
     18  CD       105.1060   34.2750   12.1710 C.3   207  ARG207      0.2205
     19  NE       106.4740   34.2290   12.6860 N.pl3 207  ARG207     -0.0865
     20  CZ       107.5510   34.5900   11.9910 C.cat 207  ARG207      0.5346
     21  NH1      108.7470   34.5110   12.5600 N.pl3 207  ARG207      0.1354
     22  NH2      107.4410   35.0340   10.7330 N.pl3 207  ARG207      0.1354
     23  N        101.4910   31.7700   13.5790 N.am  208  ALA208     -0.1980
     24  CA       101.5160   31.3470   14.9710 C.3   208  ALA208      0.1597
     25  C        101.0160   29.8930   15.1580 C.2   208  ALA208      0.2287
     26  O        101.6570   29.0470   15.8250 O.2   208  ALA208     -0.2864
     27  CB       100.6830   32.3210   15.8280 C.3   208  ALA208      0.0319
     28  N        101.0290   27.7380   12.8490 N.3   210  LYS210     -0.1231
     29  CA       102.1250   26.9660   12.2660 C.3   210  LYS210      0.1693
     30  C        103.2810   26.6680   13.2570 C.2   210  LYS210      0.2591
     31  O        103.7390   25.4920   13.3960 O.2   210  LYS210     -0.2718
     32  CB       102.6750   27.6370   11.0160 C.3   210  LYS210      0.0285
     33  CG       101.8390   27.3850    9.8210 C.3   210  LYS210      0.0035
     34  CD       102.7180   27.3390    8.6150 C.3   210  LYS210      0.0206
     35  CE       101.8730   27.4130    7.3510 C.3   210  LYS210      0.1093
     36  NZ       101.5880   28.8660    7.0270 N.3   210  LYS210     -0.1314
     37  N        103.7690   27.7240   13.9100 N.am  211  ALA211     -0.1980
     38  CA       104.8310   27.5360   14.8900 C.3   211  ALA211      0.1597
     39  C        104.4080   26.5080   15.9930 C.2   211  ALA211      0.2287
     40  O        105.1560   25.5630   16.3600 O.2   211  ALA211     -0.2864
     41  CB       105.2530   28.9140   15.5020 C.3   211  ALA211      0.0319
     42  N        104.5310   22.9630   14.4990 N.3   214  VAL214     -0.1245
     43  CA       105.8910   22.4570   14.3820 C.3   214  VAL214      0.1561
     44  C        106.3110   21.9610   15.7680 C.2   214  VAL214      0.2260
     45  O        106.8330   20.8390   15.9090 O.2   214  VAL214     -0.2867
     46  CB       106.8620   23.5440   13.8730 C.3   214  VAL214      0.0252
     47  CG1      108.3060   23.0010   13.7910 C.3   214  VAL214      0.0019
     48  CG2      106.4200   24.0820   12.5440 C.3   214  VAL214      0.0019
     49  N        113.0860   32.0880    8.0460 N.3   322  ASP322     -0.1239
     50  CA       111.9730   31.2880    8.4500 C.3   322  ASP322      0.1674
     51  C        112.3770   29.8320    8.5220 C.2   322  ASP322      0.2266
     52  O        111.9990   29.1440    9.4300 O.2   322  ASP322     -0.2867
     53  CB       110.7980   31.5110    7.5010 C.3   322  ASP322      0.1410
     54  CG       111.2260   31.4440    6.0470 C.2   322  ASP322      0.3668
     55  OD1      112.4130   31.7350    5.7650 O.co2 322  ASP322     -0.2456
     56  OD2      110.3930   31.0840    5.1880 O.co2 322  ASP322     -0.2456
     57  N        114.7680   29.3680   11.5160 N.3   325  LEU325     -0.1231
     58  CA       114.1070   29.4860   12.7820 C.3   325  LEU325      0.1693
     59  C        113.1690   28.3070   12.9950 C.2   325  LEU325      0.2592
     60  O        112.9910   27.8130   14.1560 O.2   325  LEU325     -0.2718
     61  CB       113.3370   30.8070   12.8090 C.3   325  LEU325      0.0284
     62  CG       113.6380   31.7300   13.9900 C.3   325  LEU325      0.0019
     63  CD1      114.9710   31.3550   14.6430 C.3   325  LEU325      0.0001
     64  CD2      113.6460   33.1820   13.5880 C.3   325  LEU325      0.0001
     65  N        112.6000   27.8220   11.8740 N.am  326  GLY326     -0.1957
     66  CA       111.6690   26.6790   11.8780 C.3   326  GLY326      0.1869
     67  C        112.4730   25.4910   12.3540 C.2   326  GLY326      0.2309
     68  O        112.0940   24.7810   13.2580 O.2   326  GLY326     -0.2863
     69  N        113.2000   25.6680   16.0890 N.3   329  LEU329     -0.1245
     70  CA       112.0460   25.1830   16.8700 C.3   329  LEU329      0.1561
     71  C        111.8250   23.6280   16.7640 C.2   329  LEU329      0.2260
     72  O        111.5550   22.9210   17.7660 O.2   329  LEU329     -0.2867
     73  CB       110.8040   25.9600   16.4570 C.3   329  LEU329      0.0270
     74  CG       109.5950   25.4680   17.2200 C.3   329  LEU329      0.0019
     75  CD1      109.7460   25.6670   18.7100 C.3   329  LEU329      0.0001
     76  CD2      108.3210   26.1380   16.7330 C.3   329  LEU329      0.0001
     77  N        107.9000   27.6420   22.1450 N.3   345  LEU345     -0.1245
     78  CA       107.7650   28.8610   21.3700 C.3   345  LEU345      0.1561
     79  C        108.4420   30.0340   22.1120 C.2   345  LEU345      0.2260
     80  O        109.1280   30.8120   21.4390 O.2   345  LEU345     -0.2867
     81  CB       106.2980   29.1200   21.1310 C.3   345  LEU345      0.0270
     82  CG       105.7280   28.1810   20.0610 C.3   345  LEU345      0.0019
     83  CD1      104.2870   27.9130   20.4030 C.3   345  LEU345      0.0001
     84  CD2      105.7550   28.8940   18.7430 C.3   345  LEU345      0.0001
     85  N        112.0850   29.7800   21.3700 N.3   348  ALA348     -0.1231
     86  CA       112.3130   30.1360   19.9660 C.3   348  ALA348      0.1694
     87  C        112.2350   31.6660   19.6980 C.2   348  ALA348      0.2591
     88  O        113.0470   32.2340   18.9600 O.2   348  ALA348     -0.2718
     89  CB       111.3560   29.3430   19.0390 C.3   348  ALA348      0.0304
     90  N        111.2680   32.3430   20.2980 N.am  349  LYS349     -0.1980
     91  CA       111.1100   33.7860   20.1060 C.3   349  LYS349      0.1596
     92  C        112.3020   34.5170   20.7330 C.2   349  LYS349      0.2287
     93  O        112.8540   35.4810   20.1560 O.2   349  LYS349     -0.2864
     94  CB       109.7700   34.2690   20.6680 C.3   349  LYS349      0.0298
     95  CG       109.2780   35.5050   19.9530 C.3   349  LYS349      0.0038
     96  CD       107.7390   35.6770   19.8970 C.3   349  LYS349      0.0206
     97  CE       107.4040   37.1790   19.7810 C.3   349  LYS349      0.1093
     98  NZ       108.3950   37.9450   18.8980 N.3   349  LYS349     -0.1314
     99  N        115.0580   34.2620   18.2980 N.3   352  GLU352     -0.1245
    100  CA       114.9290   35.2050   17.1960 C.3   352  GLU352      0.1567
    101  C        115.3910   36.5780   17.6170 C.2   352  GLU352      0.2260
    102  O        116.2090   37.1460   16.9380 O.2   352  GLU352     -0.2867
    103  CB       113.4920   35.2700   16.6530 C.3   352  GLU352      0.0388
    104  CG       113.3240   36.1650   15.4030 C.3   352  GLU352      0.1160
    105  CD       111.9020   36.1530   14.8070 C.2   352  GLU352      0.3649
    106  OE1      110.8940   36.0440   15.5530 O.co2 352  GLU352     -0.2457
    107  OE2      111.8070   36.1970   13.5520 O.co2 352  GLU352     -0.2457
    108  N        101.6740   39.5880   22.7980 N.3   478  SER478     -0.1202
    109  CA       102.1840   38.3970   22.1320 C.3   478  SER478      0.2020
    110  C        101.3480   37.2540   22.5850 C.2   478  SER478      0.2619
    111  O        101.0820   37.0970   23.8000 O.2   478  SER478     -0.2717
    112  CB       103.5720   38.0390   22.5830 C.3   478  SER478      0.2103
    113  OG       103.3870   37.3190   23.7940 O.3   478  SER478     -0.2182
    114  N        101.0090   36.4070   21.6290 N.am  479  LEU479     -0.1965
    115  CA       100.1660   35.2860   21.9260 C.3   479  LEU479      0.1728
    116  C        100.8900   34.3200   22.8810 C.2   479  LEU479      0.2616
    117  O        100.2650   33.6860   23.7510 O.2   479  LEU479     -0.2715
    118  CB        99.7370   34.6380   20.6050 C.3   479  LEU479      0.0311
    119  CG        99.2930   33.2000   20.7370 C.3   479  LEU479      0.0022
    120  CD1       98.0580   33.0660   21.6350 C.3   479  LEU479      0.0001
    121  CD2       99.0520   32.7420   19.3280 C.3   479  LEU479      0.0001
    122  N        102.2090   34.2630   22.7890 N.am  480  VAL480     -0.1977
    123  CA       102.8950   33.2360   23.5360 C.3   480  VAL480      0.1596
    124  C        103.2690   33.6740   24.9840 C.2   480  VAL480      0.2287
    125  O        103.5190   32.8440   25.8650 O.2   480  VAL480     -0.2864
    126  CB       104.0690   32.7040   22.6980 C.3   480  VAL480      0.0276
    127  CG1      105.0900   33.8080   22.4460 C.3   480  VAL480      0.0022
    128  CG2      104.6820   31.4440   23.3420 C.3   480  VAL480      0.0022
@<TRIPOS>BOND
     1    56    54   ar
     2    55    54   ar
     3    54    53    1
     4    36    35    1
     5    35    34    1
     6    53    50    1
     7    49    50    1
     8    50    51    1
     9    51    52    2
    10    34    33    1
    11    33    32    1
    12    22    20    1
    13    12    13    1
    14    32    29    1
    15    16    13    1
    16    16    17    1
    17    13    14    1
    18    57    58    1
    19    17    18    1
    20    65    66    1
    21    65    59   am
    22    66    67    1
    23    20    21    1
    24    20    19    2
    25    18    19    1
    26    29    28    1
    27    29    30    1
    28    67    68    2
    29    48    46    1
    30    14    15    2
    31    14    23   am
    32    58    61    1
    33    58    59    1
    34    61    62    1
    35    59    60    2
    36    30    31    2
    37    30    37   am
    38   107   105   ar
    39    23    24    1
    40    64    62    1
    41     4     3    2
    42    47    46    1
    43     3     2    1
    44    46    43    1
    45    37    38    1
    46    62    63    1
    47    43    42    1
    48    43    44    1
    49   105   104    1
    50   105   106   ar
    51    38    41    1
    52    38    39    1
    53    24    25    1
    54    24    27    1
    55     1     2    1
    56     2     5    1
    57    25    26    2
    58   104   103    1
    59    44    45    2
    60    39    40    2
    61    69    70    1
    62     5     6    1
    63    73    70    1
    64    73    74    1
    65   103   100    1
    66    76    74    1
    67    71    70    1
    68    71    72    2
    69   102   101    2
    70   100   101    1
    71   100    99    1
    72    74    75    1
    73     6     8   ar
    74     6     7   ar
    75     8    10   ar
    76     7     9   ar
    77    84    82    1
    78    98    97    1
    79    88    87    2
    80    89    86    1
    81    10    11   ar
    82   121   119    1
    83     9    11   ar
    84    87    86    1
    85    87    90   am
    86    97    96    1
    87    96    95    1
    88    95    94    1
    89    86    85    1
    90    82    83    1
    91    82    81    1
    92    91    90    1
    93    91    94    1
    94    91    92    1
    95    93    92    2
    96   118   119    1
    97   118   115    1
    98   119   120    1
    99    81    78    1
   100    78    79    1
   101    78    77    1
   102    80    79    2
   103   114   115    1
   104   114   110   am
   105   115   116    1
   106   109   112    1
   107   109   110    1
   108   109   108    1
   109   127   126    1
   110   112   113    1
   111   110   111    2
   112   126   128    1
   113   126   123    1
   114   122   116   am
   115   122   123    1
   116   116   117    2
   117   123   124    1
   118   124   125    2
