@<TRIPOS>MOLECULE
tmp/4jk4A02.pdb
 127 122 0 0 0
SMALL
GASTEIGER

@<TRIPOS>ATOM
      1  N         72.5060   22.4610   30.3300 N.3   114  LEU114     -0.1231
      2  CA        72.1460   21.1090   29.9470 C.3   114  LEU114      0.1693
      3  C         72.1700   20.2030   31.1900 C.2   114  LEU114      0.2592
      4  O         73.2310   19.9700   31.7990 O.2   114  LEU114     -0.2718
      5  CB        73.0620   20.5840   28.8210 C.3   114  LEU114      0.0284
      6  CG        72.8340   21.1650   27.4100 C.3   114  LEU114      0.0019
      7  CD1       73.8700   20.6750   26.4140 C.3   114  LEU114      0.0001
      8  CD2       71.4170   20.9090   26.8850 C.3   114  LEU114      0.0001
      9  N         70.9940   19.6910   31.5560 N.am  115  LYS115     -0.1966
     10  CA        70.8800   18.7880   32.7040 C.3   115  LYS115      0.1713
     11  C         70.0940   17.5230   32.3340 C.2   115  LYS115      0.2458
     12  O         68.8600   17.5480   32.2110 O.2   115  LYS115     -0.2730
     13  CB        70.2970   19.5140   33.9350 C.3   115  LYS115      0.0311
     14  CG        71.3510   20.2930   34.7320 C.3   115  LYS115      0.0038
     15  CD        70.7350   21.2260   35.7680 C.3   115  LYS115      0.0206
     16  CE        71.7830   21.8540   36.7000 C.3   115  LYS115      0.1093
     17  NZ        71.1220   22.7660   37.6680 N.3   115  LYS115     -0.1314
     18  N         70.8320   16.4080   32.1650 N.am  116  PRO116     -0.2727
     19  CA        70.3260   15.1280   31.6250 C.3   116  PRO116      0.1402
     20  C         69.3890   14.3580   32.5420 C.2   116  PRO116      0.2269
     21  O         69.7360   14.1320   33.6900 O.2   116  PRO116     -0.2865
     22  CB        71.6160   14.2970   31.4250 C.3   116  PRO116      0.0296
     23  CG        72.6030   14.8650   32.4180 C.3   116  PRO116      0.0237
     24  CD        72.2850   16.3630   32.4400 C.3   116  PRO116      0.0939
     25  N         66.0340   10.8150   28.0640 N.3   121  LEU121     -0.1245
     26  CA        67.1000   10.6580   27.1010 C.3   121  LEU121      0.1561
     27  C         67.1050    9.2670   26.5080 C.2   121  LEU121      0.2260
     28  O         67.1660    9.1020   25.2850 O.2   121  LEU121     -0.2867
     29  CB        68.4610   10.9800   27.7530 C.3   121  LEU121      0.0270
     30  CG        68.7220   12.4880   27.8740 C.3   121  LEU121      0.0019
     31  CD1       69.9840   12.7870   28.6870 C.3   121  LEU121      0.0001
     32  CD2       68.7540   13.1570   26.4560 C.3   121  LEU121      0.0001
     33  N         72.2480   16.2430   19.6150 N.3   136  TYR136     -0.1241
     34  CA        73.5060   16.4160   20.3090 C.3   136  TYR136      0.1605
     35  C         74.3870   17.4340   19.5140 C.2   136  TYR136      0.2264
     36  O         74.8410   18.4790   20.0530 O.2   136  TYR136     -0.2867
     37  CB        74.2140   15.0650   20.5380 C.3   136  TYR136      0.0534
     38  CG        75.5570   15.1890   21.2330 C.ar  136  TYR136     -0.0201
     39  CD1       75.6220   15.2900   22.6060 C.ar  136  TYR136     -0.0009
     40  CD2       76.7540   15.2620   20.4980 C.ar  136  TYR136     -0.0009
     41  CE1       76.8610   15.4310   23.2760 C.ar  136  TYR136      0.0417
     42  CE2       78.0000   15.4060   21.1420 C.ar  136  TYR136      0.0417
     43  CZ        78.0370   15.4820   22.5420 C.ar  136  TYR136      0.1957
     44  OH        79.2490   15.6240   23.1940 O.3   136  TYR136     -0.2866
     45  N         75.3420   21.0720   21.3780 N.3   140  ILE140     -0.1245
     46  CA        76.7350   21.3190   21.6130 C.3   140  ILE140      0.1561
     47  C         77.2250   22.4500   20.7010 C.2   140  ILE140      0.2260
     48  O         77.8540   23.3600   21.2200 O.2   140  ILE140     -0.2867
     49  CB        77.6660   20.0770   21.4730 C.3   140  ILE140      0.0252
     50  CG1       77.2820   18.9680   22.4580 C.3   140  ILE140      0.0019
     51  CG2       79.1900   20.5070   21.6640 C.3   140  ILE140      0.0019
     52  CD1       77.1120   19.4150   23.9150 C.3   140  ILE140      0.0001
     53  N         76.2820   25.7380   21.6350 N.3   143  ARG143     -0.1231
     54  CA        77.0080   26.3130   22.7500 C.3   143  ARG143      0.1694
     55  C         78.4990   26.5890   22.4430 C.2   143  ARG143      0.2592
     56  O         79.1720   27.4140   23.1220 O.2   143  ARG143     -0.2718
     57  CB        76.8000   25.4790   24.0330 C.3   143  ARG143      0.0321
     58  CG        75.3460   25.6380   24.4920 C.3   143  ARG143      0.0489
     59  CD        74.9560   24.5960   25.5340 C.3   143  ARG143      0.2205
     60  NE        73.5710   24.7780   25.9730 N.pl3 143  ARG143     -0.0865
     61  CZ        72.5340   24.3510   25.2470 C.cat 143  ARG143      0.5346
     62  NH1       72.7850   23.7400   24.0780 N.pl3 143  ARG143      0.1354
     63  NH2       71.2760   24.5490   25.6570 N.pl3 143  ARG143      0.1354
     64  N         79.0010   25.9970   21.3780 N.am  144  HIS144     -0.1976
     65  CA        80.3840   26.2350   21.0020 C.3   144  HIS144      0.1656
     66  C         80.4520   26.4950   19.5370 C.2   144  HIS144      0.2291
     67  O         80.6870   25.5600   18.7010 O.2   144  HIS144     -0.2864
     68  CB        81.2230   25.0620   21.3630 C.3   144  HIS144      0.0771
     69  CG        81.0850   24.6940   22.7890 C.ar  144  HIS144      0.0820
     70  ND1       81.9480   25.1720   23.7720 N.ar  144  HIS144     -0.2267
     71  CD2       80.1430   23.9750   23.4410 C.ar  144  HIS144      0.1154
     72  CE1       81.5540   24.7310   24.9360 C.ar  144  HIS144      0.1986
     73  NE2       80.4640   23.9820   24.7680 N.ar  144  HIS144     -0.2212
     74  N         78.9870    9.6050   22.3040 N.3   159  TYR159     -0.1241
     75  CA        77.7080    9.8950   22.9960 C.3   159  TYR159      0.1605
     76  C         76.6510    8.7890   22.7160 C.2   159  TYR159      0.2264
     77  O         76.0380    8.2450   23.6660 O.2   159  TYR159     -0.2867
     78  CB        77.1660   11.2310   22.4770 C.3   159  TYR159      0.0534
     79  CG        76.0630   11.8410   23.2810 C.ar  159  TYR159     -0.0201
     80  CD1       76.3020   12.3440   24.5660 C.ar  159  TYR159     -0.0009
     81  CD2       74.7950   11.9530   22.7520 C.ar  159  TYR159     -0.0009
     82  CE1       75.2790   12.9530   25.3280 C.ar  159  TYR159      0.0417
     83  CE2       73.7620   12.5420   23.5040 C.ar  159  TYR159      0.0417
     84  CZ        74.0120   13.0420   24.7880 C.ar  159  TYR159      0.1957
     85  OH        72.9890   13.6680   25.5110 O.3   159  TYR159     -0.2866
     86  N         78.7300   10.5140   31.0970 N.3   180  ILE180     -0.1245
     87  CA        78.4410   11.8300   30.5530 C.3   180  ILE180      0.1561
     88  C         79.3000   12.9100   31.2410 C.2   180  ILE180      0.2260
     89  O         79.8490   13.7400   30.5330 O.2   180  ILE180     -0.2867
     90  CB        76.9300   12.2420   30.6760 C.3   180  ILE180      0.0252
     91  CG1       76.0670   11.5980   29.6070 C.3   180  ILE180      0.0019
     92  CG2       76.7330   13.7330   30.4400 C.3   180  ILE180      0.0019
     93  CD1       74.6090   12.2690   29.5450 C.3   180  ILE180      0.0001
     94  N         82.8880   12.6850   29.6640 N.3   183  MET183     -0.1230
     95  CA        82.9050   13.2080   28.3330 C.3   183  MET183      0.1702
     96  C         82.7100   14.7660   28.3240 C.2   183  MET183      0.2592
     97  O         83.4040   15.5000   27.5880 O.2   183  MET183     -0.2718
     98  CB        81.8960   12.4650   27.4600 C.3   183  MET183      0.0401
     99  CG        82.1510   12.5840   25.9340 C.3   183  MET183      0.0596
    100  SD        80.8220   11.8730   24.8840 S.3   183  MET183     -0.1393
    101  CE        81.0360   10.1240   25.2490 C.3   183  MET183      0.0692
    102  N         81.8130   15.2890   29.1590 N.am  184  ARG184     -0.1980
    103  CA        81.5980   16.7520   29.2200 C.3   184  ARG184      0.1597
    104  C         82.9260   17.4170   29.5250 C.2   184  ARG184      0.2287
    105  O         83.2460   18.4810   28.9360 O.2   184  ARG184     -0.2864
    106  CB        80.5420   17.1170   30.2690 C.3   184  ARG184      0.0334
    107  CG        80.3790   18.6140   30.5530 C.3   184  ARG184      0.0492
    108  CD        79.4750   18.9070   31.7750 C.3   184  ARG184      0.2205
    109  NE        78.1600   18.2720   31.6040 N.pl3 184  ARG184     -0.0865
    110  CZ        77.1050   18.8080   30.9670 C.cat 184  ARG184      0.5346
    111  NH1       77.1420   20.0420   30.4810 N.pl3 184  ARG184      0.1354
    112  NH2       75.9800   18.1170   30.8700 N.pl3 184  ARG184      0.1354
    113  N         84.9070   17.4160   26.1260 N.3   187  VAL187     -0.1231
    114  CA        84.3300   18.2770   25.1630 C.3   187  VAL187      0.1692
    115  C         84.7210   19.6970   25.5140 C.2   187  VAL187      0.2591
    116  O         85.2400   20.4370   24.6290 O.2   187  VAL187     -0.2718
    117  CB        82.8100   18.0740   25.1110 C.3   187  VAL187      0.0266
    118  CG1       82.1570   19.2060   24.4450 C.3   187  VAL187      0.0020
    119  CG2       82.4960   16.7270   24.4050 C.3   187  VAL187      0.0020
    120  N         84.5140   20.1110   26.7790 N.am  188  LEU188     -0.1980
    121  CA        84.9450   21.4800   27.1410 C.3   188  LEU188      0.1596
    122  C         86.4430   21.7700   26.8460 C.2   188  LEU188      0.2287
    123  O         86.7830   22.7870   26.1750 O.2   188  LEU188     -0.2864
    124  CB        84.5710   21.8220   28.5730 C.3   188  LEU188      0.0297
    125  CG        83.0620   21.7710   28.8900 C.3   188  LEU188      0.0022
    126  CD1       82.8710   22.2280   30.3140 C.3   188  LEU188      0.0001
    127  CD2       82.2790   22.7260   28.0150 C.3   188  LEU188      0.0001
@<TRIPOS>BOND
     1    67    66    2
     2    35    36    2
     3    35    34    1
     4    66    65    1
     5    33    34    1
     6    34    37    1
     7    40    42   ar
     8    40    38   ar
     9    37    38    1
    10    47    48    2
    11    47    46    1
    12    65    68    1
    13    65    64    1
    14    42    43   ar
    15    38    39   ar
    16    68    69    1
    17    64    55   am
    18    45    46    1
    19    49    46    1
    20    49    51    1
    21    49    50    1
    22    53    54    1
    23    74    75    1
    24    55    54    1
    25    55    56    2
    26    50    52    1
    27    78    75    1
    28    78    79    1
    29    43    44    1
    30    43    41   ar
    31    39    41   ar
    32    76    75    1
    33    76    77    2
    34    54    57    1
    35    81    79   ar
    36    81    83   ar
    37    69    71   ar
    38    69    70   ar
    39    79    80   ar
    40    71    73   ar
    41    83    84   ar
    42    70    72   ar
    43    57    58    1
    44    62    61    1
    45   119   117    1
    46   118   117    1
    47    58    59    1
    48    80    82   ar
    49   116   115    2
    50    73    72   ar
    51    84    82   ar
    52    84    85    1
    53   100   101    1
    54   100    99    1
    55   117   114    1
    56   114   115    1
    57   114   113    1
    58    61    63    1
    59    61    60    2
    60    28    27    2
    61   115   120   am
    62    59    60    1
    63    99    98    1
    64   123   122    2
    65     7     6    1
    66    32    30    1
    67    27    26    1
    68   120   121    1
    69   122   121    1
    70     8     6    1
    71    26    29    1
    72    26    25    1
    73   121   124    1
    74     6     5    1
    75    98    95    1
    76    97    96    2
    77    29    30    1
    78    30    31    1
    79   127   125    1
    80    96    95    1
    81    96   102   am
    82    95    94    1
    83   124   125    1
    84     5     2    1
    85   125   126    1
    86   105   104    2
    87   102   103    1
    88   103   104    1
    89   103   106    1
    90    93    91    1
    91    91    90    1
    92     2     1    1
    93     2     3    1
    94   106   107    1
    95    92    90    1
    96   111   110    1
    97    89    88    2
    98    87    90    1
    99    87    86    1
   100    87    88    1
   101   107   108    1
   102   112   110    1
   103   110   109    2
   104     3     9   am
   105     3     4    2
   106    22    19    1
   107    22    23    1
   108     9    10    1
   109   109   108    1
   110    19    18    1
   111    19    20    1
   112    18    11   am
   113    18    24    1
   114    12    11    2
   115    11    10    1
   116    23    24    1
   117    20    21    2
   118    10    13    1
   119    13    14    1
   120    14    15    1
   121    15    16    1
   122    16    17    1
