@<TRIPOS>MOLECULE
tmp/4jk4A01.pdb
 145 136 0 0 0
SMALL
GASTEIGER

@<TRIPOS>ATOM
      1  N        108.7680   28.9460   34.7650 N.3   382  PRO382     -0.2116
      2  CA       107.5160   28.2370   34.9920 C.3   382  PRO382      0.1372
      3  C        107.7730   26.9150   35.7320 C.2   382  PRO382      0.2244
      4  O        106.8220   26.4250   36.2860 O.2   382  PRO382     -0.2868
      5  CB       106.9840   28.0130   33.5760 C.3   382  PRO382      0.0268
      6  CG       108.2020   27.7670   32.7950 C.3   382  PRO382      0.0207
      7  CD       109.2800   28.6800   33.4070 C.3   382  PRO382      0.0892
      8  N        107.0340   28.4400   39.1660 N.3   385  LEU385     -0.1231
      9  CA       105.6360   28.8130   39.3490 C.3   385  LEU385      0.1693
     10  C        104.7620   27.5630   39.5970 C.2   385  LEU385      0.2591
     11  O        103.8110   27.6080   40.3860 O.2   385  LEU385     -0.2718
     12  CB       105.1250   29.6250   38.1420 C.3   385  LEU385      0.0284
     13  CG       104.8110   31.1030   38.3460 C.3   385  LEU385      0.0019
     14  CD1      105.3510   31.9670   37.2040 C.3   385  LEU385      0.0001
     15  CD2      103.3040   31.3270   38.5150 C.3   385  LEU385      0.0001
     16  N        105.0790   26.4510   38.9350 N.am  386  ILE386     -0.1980
     17  CA       104.2390   25.2640   39.0800 C.3   386  ILE386      0.1595
     18  C        104.3320   24.6690   40.4610 C.2   386  ILE386      0.2287
     19  O        103.3110   24.3600   41.0760 O.2   386  ILE386     -0.2864
     20  CB       104.6080   24.1720   38.0640 C.3   386  ILE386      0.0276
     21  CG1      104.2590   24.6390   36.6520 C.3   386  ILE386      0.0022
     22  CG2      103.7950   22.9440   38.3420 C.3   386  ILE386      0.0022
     23  CD1      104.7070   23.7060   35.5220 C.3   386  ILE386      0.0001
     24  N        102.4790   26.8540   43.0830 N.3   389  ASN389     -0.1225
     25  CA       101.0000   26.7850   43.0480 C.3   389  ASN389      0.1785
     26  C        100.3870   25.4260   43.4110 C.2   389  ASN389      0.2597
     27  O         99.2960   25.3360   44.0020 O.2   389  ASN389     -0.2718
     28  CB       100.4300   27.3070   41.7160 C.3   389  ASN389      0.1169
     29  CG       100.3220   28.8130   41.6870 C.2   389  ASN389      0.2627
     30  OD1       99.3140   29.3900   42.1340 O.2   389  ASN389     -0.2716
     31  ND2      101.3810   29.4680   41.2390 N.am  389  ASN389     -0.0877
     32  N        101.0660   24.3640   43.0580 N.am  390  CYS390     -0.1970
     33  CA       100.5280   23.0860   43.4420 C.3   390  CYS390      0.1712
     34  C        100.4880   22.9160   44.9850 C.2   390  CYS390      0.2296
     35  O         99.5880   22.2600   45.5290 O.2   390  CYS390     -0.2864
     36  CB       101.2960   21.9760   42.7470 C.3   390  CYS390      0.0983
     37  SG       100.8020   21.8860   41.0510 S.3   390  CYS390     -0.0798
     38  N         91.4620   26.6890   46.4200 N.3   401  PHE401     -0.1241
     39  CA        92.4220   27.2450   45.4520 C.3   401  PHE401      0.1605
     40  C         91.7300   28.2690   44.5330 C.2   401  PHE401      0.2264
     41  O         92.2540   29.3710   44.3000 O.2   401  PHE401     -0.2867
     42  CB        93.1080   26.1160   44.6690 C.3   401  PHE401      0.0534
     43  CG        94.2890   26.5760   43.8410 C.ar  401  PHE401     -0.0203
     44  CD1       95.1990   27.5050   44.3370 C.ar  401  PHE401     -0.0042
     45  CD2       94.4920   26.0850   42.5460 C.ar  401  PHE401     -0.0042
     46  CE1       96.2950   27.9170   43.5520 C.ar  401  PHE401     -0.0003
     47  CE2       95.5640   26.5240   41.7820 C.ar  401  PHE401     -0.0003
     48  CZ        96.4550   27.4330   42.2910 C.ar  401  PHE401     -0.0000
     49  N         92.4950   32.1320   43.6960 N.3   405  LEU405     -0.1245
     50  CA        92.5960   32.7000   42.3500 C.3   405  LEU405      0.1561
     51  C         91.6130   33.8540   42.1660 C.2   405  LEU405      0.2260
     52  O         92.0010   34.9060   41.6510 O.2   405  LEU405     -0.2867
     53  CB        92.3530   31.6750   41.2360 C.3   405  LEU405      0.0270
     54  CG        93.5020   30.6780   41.0900 C.3   405  LEU405      0.0019
     55  CD1       93.1520   29.5230   40.1610 C.3   405  LEU405      0.0001
     56  CD2       94.7370   31.3870   40.6080 C.3   405  LEU405      0.0001
     57  N         93.3760   36.8050   43.8730 N.3   408  ARG408     -0.1231
     58  CA        94.5370   37.2050   43.0780 C.3   408  ARG408      0.1694
     59  C         94.1530   38.0180   41.8720 C.2   408  ARG408      0.2592
     60  O         94.6720   39.1000   41.6080 O.2   408  ARG408     -0.2718
     61  CB        95.2040   35.9370   42.5390 C.3   408  ARG408      0.0321
     62  CG        96.6780   36.0420   42.3700 C.3   408  ARG408      0.0489
     63  CD        97.3030   34.6910   42.6170 C.3   408  ARG408      0.2205
     64  NE        97.5970   34.0480   41.3530 N.pl3 408  ARG408     -0.0865
     65  CZ        97.8870   32.7620   41.2140 C.cat 408  ARG408      0.5346
     66  NH1       97.8930   31.9490   42.2800 N.pl3 408  ARG408      0.1354
     67  NH2       98.1460   32.2920   39.9930 N.pl3 408  ARG408      0.1354
     68  N         93.2470   37.4290   41.1230 N.am  409  TYR409     -0.1976
     69  CA        92.8660   37.9160   39.8190 C.3   409  TYR409      0.1639
     70  C         91.9720   39.1630   39.9810 C.2   409  TYR409      0.2290
     71  O         92.0570   40.1140   39.2010 O.2   409  TYR409     -0.2864
     72  CB        92.2930   36.7310   38.9420 C.3   409  TYR409      0.0560
     73  CG        93.4290   36.0700   38.1980 C.ar  409  TYR409     -0.0198
     74  CD1       93.9830   36.6840   37.0550 C.ar  409  TYR409     -0.0009
     75  CD2       93.9810   34.8720   38.6210 C.ar  409  TYR409     -0.0009
     76  CE1       95.0510   36.1320   36.3720 C.ar  409  TYR409      0.0417
     77  CE2       95.0730   34.2900   37.9220 C.ar  409  TYR409      0.0417
     78  CZ        95.5920   34.9220   36.8000 C.ar  409  TYR409      0.1957
     79  OH        96.6640   34.3690   36.1090 O.3   409  TYR409     -0.2866
     80  N         90.7240   28.2490   36.1790 N.3   428  LEU428     -0.1245
     81  CA        92.0980   28.2200   36.5930 C.3   428  LEU428      0.1561
     82  C         92.2330   27.3140   37.8170 C.2   428  LEU428      0.2260
     83  O         93.2650   26.6650   37.9990 O.2   428  LEU428     -0.2867
     84  CB        92.5580   29.6440   36.9400 C.3   428  LEU428      0.0270
     85  CG        92.8190   30.7070   35.8530 C.3   428  LEU428      0.0019
     86  CD1       93.2260   31.9360   36.5780 C.3   428  LEU428      0.0001
     87  CD2       93.8560   30.3360   34.7510 C.3   428  LEU428      0.0001
     88  N         93.0080   23.6660   37.1510 N.3   431  VAL431     -0.1231
     89  CA        94.3200   23.2060   36.7170 C.3   431  VAL431      0.1692
     90  C         95.0370   22.3110   37.7550 C.2   431  VAL431      0.2592
     91  O         95.5920   21.2920   37.3580 O.2   431  VAL431     -0.2718
     92  CB        95.2860   24.3520   36.2740 C.3   431  VAL431      0.0266
     93  CG1       95.8580   25.1930   37.4860 C.3   431  VAL431      0.0020
     94  CG2       96.4250   23.7510   35.4750 C.3   431  VAL431      0.0020
     95  N         94.9980   22.6440   39.0530 N.am  432  GLY432     -0.1957
     96  CA        95.5870   21.7970   40.0880 C.3   432  GLY432      0.1869
     97  C         95.0620   20.3670   40.0760 C.2   432  GLY432      0.2309
     98  O         95.8490   19.3910   40.0780 O.2   432  GLY432     -0.2863
     99  N         98.2980   18.6510   39.0510 N.3   436  CYS436     -0.1235
    100  CA        99.2330   18.6260   40.1630 C.3   436  CYS436      0.1677
    101  C         99.7150   17.2320   40.5750 C.2   436  CYS436      0.2270
    102  O        100.9220   17.0180   40.7660 O.2   436  CYS436     -0.2867
    103  CB        98.6730   19.4210   41.3310 C.3   436  CYS436      0.0956
    104  SG        98.8620   21.2360   41.1240 S.3   436  CYS436     -0.0801
    105  N        100.3150   21.9160   32.5930 N.3   447  THR447     -0.1203
    106  CA        99.7510   23.0860   33.1550 C.3   447  THR447      0.1994
    107  C         99.7360   24.2410   32.1470 C.2   447  THR447      0.2617
    108  O         98.6880   24.9120   32.0160 O.2   447  THR447     -0.2717
    109  CB       100.4170   23.4950   34.5070 C.3   447  THR447      0.1784
    110  OG1      101.7540   23.9430   34.2930 O.3   447  THR447     -0.2211
    111  CG2      100.4120   22.3240   35.4440 C.3   447  THR447      0.0376
    112  N        100.8940   24.5180   31.5160 N.am  448  GLU448     -0.1979
    113  CA       101.0310   25.6590   30.6020 C.3   448  GLU448      0.1602
    114  C        100.0160   25.5610   29.5200 C.2   448  GLU448      0.2287
    115  O         99.3360   26.5590   29.1880 O.2   448  GLU448     -0.2864
    116  CB       102.4090   25.7390   29.9650 C.3   448  GLU448      0.0415
    117  CG       103.5400   26.2690   30.8680 C.3   448  GLU448      0.1163
    118  CD       103.6900   27.7990   30.7210 C.2   448  GLU448      0.3649
    119  OE1      103.1820   28.3760   29.7230 O.co2 448  GLU448     -0.2457
    120  OE2      104.3450   28.4330   31.5710 O.co2 448  GLU448     -0.2457
    121  N         96.6270   26.5310   30.6420 N.3   451  LEU451     -0.1245
    122  CA        96.4510   27.8990   31.0380 C.3   451  LEU451      0.1561
    123  C         96.2920   28.7780   29.8490 C.2   451  LEU451      0.2260
    124  O         95.5510   29.7780   29.8940 O.2   451  LEU451     -0.2867
    125  CB        97.6350   28.3690   31.9110 C.3   451  LEU451      0.0270
    126  CG        97.8420   27.5470   33.1920 C.3   451  LEU451      0.0019
    127  CD1       99.2480   27.7520   33.7330 C.3   451  LEU451      0.0001
    128  CD2       96.7230   27.7510   34.2930 C.3   451  LEU451      0.0001
    129  N        100.6440   34.0590   29.3420 N.3   483  ARG483     -0.1245
    130  CA       100.7040   33.6290   30.7240 C.3   483  ARG483      0.1563
    131  C        101.7050   34.4460   31.5740 C.2   483  ARG483      0.2260
    132  O        101.3210   35.0510   32.6010 O.2   483  ARG483     -0.2867
    133  CB       100.9630   32.1260   30.8420 C.3   483  ARG483      0.0307
    134  CG       100.3110   31.5090   32.0670 C.3   483  ARG483      0.0489
    135  CD       101.2640   31.3990   33.2870 C.3   483  ARG483      0.2205
    136  NE       102.4810   30.7200   32.8530 N.pl3 483  ARG483     -0.0865
    137  CZ       103.6980   31.2020   33.0500 C.cat 483  ARG483      0.5346
    138  NH1      103.8550   32.3560   33.7130 N.pl3 483  ARG483      0.1354
    139  NH2      104.7520   30.5240   32.6100 N.pl3 483  ARG483      0.1354
    140  N        100.8250   36.6110   34.6930 N.3   487  SER487     -0.1217
    141  CA       101.4610   36.3330   35.9660 C.3   487  SER487      0.1889
    142  C        102.1500   37.6050   36.5060 C.2   487  SER487      0.2288
    143  O        102.1230   37.8550   37.7050 O.2   487  SER487     -0.2866
    144  CB       102.4460   35.1900   35.8420 C.3   487  SER487      0.2089
    145  OG       101.7740   33.9810   36.0760 O.3   487  SER487     -0.2183
@<TRIPOS>BOND
     1   115   114    2
     2   129   130    1
     3   114   113    1
     4   119   118   ar
     5   123   124    2
     6   123   122    1
     7   116   113    1
     8   116   117    1
     9   113   112    1
    10   121   122    1
    11   118   117    1
    12   118   120   ar
    13   130   133    1
    14   130   131    1
    15   133   134    1
    16   122   125    1
    17   112   107   am
    18   131   132    2
    19   125   126    1
    20   108   107    2
    21   134   135    1
    22   107   106    1
    23   105   106    1
    24   139   137    1
    25     6     7    1
    26     6     5    1
    27   136   137    2
    28   136   135    1
    29   137   138    1
    30   106   109    1
    31   126   127    1
    32   126   128    1
    33     7     1    1
    34     5     2    1
    35   110   109    1
    36   109   111    1
    37   140   141    1
    38    87    85    1
    39     1     2    1
    40     2     3    1
    41    94    92    1
    42    23    21    1
    43     3     4    2
    44   144   141    1
    45   144   145    1
    46    85    86    1
    47    85    84    1
    48   141   142    1
    49    79    78    1
    50    80    81    1
    51    92    89    1
    52    92    93    1
    53    76    78   ar
    54    76    74   ar
    55   142   143    2
    56    81    84    1
    57    81    82    1
    58    21    20    1
    59    89    88    1
    60    89    90    1
    61    78    77   ar
    62    74    73   ar
    63    14    13    1
    64    91    90    2
    65    90    95   am
    66    82    83    2
    67    77    75   ar
    68    20    22    1
    69    20    17    1
    70    12    13    1
    71    12     9    1
    72    73    75   ar
    73    73    72    1
    74    13    15    1
    75    16    17    1
    76    16    10   am
    77    72    69    1
    78    99   100    1
    79    95    96    1
    80    17    18    1
    81     8     9    1
    82    71    70    2
    83     9    10    1
    84    10    11    2
    85    69    70    1
    86    69    68    1
    87    67    65    1
    88    97    98    2
    89    97    96    1
    90    55    54    1
    91   100   101    1
    92   100   103    1
    93    18    19    2
    94   101   102    2
    95    56    54    1
    96    37   104    1
    97    37    36    1
    98    54    53    1
    99    68    59   am
   100   104   103    1
   101    65    64    2
   102    65    66    1
   103    53    50    1
   104    31    29   am
   105    64    63    1
   106    60    59    2
   107    52    51    2
   108    29    28    1
   109    29    30    2
   110    28    25    1
   111    47    48   ar
   112    47    45   ar
   113    59    58    1
   114    51    50    1
   115    48    46   ar
   116    50    49    1
   117    62    61    1
   118    62    63    1
   119    61    58    1
   120    45    43   ar
   121    36    33    1
   122    25    24    1
   123    25    26    1
   124    32    26   am
   125    32    33    1
   126    58    57    1
   127    26    27    2
   128    33    34    1
   129    46    44   ar
   130    43    44   ar
   131    43    42    1
   132    41    40    2
   133    40    39    1
   134    42    39    1
   135    34    35    2
   136    39    38    1
