@<TRIPOS>MOLECULE
tmp/4jk4A04.pdb
 94 91 0 0 0
SMALL
GASTEIGER

@<TRIPOS>ATOM
      1  N         72.5060   22.4610   30.3300 N.3   114  LEU114     -0.1231
      2  CA        72.1460   21.1090   29.9470 C.3   114  LEU114      0.1693
      3  C         72.1700   20.2030   31.1900 C.2   114  LEU114      0.2592
      4  O         73.2310   19.9700   31.7990 O.2   114  LEU114     -0.2718
      5  CB        73.0620   20.5840   28.8210 C.3   114  LEU114      0.0284
      6  CG        72.8340   21.1650   27.4100 C.3   114  LEU114      0.0019
      7  CD1       73.8700   20.6750   26.4140 C.3   114  LEU114      0.0001
      8  CD2       71.4170   20.9090   26.8850 C.3   114  LEU114      0.0001
      9  N         70.9940   19.6910   31.5560 N.am  115  LYS115     -0.1966
     10  CA        70.8800   18.7880   32.7040 C.3   115  LYS115      0.1713
     11  C         70.0940   17.5230   32.3340 C.2   115  LYS115      0.2458
     12  O         68.8600   17.5480   32.2110 O.2   115  LYS115     -0.2730
     13  CB        70.2970   19.5140   33.9350 C.3   115  LYS115      0.0311
     14  CG        71.3510   20.2930   34.7320 C.3   115  LYS115      0.0038
     15  CD        70.7350   21.2260   35.7680 C.3   115  LYS115      0.0206
     16  CE        71.7830   21.8540   36.7000 C.3   115  LYS115      0.1093
     17  NZ        71.1220   22.7660   37.6680 N.3   115  LYS115     -0.1314
     18  N         70.8320   16.4080   32.1650 N.am  116  PRO116     -0.2727
     19  CA        70.3260   15.1280   31.6250 C.3   116  PRO116      0.1402
     20  C         69.3890   14.3580   32.5420 C.2   116  PRO116      0.2269
     21  O         69.7360   14.1320   33.6900 O.2   116  PRO116     -0.2865
     22  CB        71.6160   14.2970   31.4250 C.3   116  PRO116      0.0296
     23  CG        72.6030   14.8650   32.4180 C.3   116  PRO116      0.0237
     24  CD        72.2850   16.3630   32.4400 C.3   116  PRO116      0.0939
     25  N         66.0340   10.8150   28.0640 N.3   121  LEU121     -0.1245
     26  CA        67.1000   10.6580   27.1010 C.3   121  LEU121      0.1561
     27  C         67.1050    9.2670   26.5080 C.2   121  LEU121      0.2260
     28  O         67.1660    9.1020   25.2850 O.2   121  LEU121     -0.2867
     29  CB        68.4610   10.9800   27.7530 C.3   121  LEU121      0.0270
     30  CG        68.7220   12.4880   27.8740 C.3   121  LEU121      0.0019
     31  CD1       69.9840   12.7870   28.6870 C.3   121  LEU121      0.0001
     32  CD2       68.7540   13.1570   26.4560 C.3   121  LEU121      0.0001
     33  N         64.1110    8.9680   24.1790 N.3   124  GLU124     -0.1245
     34  CA        64.3660    9.6600   22.8920 C.3   124  GLU124      0.1567
     35  C         65.3400    8.8450   22.0210 C.2   124  GLU124      0.2260
     36  O         65.1150    8.6630   20.8340 O.2   124  GLU124     -0.2867
     37  CB        64.9480   11.0910   23.0850 C.3   124  GLU124      0.0388
     38  CG        64.0820   12.1710   23.7690 C.3   124  GLU124      0.1160
     39  CD        64.8670   13.4750   24.1050 C.2   124  GLU124      0.3649
     40  OE1       65.9090   13.7490   23.4620 O.co2 124  GLU124     -0.2457
     41  OE2       64.4480   14.2050   25.0430 O.co2 124  GLU124     -0.2457
     42  N         68.6100   11.7810   17.6730 N.3   132  PHE132     -0.1241
     43  CA        69.2170   11.9280   18.9720 C.3   132  PHE132      0.1605
     44  C         70.6220   12.4680   18.7800 C.2   132  PHE132      0.2264
     45  O         71.0330   13.4940   19.3690 O.2   132  PHE132     -0.2867
     46  CB        69.2970   10.5530   19.6560 C.3   132  PHE132      0.0534
     47  CG        69.7470   10.6290   21.0970 C.ar  132  PHE132     -0.0203
     48  CD1       68.9170   11.1970   22.0630 C.ar  132  PHE132     -0.0042
     49  CD2       70.9930   10.1550   21.4750 C.ar  132  PHE132     -0.0042
     50  CE1       69.3280   11.2960   23.3680 C.ar  132  PHE132     -0.0003
     51  CE2       71.3980   10.2260   22.7910 C.ar  132  PHE132     -0.0003
     52  CZ        70.5790   10.8090   23.7460 C.ar  132  PHE132     -0.0000
     53  N         70.3120   16.1870   17.6810 N.3   135  LYS135     -0.1231
     54  CA        70.1640   17.2140   18.7130 C.3   135  LYS135      0.1693
     55  C         71.4910   17.3230   19.5100 C.2   135  LYS135      0.2592
     56  O         71.8160   18.3840   20.0700 O.2   135  LYS135     -0.2718
     57  CB        68.9750   16.9620   19.6770 C.3   135  LYS135      0.0285
     58  CG        67.6530   16.5140   19.0060 C.3   135  LYS135      0.0035
     59  CD        66.5920   15.9400   20.0050 C.3   135  LYS135      0.0206
     60  CE        66.9020   14.5030   20.4850 C.3   135  LYS135      0.1093
     61  NZ        65.8420   13.4840   20.1420 N.3   135  LYS135     -0.1314
     62  N         72.2480   16.2430   19.6150 N.am  136  TYR136     -0.1976
     63  CA        73.5060   16.4160   20.3090 C.3   136  TYR136      0.1639
     64  C         74.3870   17.4340   19.5140 C.2   136  TYR136      0.2290
     65  O         74.8410   18.4790   20.0530 O.2   136  TYR136     -0.2864
     66  CB        74.2140   15.0650   20.5380 C.3   136  TYR136      0.0560
     67  CG        75.5570   15.1890   21.2330 C.ar  136  TYR136     -0.0198
     68  CD1       75.6220   15.2900   22.6060 C.ar  136  TYR136     -0.0009
     69  CD2       76.7540   15.2620   20.4980 C.ar  136  TYR136     -0.0009
     70  CE1       76.8610   15.4310   23.2760 C.ar  136  TYR136      0.0417
     71  CE2       78.0000   15.4060   21.1420 C.ar  136  TYR136      0.0417
     72  CZ        78.0370   15.4820   22.5420 C.ar  136  TYR136      0.1957
     73  OH        79.2490   15.6240   23.1940 O.3   136  TYR136     -0.2866
     74  N         72.8610   21.0840   20.0920 N.3   139  GLU139     -0.1245
     75  CA        73.0350   21.7750   21.3580 C.3   139  GLU139      0.1567
     76  C         74.4920   22.0530   21.6830 C.2   139  GLU139      0.2260
     77  O         74.8540   23.1520   22.2090 O.2   139  GLU139     -0.2867
     78  CB        72.4320   20.9800   22.4650 C.3   139  GLU139      0.0388
     79  CG        70.9860   20.6790   22.2590 C.3   139  GLU139      0.1160
     80  CD        70.0610   21.8620   22.4120 C.2   139  GLU139      0.3649
     81  OE1       70.5190   23.0330   22.4770 O.co2 139  GLU139     -0.2457
     82  OE2       68.8410   21.6020   22.5200 O.co2 139  GLU139     -0.2457
     83  N         78.9870    9.6050   22.3040 N.3   159  TYR159     -0.1241
     84  CA        77.7080    9.8950   22.9960 C.3   159  TYR159      0.1605
     85  C         76.6510    8.7890   22.7160 C.2   159  TYR159      0.2264
     86  O         76.0380    8.2450   23.6660 O.2   159  TYR159     -0.2867
     87  CB        77.1660   11.2310   22.4770 C.3   159  TYR159      0.0534
     88  CG        76.0630   11.8410   23.2810 C.ar  159  TYR159     -0.0201
     89  CD1       76.3020   12.3440   24.5660 C.ar  159  TYR159     -0.0009
     90  CD2       74.7950   11.9530   22.7520 C.ar  159  TYR159     -0.0009
     91  CE1       75.2790   12.9530   25.3280 C.ar  159  TYR159      0.0417
     92  CE2       73.7620   12.5420   23.5040 C.ar  159  TYR159      0.0417
     93  CZ        74.0120   13.0420   24.7880 C.ar  159  TYR159      0.1957
     94  OH        72.9890   13.6680   25.5110 O.3   159  TYR159     -0.2866
@<TRIPOS>BOND
     1    42    43    1
     2    53    54    1
     3    54    55    1
     4    54    57    1
     5    44    43    1
     6    44    45    2
     7    43    46    1
     8    58    57    1
     9    58    59    1
    10    55    62   am
    11    55    56    2
    12    64    65    2
    13    64    63    1
    14    62    63    1
    15    46    47    1
    16    59    60    1
    17    74    75    1
    18    61    60    1
    19    63    66    1
    20    69    71   ar
    21    69    67   ar
    22    66    67    1
    23    36    35    2
    24    47    49   ar
    25    47    48   ar
    26    71    72   ar
    27    67    68   ar
    28    75    76    1
    29    75    78    1
    30    49    51   ar
    31    76    77    2
    32    35    34    1
    33    48    50   ar
    34    79    80    1
    35    79    78    1
    36    83    84    1
    37    80    81   ar
    38    80    82   ar
    39    87    84    1
    40    87    88    1
    41    72    73    1
    42    72    70   ar
    43    68    70   ar
    44    85    84    1
    45    85    86    2
    46    90    88   ar
    47    90    92   ar
    48    51    52   ar
    49    34    37    1
    50    34    33    1
    51    37    38    1
    52    88    89   ar
    53    50    52   ar
    54    40    39   ar
    55    92    93   ar
    56    38    39    1
    57    39    41   ar
    58    89    91   ar
    59    93    91   ar
    60    93    94    1
    61    28    27    2
    62     7     6    1
    63    32    30    1
    64    27    26    1
    65     8     6    1
    66    26    29    1
    67    26    25    1
    68     6     5    1
    69    29    30    1
    70    30    31    1
    71     5     2    1
    72     2     1    1
    73     2     3    1
    74     3     9   am
    75     3     4    2
    76    22    19    1
    77    22    23    1
    78     9    10    1
    79    19    18    1
    80    19    20    1
    81    18    11   am
    82    18    24    1
    83    12    11    2
    84    11    10    1
    85    23    24    1
    86    20    21    2
    87    10    13    1
    88    13    14    1
    89    14    15    1
    90    15    16    1
    91    16    17    1
