@<TRIPOS>MOLECULE
tmp/4jkiA00.pdb
 117 113 0 0 0
SMALL
GASTEIGER

@<TRIPOS>ATOM
      1  N          5.3490    9.9970   60.5220 N.3     5  ASP5       -0.1239
      2  CA         4.3060   11.0490   60.4010 C.3     5  ASP5        0.1674
      3  C          3.5230   10.9370   59.0980 C.2     5  ASP5        0.2266
      4  O          2.3010   10.9900   59.0980 O.2     5  ASP5       -0.2867
      5  CB         4.8720   12.4900   60.4850 C.3     5  ASP5        0.1410
      6  CG         5.2990   12.9050   61.9100 C.2     5  ASP5        0.3668
      7  OD1        4.9700   12.2000   62.8700 O.co2   5  ASP5       -0.2456
      8  OD2        5.9870   13.9470   62.0600 O.co2   5  ASP5       -0.2456
      9  N         10.4090   20.5680   71.8990 N.3    70  GLU70      -0.1231
     10  CA         9.4780   20.9230   72.9950 C.3    70  GLU70       0.1699
     11  C          8.1560   20.1470   72.8780 C.2    70  GLU70       0.2592
     12  O          7.9120   19.1940   73.6280 O.2    70  GLU70      -0.2718
     13  CB         9.2100   22.4380   73.0060 C.3    70  GLU70       0.0402
     14  CG        10.3430   23.2930   73.5790 C.3    70  GLU70       0.1161
     15  CD        11.6220   23.2790   72.7350 C.2    70  GLU70       0.3649
     16  OE1       12.6960   22.9290   73.2950 O.co2  70  GLU70      -0.2457
     17  OE2       11.5670   23.6220   71.5220 O.co2  70  GLU70      -0.2457
     18  N          7.3020   20.5550   71.9420 N.am   71  GLY71      -0.1957
     19  CA         6.1360   19.7470   71.5840 C.3    71  GLY71       0.1869
     20  C          4.8160   20.4600   71.5290 C.2    71  GLY71       0.2309
     21  O          3.7680   19.8590   71.7780 O.2    71  GLY71      -0.2863
     22  N          1.9580   19.8440   68.5800 N.3    74  THR74      -0.1218
     23  CA         1.5170   18.4940   68.8220 C.3    74  THR74       0.1862
     24  C          0.5750   18.4980   70.0070 C.2    74  THR74       0.2287
     25  O         -0.3910   17.8200   70.0080 O.2    74  THR74      -0.2866
     26  CB         2.7730   17.6020   68.9760 C.3    74  THR74       0.1770
     27  OG1        2.9130   16.8050   67.7860 O.3    74  THR74      -0.2211
     28  CG2        2.7580   16.6890   70.2150 C.3    74  THR74       0.0375
     29  N         14.0330   20.2730   56.7470 N.3   106  LYS106     -0.1231
     30  CA        13.0340   19.1920   56.6840 C.3   106  LYS106      0.1693
     31  C         11.6050   19.7480   56.5760 C.2   106  LYS106      0.2593
     32  O         11.3180   20.8570   57.0480 O.2   106  LYS106     -0.2718
     33  CB        13.1470   18.2600   57.9090 C.3   106  LYS106      0.0285
     34  CG        12.8580   18.9010   59.2210 C.3   106  LYS106      0.0035
     35  CD        12.7310   17.8250   60.3030 C.3   106  LYS106      0.0206
     36  CE        12.6540   18.5440   61.6220 C.3   106  LYS106      0.1093
     37  NZ        12.3360   17.5360   62.6630 N.3   106  LYS106     -0.1314
     38  N         10.7270   18.9780   55.9290 N.am  107  GLY107     -0.1942
     39  CA         9.2850   19.2220   55.9730 C.3   107  GLY107      0.2014
     40  C          8.7560   18.7310   57.3070 C.2   107  GLY107      0.2639
     41  O          8.9230   17.5710   57.6560 O.2   107  GLY107     -0.2714
     42  N          8.1470   19.6280   58.0700 N.am  108  GLY108     -0.1939
     43  CA         7.6400   19.2940   59.3950 C.3   108  GLY108      0.2014
     44  C          6.1310   19.2430   59.3630 C.2   108  GLY108      0.2638
     45  O          5.4850   20.2700   59.1220 O.2   108  GLY108     -0.2714
     46  N          5.5700   18.0490   59.5840 N.am  109  ALA109     -0.1977
     47  CA         4.1200   17.8830   59.7650 C.3   109  ALA109      0.1597
     48  C          3.5360   18.9730   60.6920 C.2   109  ALA109      0.2287
     49  O          4.2290   19.5020   61.5900 O.2   109  ALA109     -0.2864
     50  CB         3.8280   16.5070   60.3250 C.3   109  ALA109      0.0319
     51  N          2.1450   19.4470   63.4770 N.3   111  GLY111     -0.1210
     52  CA         2.0070   18.5490   64.6050 C.3   111  GLY111      0.1956
     53  C          2.9470   17.3710   64.4270 C.2   111  GLY111      0.2612
     54  O          4.1580   17.5320   64.1920 O.2   111  GLY111     -0.2717
     55  N          2.4100   16.1700   64.5440 N.am  112  GLY112     -0.1956
     56  CA         3.2500   14.9970   64.5170 C.3   112  GLY112      0.1869
     57  C          2.5490   13.8080   65.1140 C.2   112  GLY112      0.2309
     58  O          1.5660   13.9510   65.8370 O.2   112  GLY112     -0.2863
     59  N          5.1230   16.6430   78.1020 N.3   380  ASN380     -0.1225
     60  CA         5.1780   15.8400   76.9060 C.3   380  ASN380      0.1785
     61  C          6.0740   14.6250   77.1470 C.2   380  ASN380      0.2597
     62  O          7.3180   14.7000   77.1190 O.2   380  ASN380     -0.2718
     63  CB         5.6700   16.6590   75.7410 C.3   380  ASN380      0.1169
     64  CG         5.6660   15.8960   74.4660 C.2   380  ASN380      0.2627
     65  OD1        5.6950   14.6770   74.4740 O.2   380  ASN380     -0.2716
     66  ND2        5.6450   16.5960   73.3530 N.am  380  ASN380     -0.0877
     67  N          5.4000   13.4940   77.3550 N.am  381  ALA381     -0.1966
     68  CA         6.0410   12.2420   77.7570 C.3   381  ALA381      0.1728
     69  C          6.9570   11.7250   76.6720 C.2   381  ALA381      0.2616
     70  O          6.6240   11.7860   75.5070 O.2   381  ALA381     -0.2715
     71  CB         4.9850   11.2140   78.0590 C.3   381  ALA381      0.0334
     72  N          8.1110   11.2140   77.0620 N.am  382  PHE382     -0.1960
     73  CA         9.0790   10.6920   76.1100 C.3   382  PHE382      0.1756
     74  C          9.6490    9.3550   76.6670 C.2   382  PHE382      0.2461
     75  O          9.9130    9.2460   77.8680 O.2   382  PHE382     -0.2730
     76  CB        10.1330   11.7710   75.9130 C.3   382  PHE382      0.0574
     77  CG        11.0460   11.5230   74.7740 C.ar  382  PHE382     -0.0200
     78  CD1       12.1500   10.6850   74.9240 C.ar  382  PHE382     -0.0042
     79  CD2       10.8290   12.1370   73.5530 C.ar  382  PHE382     -0.0042
     80  CE1       13.0250   10.4430   73.8640 C.ar  382  PHE382     -0.0003
     81  CE2       11.6950   11.9040   72.4870 C.ar  382  PHE382     -0.0003
     82  CZ        12.7990   11.0560   72.6400 C.ar  382  PHE382     -0.0000
     83  N          9.8100    8.3210   75.8110 N.am  383  PRO383     -0.2727
     84  CA        10.0160    6.9340   76.3030 C.3   383  PRO383      0.1402
     85  C         11.2250    6.6580   77.2150 C.2   383  PRO383      0.2269
     86  O         11.2080    5.6630   77.9530 O.2   383  PRO383     -0.2865
     87  CB        10.1370    6.1130   75.0170 C.3   383  PRO383      0.0296
     88  CG        10.3040    7.0940   73.9030 C.3   383  PRO383      0.0237
     89  CD         9.6510    8.3580   74.3480 C.3   383  PRO383      0.0939
     90  N          0.3840   12.0610   76.2020 N.3   408  GLU408     -0.1245
     91  CA         0.9550   11.0810   75.3060 C.3   408  GLU408      0.1567
     92  C          0.2220   11.1890   74.0050 C.2   408  GLU408      0.2260
     93  O         -0.1260   10.1580   73.3990 O.2   408  GLU408     -0.2867
     94  CB         0.7900    9.6730   75.8630 C.3   408  GLU408      0.0388
     95  CG         1.4820    9.4250   77.1900 C.3   408  GLU408      0.1160
     96  CD         0.9270    8.2010   77.8920 C.2   408  GLU408      0.3649
     97  OE1       -0.2240    8.2780   78.4040 O.co2 408  GLU408     -0.2457
     98  OE2        1.6340    7.1700   77.9340 O.co2 408  GLU408     -0.2457
     99  N          1.2850   12.2940   71.1760 N.3   410  TRP410     -0.1227
    100  CA         2.0510   11.9370   69.9970 C.3   410  TRP410      0.1737
    101  C          1.8480   10.4400   69.6750 C.2   410  TRP410      0.2595
    102  O          1.6710   10.0510   68.5200 O.2   410  TRP410     -0.2718
    103  CB         3.5230   12.2610   70.2330 C.3   410  TRP410      0.0564
    104  CG         4.3530   12.0230   69.0350 C.ar  410  TRP410      0.0003
    105  CD1        4.5150   12.8630   67.9570 C.ar  410  TRP410      0.0946
    106  CD2        5.1190   10.8580   68.7570 C.ar  410  TRP410      0.0152
    107  NE1        5.3630   12.2910   67.0410 N.ar  410  TRP410     -0.2442
    108  CE2        5.7390   11.0550   67.5040 C.ar  410  TRP410      0.0810
    109  CE3        5.3670    9.6790   69.4570 C.ar  410  TRP410      0.0012
    110  CZ2        6.5900   10.1040   66.9330 C.ar  410  TRP410      0.0191
    111  CZ3        6.2250    8.7370   68.8960 C.ar  410  TRP410      0.0001
    112  CH2        6.8210    8.9550   67.6470 C.ar  410  TRP410      0.0015
    113  N          1.8650    9.6180   70.7200 N.am  411  ALA411     -0.1980
    114  CA         1.7080    8.1830   70.5720 C.3   411  ALA411      0.1597
    115  C          0.2640    7.7370   70.3990 C.2   411  ALA411      0.2287
    116  O         -0.0040    6.8550   69.6160 O.2   411  ALA411     -0.2864
    117  CB         2.3300    7.4630   71.7620 C.3   411  ALA411      0.0319
@<TRIPOS>BOND
     1    38    39    1
     2    38    31   am
     3    39    40    1
     4    31    30    1
     5    31    32    2
     6    30    29    1
     7    30    33    1
     8    40    41    2
     9    40    42   am
    10    33    34    1
    11    42    43    1
    12     4     3    2
    13     3     2    1
    14    45    44    2
    15    34    35    1
    16    44    43    1
    17    44    46   am
    18    46    47    1
    19    47    50    1
    20    47    48    1
    21    35    36    1
    22     2     5    1
    23     2     1    1
    24     5     6    1
    25    48    49    2
    26    36    37    1
    27     6     8   ar
    28     6     7   ar
    29    51    52    1
    30    54    53    2
    31    53    55   am
    32    53    52    1
    33    56    55    1
    34    56    57    1
    35    57    58    2
    36   110   108   ar
    37   110   112   ar
    38   107   108   ar
    39   107   105   ar
    40   108   106   ar
    41   112   111   ar
    42    27    26    1
    43   105   104   ar
    44   102   101    2
    45    22    23    1
    46   106   104   ar
    47   106   109   ar
    48    23    26    1
    49    23    24    1
    50   111   109   ar
    51    26    28    1
    52   104   103    1
    53   116   115    2
    54   101   100    1
    55   101   113   am
    56   100   103    1
    57   100    99    1
    58    24    25    2
    59   115   114    1
    60   114   113    1
    61   114   117    1
    62    17    15   ar
    63    20    19    1
    64    20    21    2
    65    19    18    1
    66     9    10    1
    67    18    11   am
    68    81    82   ar
    69    81    79   ar
    70    82    80   ar
    71    15    16   ar
    72    15    14    1
    73    11    10    1
    74    11    12    2
    75    10    13    1
    76    13    14    1
    77    66    64   am
    78    93    92    2
    79    79    77   ar
    80    80    78   ar
    81    88    89    1
    82    88    87    1
    83    92    91    1
    84    89    83    1
    85    64    65    2
    86    64    63    1
    87    77    78   ar
    88    77    76    1
    89    87    84    1
    90    91    94    1
    91    91    90    1
    92    70    69    2
    93    63    60    1
    94    83    84    1
    95    83    74   am
    96    94    95    1
    97    76    73    1
    98    73    74    1
    99    73    72    1
   100    84    85    1
   101    74    75    2
   102    69    72   am
   103    69    68    1
   104    60    61    1
   105    60    59    1
   106    62    61    2
   107    61    67   am
   108    95    96    1
   109    85    86    2
   110    67    68    1
   111    68    71    1
   112    96    98   ar
   113    96    97   ar
