@<TRIPOS>MOLECULE
tmp/4jkiA02.pdb
 134 130 0 0 0
SMALL
GASTEIGER

@<TRIPOS>ATOM
      1  N          5.3490    9.9970   60.5220 N.3     5  ASP5       -0.1239
      2  CA         4.3060   11.0490   60.4010 C.3     5  ASP5        0.1674
      3  C          3.5230   10.9370   59.0980 C.2     5  ASP5        0.2266
      4  O          2.3010   10.9900   59.0980 O.2     5  ASP5       -0.2867
      5  CB         4.8720   12.4900   60.4850 C.3     5  ASP5        0.1410
      6  CG         5.2990   12.9050   61.9100 C.2     5  ASP5        0.3668
      7  OD1        4.9700   12.2000   62.8700 O.co2   5  ASP5       -0.2456
      8  OD2        5.9870   13.9470   62.0600 O.co2   5  ASP5       -0.2456
      9  N         13.9890   20.0550   71.0260 N.3    69  GLY69      -0.1210
     10  CA        12.5220   19.9620   70.8480 C.3    69  GLY69       0.1956
     11  C         11.6600   20.1290   72.1060 C.2    69  GLY69       0.2612
     12  O         12.1140   19.8510   73.2360 O.2    69  GLY69      -0.2717
     13  N         10.4090   20.5680   71.8990 N.am   70  GLU70      -0.1965
     14  CA         9.4780   20.9230   72.9950 C.3    70  GLU70       0.1733
     15  C          8.1560   20.1470   72.8780 C.2    70  GLU70       0.2617
     16  O          7.9120   19.1940   73.6280 O.2    70  GLU70      -0.2715
     17  CB         9.2100   22.4380   73.0060 C.3    70  GLU70       0.0429
     18  CG        10.3430   23.2930   73.5790 C.3    70  GLU70       0.1163
     19  CD        11.6220   23.2790   72.7350 C.2    70  GLU70       0.3649
     20  OE1       12.6960   22.9290   73.2950 O.co2  70  GLU70      -0.2457
     21  OE2       11.5670   23.6220   71.5220 O.co2  70  GLU70      -0.2457
     22  N          7.3020   20.5550   71.9420 N.am   71  GLY71      -0.1940
     23  CA         6.1360   19.7470   71.5840 C.3    71  GLY71       0.2014
     24  C          4.8160   20.4600   71.5290 C.2    71  GLY71       0.2639
     25  O          3.7680   19.8590   71.7780 O.2    71  GLY71      -0.2714
     26  N          4.8620   21.7160   71.1100 N.am   72  LYS72      -0.1963
     27  CA         3.7550   22.6470   71.3320 C.3    72  LYS72       0.1728
     28  C          2.5860   22.4980   70.3140 C.2    72  LYS72       0.2617
     29  O          1.4390   22.4890   70.6970 O.2    72  LYS72      -0.2715
     30  CB         4.3470   24.0590   71.5130 C.3    72  LYS72       0.0311
     31  CG         3.6330   25.2400   70.9020 C.3    72  LYS72       0.0038
     32  CD         4.1950   26.5600   71.4530 C.3    72  LYS72       0.0206
     33  CE         5.7250   26.7310   71.4050 C.3    72  LYS72       0.1093
     34  NZ         6.2930   26.8440   70.0240 N.3    72  LYS72      -0.1314
     35  N          2.8660   22.3380   69.0370 N.am   73  THR73      -0.1937
     36  CA         1.8070   22.1680   68.0630 C.3    73  THR73       0.2028
     37  C          1.1230   20.8300   68.2930 C.2    73  THR73       0.2642
     38  O         -0.1000   20.6730   68.1970 O.2    73  THR73      -0.2714
     39  CB         2.3930   22.2460   66.6460 C.3    73  THR73       0.1808
     40  OG1        2.7530   23.6070   66.3510 O.3    73  THR73      -0.2208
     41  CG2        1.4050   21.7540   65.5850 C.3    73  THR73       0.0379
     42  N          1.9580   19.8440   68.5800 N.am   74  THR74      -0.1950
     43  CA         1.5170   18.4940   68.8220 C.3    74  THR74       0.1897
     44  C          0.5750   18.4980   70.0070 C.2    74  THR74       0.2313
     45  O         -0.3910   17.8200   70.0080 O.2    74  THR74      -0.2863
     46  CB         2.7730   17.6020   68.9760 C.3    74  THR74       0.1794
     47  OG1        2.9130   16.8050   67.7860 O.3    74  THR74      -0.2208
     48  CG2        2.7580   16.6890   70.2150 C.3    74  THR74       0.0378
     49  N         14.0330   20.2730   56.7470 N.3   106  LYS106     -0.1245
     50  CA        13.0340   19.1920   56.6840 C.3   106  LYS106      0.1561
     51  C         11.6050   19.7480   56.5760 C.2   106  LYS106      0.2260
     52  O         11.3180   20.8570   57.0480 O.2   106  LYS106     -0.2867
     53  CB        13.1470   18.2600   57.9090 C.3   106  LYS106      0.0271
     54  CG        12.8580   18.9010   59.2210 C.3   106  LYS106      0.0035
     55  CD        12.7310   17.8250   60.3030 C.3   106  LYS106      0.0206
     56  CE        12.6540   18.5440   61.6220 C.3   106  LYS106      0.1093
     57  NZ        12.3360   17.5360   62.6630 N.3   106  LYS106     -0.1314
     58  N          2.1450   19.4470   63.4770 N.3   111  GLY111     -0.1210
     59  CA         2.0070   18.5490   64.6050 C.3   111  GLY111      0.1956
     60  C          2.9470   17.3710   64.4270 C.2   111  GLY111      0.2612
     61  O          4.1580   17.5320   64.1920 O.2   111  GLY111     -0.2717
     62  N          2.4100   16.1700   64.5440 N.am  112  GLY112     -0.1956
     63  CA         3.2500   14.9970   64.5170 C.3   112  GLY112      0.1869
     64  C          2.5490   13.8080   65.1140 C.2   112  GLY112      0.2309
     65  O          1.5660   13.9510   65.8370 O.2   112  GLY112     -0.2863
     66  N         -2.1190   28.8330   69.5130 N.3   299  GLU299     -0.1245
     67  CA        -0.7540   28.8110   70.0530 C.3   299  GLU299      0.1567
     68  C          0.1020   29.9240   69.5180 C.2   299  GLU299      0.2260
     69  O         -0.2980   30.6060   68.5430 O.2   299  GLU299     -0.2867
     70  CB        -0.0670   27.5040   69.7310 C.3   299  GLU299      0.0388
     71  CG         0.0940   27.2480   68.2520 C.3   299  GLU299      0.1160
     72  CD         1.2150   26.2450   67.9730 C.2   299  GLU299      0.3649
     73  OE1        0.9350   25.0100   68.1180 O.co2 299  GLU299     -0.2457
     74  OE2        2.3610   26.7220   67.6270 O.co2 299  GLU299     -0.2457
     75  N          5.1230   16.6430   78.1020 N.3   380  ASN380     -0.1225
     76  CA         5.1780   15.8400   76.9060 C.3   380  ASN380      0.1785
     77  C          6.0740   14.6250   77.1470 C.2   380  ASN380      0.2597
     78  O          7.3180   14.7000   77.1190 O.2   380  ASN380     -0.2718
     79  CB         5.6700   16.6590   75.7410 C.3   380  ASN380      0.1169
     80  CG         5.6660   15.8960   74.4660 C.2   380  ASN380      0.2627
     81  OD1        5.6950   14.6770   74.4740 O.2   380  ASN380     -0.2716
     82  ND2        5.6450   16.5960   73.3530 N.am  380  ASN380     -0.0877
     83  N          5.4000   13.4940   77.3550 N.am  381  ALA381     -0.1966
     84  CA         6.0410   12.2420   77.7570 C.3   381  ALA381      0.1728
     85  C          6.9570   11.7250   76.6720 C.2   381  ALA381      0.2616
     86  O          6.6240   11.7860   75.5070 O.2   381  ALA381     -0.2715
     87  CB         4.9850   11.2140   78.0590 C.3   381  ALA381      0.0334
     88  N          8.1110   11.2140   77.0620 N.am  382  PHE382     -0.1960
     89  CA         9.0790   10.6920   76.1100 C.3   382  PHE382      0.1756
     90  C          9.6490    9.3550   76.6670 C.2   382  PHE382      0.2461
     91  O          9.9130    9.2460   77.8680 O.2   382  PHE382     -0.2730
     92  CB        10.1330   11.7710   75.9130 C.3   382  PHE382      0.0574
     93  CG        11.0460   11.5230   74.7740 C.ar  382  PHE382     -0.0200
     94  CD1       12.1500   10.6850   74.9240 C.ar  382  PHE382     -0.0042
     95  CD2       10.8290   12.1370   73.5530 C.ar  382  PHE382     -0.0042
     96  CE1       13.0250   10.4430   73.8640 C.ar  382  PHE382     -0.0003
     97  CE2       11.6950   11.9040   72.4870 C.ar  382  PHE382     -0.0003
     98  CZ        12.7990   11.0560   72.6400 C.ar  382  PHE382     -0.0000
     99  N          9.8100    8.3210   75.8110 N.am  383  PRO383     -0.2727
    100  CA        10.0160    6.9340   76.3030 C.3   383  PRO383      0.1402
    101  C         11.2250    6.6580   77.2150 C.2   383  PRO383      0.2269
    102  O         11.2080    5.6630   77.9530 O.2   383  PRO383     -0.2865
    103  CB        10.1370    6.1130   75.0170 C.3   383  PRO383      0.0296
    104  CG        10.3040    7.0940   73.9030 C.3   383  PRO383      0.0237
    105  CD         9.6510    8.3580   74.3480 C.3   383  PRO383      0.0939
    106  N          1.0780   13.9740   78.9390 N.3   407  SER407     -0.1202
    107  CA         0.4740   14.0150   77.6230 C.3   407  SER407      0.2020
    108  C          1.1370   13.0180   76.7130 C.2   407  SER407      0.2618
    109  O          2.3200   13.0970   76.4750 O.2   407  SER407     -0.2717
    110  CB         0.6270   15.3940   77.0200 C.3   407  SER407      0.2103
    111  OG         0.4930   15.3410   75.6250 O.3   407  SER407     -0.2182
    112  N          0.3840   12.0610   76.2020 N.am  408  GLU408     -0.1979
    113  CA         0.9550   11.0810   75.3060 C.3   408  GLU408      0.1602
    114  C          0.2220   11.1890   74.0050 C.2   408  GLU408      0.2287
    115  O         -0.1260   10.1580   73.3990 O.2   408  GLU408     -0.2864
    116  CB         0.7900    9.6730   75.8630 C.3   408  GLU408      0.0415
    117  CG         1.4820    9.4250   77.1900 C.3   408  GLU408      0.1163
    118  CD         0.9270    8.2010   77.8920 C.2   408  GLU408      0.3649
    119  OE1       -0.2240    8.2780   78.4040 O.co2 408  GLU408     -0.2457
    120  OE2        1.6340    7.1700   77.9340 O.co2 408  GLU408     -0.2457
    121  N          1.2850   12.2940   71.1760 N.3   410  TRP410     -0.1241
    122  CA         2.0510   11.9370   69.9970 C.3   410  TRP410      0.1605
    123  C          1.8480   10.4400   69.6750 C.2   410  TRP410      0.2264
    124  O          1.6710   10.0510   68.5200 O.2   410  TRP410     -0.2867
    125  CB         3.5230   12.2610   70.2330 C.3   410  TRP410      0.0550
    126  CG         4.3530   12.0230   69.0350 C.ar  410  TRP410      0.0003
    127  CD1        4.5150   12.8630   67.9570 C.ar  410  TRP410      0.0946
    128  CD2        5.1190   10.8580   68.7570 C.ar  410  TRP410      0.0152
    129  NE1        5.3630   12.2910   67.0410 N.ar  410  TRP410     -0.2442
    130  CE2        5.7390   11.0550   67.5040 C.ar  410  TRP410      0.0810
    131  CE3        5.3670    9.6790   69.4570 C.ar  410  TRP410      0.0012
    132  CZ2        6.5900   10.1040   66.9330 C.ar  410  TRP410      0.0191
    133  CZ3        6.2250    8.7370   68.8960 C.ar  410  TRP410      0.0001
    134  CH2        6.8210    8.9550   67.6470 C.ar  410  TRP410      0.0015
@<TRIPOS>BOND
     1    51    50    1
     2    51    52    2
     3    50    49    1
     4    50    53    1
     5    53    54    1
     6     3     4    2
     7     3     2    1
     8    54    55    1
     9    55    56    1
    10     2     5    1
    11     2     1    1
    12     5     6    1
    13    56    57    1
    14     6     8   ar
    15     6     7   ar
    16    58    59    1
    17    61    60    2
    18    60    62   am
    19    60    59    1
    20    63    62    1
    21    63    64    1
    22    64    65    2
    23    41    39    1
    24    40    39    1
    25    39    36    1
    26   132   130   ar
    27   132   134   ar
    28   129   130   ar
    29   129   127   ar
    30   130   128   ar
    31    74    72   ar
    32   134   133   ar
    33    47    46    1
    34   127   126   ar
    35    72    73   ar
    36    72    71    1
    37    36    37    1
    38    36    35    1
    39    38    37    2
    40    71    70    1
    41    37    42   am
    42   124   123    2
    43    69    68    2
    44    42    43    1
    45   128   126   ar
    46   128   131   ar
    47    43    46    1
    48    43    44    1
    49   133   131   ar
    50    46    48    1
    51   126   125    1
    52    35    28   am
    53    66    67    1
    54    68    67    1
    55   123   122    1
    56    70    67    1
    57   122   125    1
    58   122   121    1
    59    44    45    2
    60    34    33    1
    61    28    29    2
    62    28    27    1
    63    10     9    1
    64    10    11    1
    65    31    32    1
    66    31    30    1
    67    26    27    1
    68    26    24   am
    69    27    30    1
    70    33    32    1
    71    21    19   ar
    72    24    23    1
    73    24    25    2
    74    23    22    1
    75    13    11   am
    76    13    14    1
    77    22    15   am
    78    11    12    2
    79    97    98   ar
    80    97    95   ar
    81    98    96   ar
    82    19    20   ar
    83    19    18    1
    84    15    14    1
    85    15    16    2
    86    14    17    1
    87    17    18    1
    88    82    80   am
    89   115   114    2
    90    95    93   ar
    91    96    94   ar
    92   104   105    1
    93   104   103    1
    94   114   113    1
    95   105    99    1
    96    80    81    2
    97    80    79    1
    98    93    94   ar
    99    93    92    1
   100   103   100    1
   101   113   116    1
   102   113   112    1
   103    86    85    2
   104   111   110    1
   105    79    76    1
   106    99   100    1
   107    99    90   am
   108   116   117    1
   109    92    89    1
   110    89    90    1
   111    89    88    1
   112   112   108   am
   113   100   101    1
   114   109   108    2
   115    90    91    2
   116    85    88   am
   117    85    84    1
   118   108   107    1
   119    76    77    1
   120    76    75    1
   121   110   107    1
   122    78    77    2
   123    77    83   am
   124   117   118    1
   125   101   102    2
   126    83    84    1
   127   107   106    1
   128    84    87    1
   129   118   120   ar
   130   118   119   ar
