@<TRIPOS>MOLECULE
tmp/4jkpA01.pdb
 146 140 0 0 0
SMALL
GASTEIGER

@<TRIPOS>ATOM
      1  N         61.5610   12.9720  -12.6170 N.3    91  LYS91      -0.1245
      2  CA        62.1210   14.3030  -12.8180 C.3    91  LYS91       0.1561
      3  C         61.2070   15.2980  -12.1180 C.2    91  LYS91       0.2260
      4  O         59.9850   15.1560  -12.1510 O.2    91  LYS91      -0.2867
      5  CB        62.2360   14.6530  -14.3070 C.3    91  LYS91       0.0271
      6  CG        63.0150   15.9470  -14.5810 C.3    91  LYS91       0.0035
      7  CD        62.4040   16.7770  -15.7100 C.3    91  LYS91       0.0206
      8  CE        63.0750   18.1450  -15.8140 C.3    91  LYS91       0.1093
      9  NZ        62.4040   19.0500  -16.7950 N.3    91  LYS91      -0.1314
     10  N         59.9190   19.0820  -11.8500 N.3    93  SER93      -0.1202
     11  CA        59.7450   20.4760  -12.2200 C.3    93  SER93       0.2020
     12  C         59.2020   21.2340  -11.0110 C.2    93  SER93       0.2619
     13  O         57.9960   21.2730  -10.7840 O.2    93  SER93      -0.2717
     14  CB        58.7950   20.6130  -13.4060 C.3    93  SER93       0.2103
     15  OG        58.8860   21.9090  -13.9730 O.3    93  SER93      -0.2182
     16  N         60.1000   21.8300  -10.2320 N.am   94  PHE94      -0.1961
     17  CA        59.7050   22.4870   -9.0010 C.3    94  PHE94       0.1771
     18  C         60.1390   23.9450   -8.9700 C.2    94  PHE94       0.2620
     19  O         61.3270   24.2420   -9.0300 O.2    94  PHE94      -0.2715
     20  CB        60.3050   21.7470   -7.8060 C.3    94  PHE94       0.0574
     21  CG        59.9820   22.3720   -6.4840 C.ar   94  PHE94      -0.0200
     22  CD1       58.6920   22.3210   -5.9760 C.ar   94  PHE94      -0.0042
     23  CD2       60.9630   23.0080   -5.7460 C.ar   94  PHE94      -0.0042
     24  CE1       58.3830   22.8990   -4.7650 C.ar   94  PHE94      -0.0003
     25  CE2       60.6630   23.5860   -4.5300 C.ar   94  PHE94      -0.0003
     26  CZ        59.3690   23.5310   -4.0390 C.ar   94  PHE94      -0.0000
     27  N         59.1700   24.8480   -8.8730 N.am   95  ASP95      -0.1958
     28  CA        59.4450   26.2790   -8.7610 C.3    95  ASP95       0.1825
     29  C         58.3400   26.9610   -7.9560 C.2    95  ASP95       0.2464
     30  O         57.2380   27.1660   -8.4590 O.2    95  ASP95      -0.2730
     31  CB        59.5640   26.9140  -10.1480 C.3    95  ASP95       0.1450
     32  CG        59.8990   28.3940  -10.0850 C.2    95  ASP95       0.3671
     33  OD1       60.5780   28.8100   -9.1130 O.co2  95  ASP95      -0.2456
     34  OD2       59.4820   29.1370  -11.0050 O.co2  95  ASP95      -0.2456
     35  N         58.6390   27.3130   -6.7010 N.am   96  PRO96      -0.2727
     36  CA        57.6810   27.8010   -5.7010 C.3    96  PRO96       0.1402
     37  C         56.8700   29.0120   -6.1530 C.2    96  PRO96       0.2269
     38  O         57.4130   29.9140   -6.7860 O.2    96  PRO96      -0.2865
     39  CB        58.5780   28.1900   -4.5190 C.3    96  PRO96       0.0296
     40  CG        59.7880   27.3460   -4.6810 C.3    96  PRO96       0.0237
     41  CD        60.0030   27.2220   -6.1540 C.3    96  PRO96       0.0939
     42  N         56.0430   32.6800   -1.0090 N.3   136  LYS136     -0.1245
     43  CA        56.6930   31.5250   -1.6110 C.3   136  LYS136      0.1561
     44  C         57.3840   30.6850   -0.5340 C.2   136  LYS136      0.2260
     45  O         58.2670   31.1760    0.1700 O.2   136  LYS136     -0.2867
     46  CB        57.6980   31.9830   -2.6810 C.3   136  LYS136      0.0271
     47  CG        57.0370   32.5780   -3.9290 C.3   136  LYS136      0.0035
     48  CD        57.8430   33.7210   -4.5330 C.3   136  LYS136      0.0206
     49  CE        59.0770   33.2210   -5.2520 C.3   136  LYS136      0.1093
     50  NZ        58.7410   32.6100   -6.5680 N.3   136  LYS136     -0.1314
     51  N         59.9760   29.0340    0.2060 N.3   138  VAL138     -0.1245
     52  CA        61.3360   28.8150   -0.2840 C.3   138  VAL138      0.1561
     53  C         62.2360   28.2620    0.8120 C.2   138  VAL138      0.2260
     54  O         62.6080   28.9810    1.7360 O.2   138  VAL138     -0.2867
     55  CB        61.9520   30.1290   -0.7670 C.3   138  VAL138      0.0252
     56  CG1       63.2810   29.8730   -1.4400 C.3   138  VAL138      0.0019
     57  CG2       61.0070   30.8400   -1.7000 C.3   138  VAL138      0.0019
     58  N         65.8410   33.5710    0.7360 N.3   145  LEU145     -0.1231
     59  CA        65.7060   33.8900   -0.6840 C.3   145  LEU145      0.1693
     60  C         64.2880   34.2390   -1.1100 C.2   145  LEU145      0.2592
     61  O         63.3130   33.6790   -0.6020 O.2   145  LEU145     -0.2718
     62  CB        66.1910   32.7190   -1.5340 C.3   145  LEU145      0.0284
     63  CG        67.6850   32.4950   -1.7980 C.3   145  LEU145      0.0019
     64  CD1       68.5710   33.5570   -1.1560 C.3   145  LEU145      0.0001
     65  CD2       68.0620   31.1080   -1.3320 C.3   145  LEU145      0.0001
     66  N         64.1870   35.1550   -2.0680 N.am  146  ASN146     -0.1974
     67  CA        62.9140   35.4990   -2.7190 C.3   146  ASN146      0.1688
     68  C         61.7920   35.8970   -1.7670 C.2   146  ASN146      0.2292
     69  O         60.6210   35.7150   -2.0870 O.2   146  ASN146     -0.2864
     70  CB        62.4190   34.3540   -3.6110 C.3   146  ASN146      0.1181
     71  CG        63.3520   34.0540   -4.7690 C.2   146  ASN146      0.2629
     72  OD1       64.2530   34.8310   -5.0750 O.2   146  ASN146     -0.2716
     73  ND2       63.1300   32.9150   -5.4260 N.am  146  ASN146     -0.0877
     74  N         70.2210   25.1750   -0.7570 N.3   236  PHE236     -0.1227
     75  CA        68.9390   25.4950   -1.3870 C.3   236  PHE236      0.1736
     76  C         68.6280   24.5520   -2.5270 C.2   236  PHE236      0.2595
     77  O         69.3930   23.6410   -2.8200 O.2   236  PHE236     -0.2718
     78  CB        68.9030   26.9460   -1.8820 C.3   236  PHE236      0.0547
     79  CG        69.9280   27.2510   -2.9300 C.ar  236  PHE236     -0.0202
     80  CD1       71.2190   27.5950   -2.5720 C.ar  236  PHE236     -0.0042
     81  CD2       69.6070   27.1800   -4.2750 C.ar  236  PHE236     -0.0042
     82  CE1       72.1700   27.8720   -3.5390 C.ar  236  PHE236     -0.0003
     83  CE2       70.5520   27.4580   -5.2410 C.ar  236  PHE236     -0.0003
     84  CZ        71.8350   27.8040   -4.8710 C.ar  236  PHE236     -0.0000
     85  N         67.5010   24.7940   -3.1750 N.am  237  ASN237     -0.1974
     86  CA        67.0270   23.9250   -4.2310 C.3   237  ASN237      0.1688
     87  C         66.8780   24.7160   -5.5190 C.2   237  ASN237      0.2292
     88  O         66.3790   25.8360   -5.5080 O.2   237  ASN237     -0.2864
     89  CB        65.6850   23.3260   -3.8250 C.3   237  ASN237      0.1181
     90  CG        65.2190   22.2540   -4.7740 C.2   237  ASN237      0.2629
     91  OD1       64.5080   22.5340   -5.7440 O.2   237  ASN237     -0.2716
     92  ND2       65.6180   21.0120   -4.5050 N.am  237  ASN237     -0.0877
     93  N         65.8560   23.8970   -9.7470 N.3   239  ARG239     -0.1245
     94  CA        65.5400   23.0080  -10.8630 C.3   239  ARG239      0.1563
     95  C         65.4880   21.5560  -10.4060 C.2   239  ARG239      0.2260
     96  O         65.7970   20.6440  -11.1700 O.2   239  ARG239     -0.2867
     97  CB        66.5500   23.1760  -12.0030 C.3   239  ARG239      0.0307
     98  CG        66.6210   24.5810  -12.5800 C.3   239  ARG239      0.0489
     99  CD        65.7510   24.7300  -13.8190 C.3   239  ARG239      0.2205
    100  NE        65.8160   26.0890  -14.3580 N.pl3 239  ARG239     -0.0865
    101  CZ        66.7640   26.5330  -15.1810 C.cat 239  ARG239      0.5346
    102  NH1       67.7420   25.7270  -15.5740 N.pl3 239  ARG239      0.1354
    103  NH2       66.7360   27.7890  -15.6120 N.pl3 239  ARG239      0.1354
    104  N         70.4390   16.3080  -13.6020 N.3   287  ILE287     -0.1245
    105  CA        70.0290   16.3840  -15.0010 C.3   287  ILE287      0.1561
    106  C         71.1230   17.0590  -15.8230 C.2   287  ILE287      0.2260
    107  O         71.9850   17.7490  -15.2760 O.2   287  ILE287     -0.2867
    108  CB        68.6910   17.1490  -15.1810 C.3   287  ILE287      0.0252
    109  CG1       68.9200   18.6650  -15.2140 C.3   287  ILE287      0.0019
    110  CG2       67.7010   16.7560  -14.0920 C.3   287  ILE287      0.0019
    111  CD1       67.6820   19.4650  -15.5630 C.3   287  ILE287      0.0001
    112  N         70.5280   26.9870  -13.9210 N.3   292  ASN292     -0.1225
    113  CA        70.7410   28.3380  -13.4200 C.3   292  ASN292      0.1785
    114  C         69.5840   28.8760  -12.5820 C.2   292  ASN292      0.2597
    115  O         68.4280   28.8440  -13.0010 O.2   292  ASN292     -0.2718
    116  CB        71.0480   29.2860  -14.5810 C.3   292  ASN292      0.1169
    117  CG        71.1410   30.7300  -14.1420 C.2   292  ASN292      0.2627
    118  OD1       70.4020   31.5830  -14.6290 O.2   292  ASN292     -0.2716
    119  ND2       72.0460   31.0120  -13.2100 N.am  292  ASN292     -0.0877
    120  N         69.9060   29.3660  -11.3920 N.am  293  CYS293     -0.1956
    121  CA        68.9170   29.9860  -10.5190 C.3   293  CYS293      0.1843
    122  C         69.3850   31.3690  -10.0970 C.2   293  CYS293      0.2625
    123  O         70.4470   31.5150   -9.4910 O.2   293  CYS293     -0.2714
    124  CB        68.6780   29.1350   -9.2670 C.3   293  CYS293      0.0997
    125  SG        67.1570   28.1720   -9.2720 S.3   293  CYS293     -0.0797
    126  N         68.5860   32.3800  -10.4140 N.am  294  VAL294     -0.1963
    127  CA        68.8470   33.7330   -9.9510 C.3   294  VAL294      0.1727
    128  C         67.8390   34.0860   -8.8640 C.2   294  VAL294      0.2617
    129  O         66.6400   34.1320   -9.1250 O.2   294  VAL294     -0.2715
    130  CB        68.7300   34.7380  -11.1040 C.3   294  VAL294      0.0290
    131  CG1       69.0220   36.1490  -10.6180 C.3   294  VAL294      0.0023
    132  CG2       69.6680   34.3430  -12.2320 C.3   294  VAL294      0.0023
    133  N         68.3260   34.3170   -7.6500 N.am  295  SER295     -0.1936
    134  CA        67.4560   34.5860   -6.5040 C.3   295  SER295      0.2055
    135  C         67.7470   35.9470   -5.9050 C.2   295  SER295      0.2643
    136  O         68.8130   36.5210   -6.1210 O.2   295  SER295     -0.2714
    137  CB        67.6560   33.5320   -5.4220 C.3   295  SER295      0.2130
    138  OG        67.5390   32.2230   -5.9450 O.3   295  SER295     -0.2179
    139  N         66.7910   36.4590   -5.1420 N.am  296  ASN296     -0.1971
    140  CA        66.9910   37.6900   -4.3950 C.3   296  ASN296      0.1688
    141  C         67.3080   37.3670   -2.9470 C.2   296  ASN296      0.2292
    142  O         66.5580   36.6380   -2.2990 O.2   296  ASN296     -0.2864
    143  CB        65.7410   38.5610   -4.4790 C.3   296  ASN296      0.1181
    144  CG        65.6190   39.2660   -5.8060 C.2   296  ASN296      0.2629
    145  OD1       66.5350   39.9690   -6.2280 O.2   296  ASN296     -0.2716
    146  ND2       64.4880   39.0760   -6.4810 N.am  296  ASN296     -0.0877
@<TRIPOS>BOND
     1     9     8    1
     2   106   107    2
     3   106   105    1
     4     8     7    1
     5     7     6    1
     6   103   101    1
     7   102   101    1
     8   111   109    1
     9   109   108    1
    10   101   100    2
    11   108   105    1
    12   108   110    1
    13   105   104    1
    14   118   117    2
    15     6     5    1
    16   116   117    1
    17   116   113    1
    18   100    99    1
    19     5     2    1
    20   117   119   am
    21    15    14    1
    22   112   113    1
    23    99    98    1
    24   113   114    1
    25    14    11    1
    26   115   114    2
    27     2     1    1
    28     2     3    1
    29   114   120   am
    30    98    97    1
    31   132   130    1
    32    11    10    1
    33    11    12    1
    34     4     3    2
    35    97    94    1
    36   120   121    1
    37    96    95    2
    38   130   131    1
    39   130   127    1
    40    12    13    2
    41    12    16   am
    42    34    32   ar
    43    94    95    1
    44    94    93    1
    45   121   122    1
    46   121   124    1
    47   126   122   am
    48   126   127    1
    49    16    17    1
    50    31    32    1
    51    31    28    1
    52   122   123    2
    53    32    33   ar
    54   127   128    1
    55   125   124    1
    56   129   128    2
    57    19    18    2
    58    17    18    1
    59    17    20    1
    60    18    27   am
    61    27    28    1
    62   128   133   am
    63    28    29    1
    64    30    29    2
    65    29    35   am
    66    20    21    1
    67   133   134    1
    68    38    37    2
    69    35    41    1
    70    35    36    1
    71    50    49    1
    72   134   135    1
    73   134   137    1
    74    21    22   ar
    75    21    23   ar
    76   146   144   am
    77   145   144    2
    78    41    40    1
    79    37    36    1
    80   136   135    2
    81    22    24   ar
    82   138   137    1
    83   135   139   am
    84   144   143    1
    85    23    25   ar
    86    91    90    2
    87    36    39    1
    88    87    88    2
    89    87    86    1
    90    73    71   am
    91    49    48    1
    92    83    84   ar
    93    83    81   ar
    94   139   140    1
    95    72    71    2
    96    84    82   ar
    97    90    92   am
    98    90    89    1
    99    71    70    1
   100    24    26   ar
   101    40    39    1
   102    48    47    1
   103    25    26   ar
   104   143   140    1
   105   140   141    1
   106    81    79   ar
   107    86    89    1
   108    86    85    1
   109    47    46    1
   110    70    67    1
   111    82    80   ar
   112    85    76   am
   113   141   142    2
   114    79    80   ar
   115    79    78    1
   116    77    76    2
   117    67    66    1
   118    67    68    1
   119    46    43    1
   120    76    75    1
   121    69    68    2
   122    66    60   am
   123    78    75    1
   124    63    62    1
   125    63    65    1
   126    63    64    1
   127    57    55    1
   128    43    42    1
   129    43    44    1
   130    62    59    1
   131    56    55    1
   132    75    74    1
   133    60    59    1
   134    60    61    2
   135    55    52    1
   136    59    58    1
   137    44    45    2
   138    52    51    1
   139    52    53    1
   140    53    54    2
