@<TRIPOS>MOLECULE
tmp/4jkpA02.pdb
 88 83 0 0 0
SMALL
GASTEIGER

@<TRIPOS>ATOM
      1  N         60.5230   47.5820    4.7120 N.3   151  GLU151     -0.1231
      2  CA        60.0430   48.7270    3.9520 C.3   151  GLU151      0.1699
      3  C         60.8660   50.0000    4.1730 C.2   151  GLU151      0.2592
      4  O         60.9380   50.8550    3.2890 O.2   151  GLU151     -0.2718
      5  CB        58.5520   48.9660    4.2170 C.3   151  GLU151      0.0402
      6  CG        58.1240   48.7700    5.6710 C.3   151  GLU151      0.1161
      7  CD        57.8290   47.3140    6.0280 C.2   151  GLU151      0.3649
      8  OE1       58.7890   46.5490    6.2850 O.co2 151  GLU151     -0.2457
      9  OE2       56.6340   46.9410    6.0570 O.co2 151  GLU151     -0.2457
     10  N         61.4900   50.1200    5.3430 N.am  152  GLU152     -0.1966
     11  CA        62.3350   51.2810    5.6460 C.3   152  GLU152      0.1733
     12  C         63.7990   50.9130    5.8840 C.2   152  GLU152      0.2616
     13  O         64.5940   50.8720    4.9490 O.2   152  GLU152     -0.2715
     14  CB        61.7890   52.0730    6.8350 C.3   152  GLU152      0.0429
     15  CG        60.8450   53.1990    6.4430 C.3   152  GLU152      0.1163
     16  CD        60.9200   54.3930    7.3900 C.2   152  GLU152      0.3649
     17  OE1       61.6440   54.3090    8.4060 O.co2 152  GLU152     -0.2457
     18  OE2       60.2580   55.4190    7.1130 O.co2 152  GLU152     -0.2457
     19  N         64.1520   50.6490    7.1360 N.am  153  GLU153     -0.1963
     20  CA        65.5330   50.3330    7.4810 C.3   153  GLU153      0.1733
     21  C         65.7300   48.8310    7.6540 C.2   153  GLU153      0.2616
     22  O         64.7600   48.0760    7.6910 O.2   153  GLU153     -0.2715
     23  CB        65.9260   51.0550    8.7680 C.3   153  GLU153      0.0429
     24  CG        65.1330   50.6020    9.9790 C.3   153  GLU153      0.1163
     25  CD        65.3470   51.4880   11.1890 C.2   153  GLU153      0.3649
     26  OE1       65.9730   52.5630   11.0470 O.co2 153  GLU153     -0.2457
     27  OE2       64.8860   51.1060   12.2860 O.co2 153  GLU153     -0.2457
     28  N         66.9860   48.4020    7.7530 N.am  154  ILE154     -0.1977
     29  CA        67.3020   47.0070    8.0450 C.3   154  ILE154      0.1596
     30  C         66.7820   46.6560    9.4320 C.2   154  ILE154      0.2287
     31  O         66.8760   47.4630   10.3520 O.2   154  ILE154     -0.2864
     32  CB        68.8140   46.7520    7.9830 C.3   154  ILE154      0.0276
     33  CG1       69.3370   47.0580    6.5860 C.3   154  ILE154      0.0022
     34  CG2       69.1390   45.3110    8.3480 C.3   154  ILE154      0.0022
     35  CD1       70.7670   46.6420    6.3780 C.3   154  ILE154      0.0001
     36  N         66.5450   45.7860    3.6660 N.3   173  ASN173     -0.1225
     37  CA        65.6420   46.7490    3.0550 C.3   173  ASN173      0.1785
     38  C         65.9530   46.9510    1.5710 C.2   173  ASN173      0.2597
     39  O         65.2880   47.7260    0.8790 O.2   173  ASN173     -0.2718
     40  CB        65.6760   48.0790    3.8070 C.3   173  ASN173      0.1169
     41  CG        67.0020   48.7950    3.6740 C.2   173  ASN173      0.2627
     42  OD1       68.0270   48.1770    3.3910 O.2   173  ASN173     -0.2716
     43  ND2       66.9860   50.1110    3.8780 N.am  173  ASN173     -0.0877
     44  N         66.9750   46.2480    1.0980 N.am  174  LYS174     -0.1980
     45  CA        67.3430   46.2480   -0.3150 C.3   174  LYS174      0.1596
     46  C         68.0190   44.9260   -0.6480 C.2   174  LYS174      0.2287
     47  O         69.0140   44.5530   -0.0280 O.2   174  LYS174     -0.2864
     48  CB        68.2620   47.4260   -0.6490 C.3   174  LYS174      0.0298
     49  CG        68.9690   47.3020   -1.9900 C.3   174  LYS174      0.0038
     50  CD        69.7560   48.5620   -2.3310 C.3   174  LYS174      0.0206
     51  CE        68.8270   49.7390   -2.6220 C.3   174  LYS174      0.1093
     52  NZ        69.5630   50.9870   -2.9970 N.3   174  LYS174     -0.1314
     53  N         75.9540   47.7990    6.3500 N.3   205  GLN205     -0.1245
     54  CA        74.7340   48.3380    6.9450 C.3   205  GLN205      0.1566
     55  C         74.1570   47.4530    8.0570 C.2   205  GLN205      0.2260
     56  O         73.6130   47.9650    9.0450 O.2   205  GLN205     -0.2867
     57  CB        73.6910   48.6490    5.8670 C.3   205  GLN205      0.0367
     58  CG        74.0480   49.8760    5.0330 C.3   205  GLN205      0.0905
     59  CD        73.0510   50.1700    3.9270 C.2   205  GLN205      0.2608
     60  OE1       72.3240   49.2880    3.4710 O.2   205  GLN205     -0.2717
     61  NE2       73.0120   51.4220    3.4900 N.am  205  GLN205     -0.0878
     62  N         76.5300   47.8360   11.1370 N.3   208  GLU208     -0.1231
     63  CA        76.2810   49.1330   11.7500 C.3   208  GLU208      0.1699
     64  C         74.9340   49.1150   12.4620 C.2   208  GLU208      0.2592
     65  O         74.7330   49.8390   13.4370 O.2   208  GLU208     -0.2718
     66  CB        76.3300   50.2350   10.6890 C.3   208  GLU208      0.0402
     67  CG        76.5380   51.6410   11.2320 C.3   208  GLU208      0.1161
     68  CD        76.8040   52.6600   10.1280 C.2   208  GLU208      0.3649
     69  OE1       76.9770   52.2430    8.9590 O.co2 208  GLU208     -0.2457
     70  OE2       76.8410   53.8760   10.4280 O.co2 208  GLU208     -0.2457
     71  N         74.0180   48.2770   11.9760 N.am  209  LYS209     -0.1980
     72  CA        72.7160   48.1100   12.6230 C.3   209  LYS209      0.1596
     73  C         72.8210   47.2660   13.8910 C.2   209  LYS209      0.2287
     74  O         72.2680   47.6190   14.9310 O.2   209  LYS209     -0.2864
     75  CB        71.7180   47.4620   11.6680 C.3   209  LYS209      0.0298
     76  CG        70.2730   47.6170   12.1000 C.3   209  LYS209      0.0038
     77  CD        69.8490   49.0730   12.0000 C.3   209  LYS209      0.0206
     78  CE        68.4080   49.2750   12.4350 C.3   209  LYS209      0.1093
     79  NZ        68.0070   50.7010   12.3260 N.3   209  LYS209     -0.1314
     80  N         74.0360   48.8300   17.0550 N.3   212  GLU212     -0.1245
     81  CA        73.0740   49.6110   17.8310 C.3   212  GLU212      0.1567
     82  C         72.4340   48.7760   18.9360 C.2   212  GLU212      0.2260
     83  O         72.0020   49.3090   19.9580 O.2   212  GLU212     -0.2867
     84  CB        71.9800   50.1820   16.9220 C.3   212  GLU212      0.0388
     85  CG        72.4840   51.0900   15.8020 C.3   212  GLU212      0.1160
     86  CD        71.3910   51.4860   14.8080 C.2   212  GLU212      0.3649
     87  OE1       71.6700   52.3270   13.9260 O.co2 212  GLU212     -0.2457
     88  OE2       70.2590   50.9580   14.9020 O.co2 212  GLU212     -0.2457
@<TRIPOS>BOND
     1    52    51    1
     2    51    50    1
     3    50    49    1
     4    49    48    1
     5    48    45    1
     6    46    45    1
     7    46    47    2
     8    45    44    1
     9    39    38    2
    10    44    38   am
    11    38    37    1
    12    37    36    1
    13    37    40    1
    14     4     3    2
    15    42    41    2
    16    60    59    2
    17    61    59   am
    18    41    40    1
    19    41    43   am
    20    59    58    1
    21     2     3    1
    22     2     5    1
    23     2     1    1
    24     3    10   am
    25     5     6    1
    26    13    12    2
    27    58    57    1
    28    10    11    1
    29    11    12    1
    30    11    14    1
    31     6     7    1
    32    57    54    1
    33    12    19   am
    34     7     9   ar
    35     7     8   ar
    36    53    54    1
    37    35    33    1
    38    15    14    1
    39    15    16    1
    40    33    32    1
    41    54    55    1
    42    18    16   ar
    43    19    20    1
    44    16    17   ar
    45    20    21    1
    46    20    23    1
    47    21    22    2
    48    21    28   am
    49    28    29    1
    50    32    29    1
    51    32    34    1
    52    29    30    1
    53    55    56    2
    54    23    24    1
    55    69    68   ar
    56    30    31    2
    57    24    25    1
    58    68    70   ar
    59    68    67    1
    60    66    67    1
    61    66    63    1
    62    26    25   ar
    63    62    63    1
    64    25    27   ar
    65    75    76    1
    66    75    72    1
    67    63    64    1
    68    71    64   am
    69    71    72    1
    70    77    76    1
    71    77    78    1
    72    79    78    1
    73    64    65    2
    74    72    73    1
    75    73    74    2
    76    87    86   ar
    77    86    88   ar
    78    86    85    1
    79    85    84    1
    80    84    81    1
    81    80    81    1
    82    81    82    1
    83    82    83    2
