@<TRIPOS>MOLECULE
tmp/4jkvA04.pdb
 104 98 0 0 0
SMALL
GASTEIGER

@<TRIPOS>ATOM
      1  N        -41.0240   13.1350   24.7800 N.3   198  ILE198     -0.1245
      2  CA       -40.4580   11.9820   25.4920 C.3   198  ILE198      0.1561
      3  C        -38.9270   12.0290   25.3270 C.2   198  ILE198      0.2260
      4  O        -38.2000   11.8100   26.2920 O.2   198  ILE198     -0.2867
      5  CB       -41.0800   10.6480   24.9930 C.3   198  ILE198      0.0252
      6  CG1      -42.5530   10.5250   25.4310 C.3   198  ILE198      0.0019
      7  CG2      -40.2690    9.4210   25.4370 C.3   198  ILE198      0.0019
      8  CD1      -43.3440    9.6760   24.5210 C.3   198  ILE198      0.0001
      9  N        -37.5620   14.7940   27.5500 N.3   201  LEU201     -0.1231
     10  CA       -37.7800   14.4790   28.9670 C.3   201  LEU201      0.1693
     11  C        -36.9940   13.2570   29.4840 C.2   201  LEU201      0.2591
     12  O        -36.9190   13.0750   30.6990 O.2   201  LEU201     -0.2718
     13  CB       -39.2820   14.2580   29.2470 C.3   201  LEU201      0.0284
     14  CG       -40.2000   15.4740   29.2150 C.3   201  LEU201      0.0019
     15  CD1      -41.6540   15.0440   29.3650 C.3   201  LEU201      0.0001
     16  CD2      -39.8280   16.5040   30.2940 C.3   201  LEU201      0.0001
     17  N        -36.4350   12.4250   28.5920 N.am  202  ALA202     -0.1980
     18  CA       -35.7030   11.2030   28.9580 C.3   202  ALA202      0.1597
     19  C        -34.5690   11.4590   29.9630 C.2   202  ALA202      0.2287
     20  O        -34.3620   10.6530   30.8700 O.2   202  ALA202     -0.2864
     21  CB       -35.1410   10.5440   27.7170 C.3   202  ALA202      0.0319
     22  N        -34.4490   13.4190   32.4250 N.3   204  PHE204     -0.1227
     23  CA       -34.8690   13.6850   33.7980 C.3   204  PHE204      0.1736
     24  C        -34.9920   12.4020   34.6280 C.2   204  PHE204      0.2595
     25  O        -35.0390   12.4950   35.8550 O.2   204  PHE204     -0.2718
     26  CB       -36.1360   14.5530   33.8430 C.3   204  PHE204      0.0547
     27  CG       -35.8920   15.8610   33.1210 C.ar  204  PHE204     -0.0202
     28  CD1      -36.4600   16.1030   31.8760 C.ar  204  PHE204     -0.0042
     29  CD2      -35.0050   16.8030   33.6330 C.ar  204  PHE204     -0.0042
     30  CE1      -36.1820   17.2810   31.1730 C.ar  204  PHE204     -0.0003
     31  CE2      -34.7250   17.9780   32.9290 C.ar  204  PHE204     -0.0003
     32  CZ       -35.3150   18.2080   31.7010 C.ar  204  PHE204     -0.0000
     33  N        -34.9210   11.2180   33.9850 N.am  205  MET205     -0.1965
     34  CA       -34.8970    9.9270   34.6760 C.3   205  MET205      0.1736
     35  C        -33.5450    9.7790   35.4220 C.2   205  MET205      0.2616
     36  O        -32.5500   10.3870   35.0090 O.2   205  MET205     -0.2715
     37  CB       -35.1280    8.7770   33.6920 C.3   205  MET205      0.0427
     38  CG       -36.5400    8.7200   33.1670 C.3   205  MET205      0.0599
     39  SD       -36.7570    7.4440   31.9060 S.3   205  MET205     -0.1393
     40  CE       -37.1500    6.0370   32.9520 C.3   205  MET205      0.0692
     41  N        -33.5170    9.0170   36.5320 N.am  206  ASP206     -0.1957
     42  CA       -32.3220    8.8660   37.3700 C.3   206  ASP206      0.1840
     43  C        -31.0870    8.3760   36.5950 C.2   206  ASP206      0.2623
     44  O        -31.0960    7.2860   36.0120 O.2   206  ASP206     -0.2715
     45  CB       -32.5950    7.9650   38.5870 C.3   206  ASP206      0.1450
     46  CG       -33.0350    8.7260   39.8330 C.2   206  ASP206      0.3671
     47  OD1      -33.2140    9.9690   39.7450 O.co2 206  ASP206     -0.2456
     48  OD2      -33.1990    8.0810   40.9000 O.co2 206  ASP206     -0.2456
     49  N        -30.0610    9.2360   36.5820 N.am  207  GLY207     -0.1940
     50  CA       -28.7760    9.0230   35.9190 C.3   207  GLY207      0.2014
     51  C        -28.8350    8.8710   34.4110 C.2   207  GLY207      0.2638
     52  O        -27.8500    8.4530   33.7990 O.2   207  GLY207     -0.2714
     53  N        -29.9880    9.2060   33.7980 N.am  208  ALA208     -0.1977
     54  CA       -30.2180    9.0790   32.3560 C.3   208  ALA208      0.1597
     55  C        -29.4230   10.0920   31.5510 C.2   208  ALA208      0.2287
     56  O        -28.8260    9.6910   30.5550 O.2   208  ALA208     -0.2864
     57  CB       -31.6960    9.2140   32.0380 C.3   208  ALA208      0.0319
     58  N        -25.9260    8.9470   30.8910 N.3   211  GLU211     -0.1231
     59  CA       -25.9430    7.8030   29.9840 C.3   211  GLU211      0.1699
     60  C        -26.2530    8.2650   28.5460 C.2   211  GLU211      0.2592
     61  O        -25.7360    7.6820   27.5890 O.2   211  GLU211     -0.2718
     62  CB       -26.9730    6.7630   30.4810 C.3   211  GLU211      0.0402
     63  CG       -27.4550    5.7600   29.4420 C.3   211  GLU211      0.1161
     64  CD       -26.5370    4.6080   29.0850 C.2   211  GLU211      0.3649
     65  OE1      -27.0680    3.5650   28.6420 O.co2 211  GLU211     -0.2457
     66  OE2      -25.2990    4.7410   29.2210 O.co2 211  GLU211     -0.2457
     67  N        -27.0750    9.3180   28.4020 N.am  212  ILE212     -0.1980
     68  CA       -27.4550    9.8190   27.0830 C.3   212  ILE212      0.1595
     69  C        -26.3050   10.6040   26.4450 C.2   212  ILE212      0.2287
     70  O        -25.9600   10.3330   25.3110 O.2   212  ILE212     -0.2864
     71  CB       -28.7830   10.6670   27.1250 C.3   212  ILE212      0.0276
     72  CG1      -30.0140    9.7810   27.4730 C.3   212  ILE212      0.0022
     73  CG2      -29.0310   11.4390   25.7960 C.3   212  ILE212      0.0022
     74  CD1      -31.2280   10.5480   28.0190 C.3   212  ILE212      0.0001
     75  N        -28.2010    4.4620   23.6860 N.3   232  SER232     -0.1217
     76  CA       -29.0330    5.4670   24.3780 C.3   232  SER232      0.1889
     77  C        -28.9970    6.8480   23.7000 C.2   232  SER232      0.2288
     78  O        -30.0370    7.4920   23.5800 O.2   232  SER232     -0.2866
     79  CB       -28.6230    5.5990   25.8420 C.3   232  SER232      0.2089
     80  OG       -28.5600    4.3250   26.4590 O.3   232  SER232     -0.2183
     81  N        -30.8190    6.5950   20.2490 N.3   235  ILE235     -0.1231
     82  CA       -32.2580    6.4160   20.4540 C.3   235  ILE235      0.1692
     83  C        -32.8840    7.8040   20.7150 C.2   235  ILE235      0.2591
     84  O        -33.8750    8.1460   20.0800 O.2   235  ILE235     -0.2718
     85  CB       -32.5730    5.3840   21.5860 C.3   235  ILE235      0.0266
     86  CG1      -32.2530    3.9450   21.1040 C.3   235  ILE235      0.0019
     87  CG2      -34.0390    5.4950   22.0800 C.3   235  ILE235      0.0020
     88  CD1      -32.0900    2.8980   22.2270 C.3   235  ILE235      0.0001
     89  N        -32.2560    8.6110   21.5840 N.am  236  ILE236     -0.1980
     90  CA       -32.7200    9.9550   21.9630 C.3   236  ILE236      0.1595
     91  C        -32.6750   10.8790   20.7520 C.2   236  ILE236      0.2287
     92  O        -33.6300   11.6140   20.5190 O.2   236  ILE236     -0.2864
     93  CB       -31.9170   10.4970   23.1910 C.3   236  ILE236      0.0276
     94  CG1      -32.3460    9.7620   24.4820 C.3   236  ILE236      0.0022
     95  CG2      -32.0210   12.0200   23.3610 C.3   236  ILE236      0.0022
     96  CD1      -33.8810    9.6070   24.6600 C.3   236  ILE236      0.0001
     97  N        -35.6080    9.8110   18.2780 N.3   239  ILE239     -0.1245
     98  CA       -36.8800   10.2900   18.8330 C.3   239  ILE239      0.1561
     99  C        -37.0050   11.8300   18.6440 C.2   239  ILE239      0.2260
    100  O        -38.0160   12.2790   18.1340 O.2   239  ILE239     -0.2867
    101  CB       -37.0680    9.8600   20.3230 C.3   239  ILE239      0.0252
    102  CG1      -37.1780    8.3190   20.4650 C.3   239  ILE239      0.0019
    103  CG2      -38.2770   10.5590   20.9630 C.3   239  ILE239      0.0019
    104  CD1      -37.0500    7.8120   21.9680 C.3   239  ILE239      0.0001
@<TRIPOS>BOND
     1   100    99    2
     2    97    98    1
     3    99    98    1
     4    98   101    1
     5    84    83    2
     6    81    82    1
     7   101   102    1
     8   101   103    1
     9    82    83    1
    10    82    85    1
    11   102   104    1
    12    92    91    2
    13    83    89   am
    14    91    90    1
    15    86    85    1
    16    86    88    1
    17    89    90    1
    18    85    87    1
    19    90    93    1
    20    93    95    1
    21    93    94    1
    22    78    77    2
    23    75    76    1
    24    77    76    1
    25    76    79    1
    26    94    96    1
    27     8     6    1
    28     1     2    1
    29     5     6    1
    30     5     7    1
    31     5     2    1
    32    70    69    2
    33     3     2    1
    34     3     4    2
    35    73    71    1
    36    79    80    1
    37    69    68    1
    38    68    71    1
    39    68    67    1
    40    71    72    1
    41    72    74    1
    42     9    10    1
    43    61    60    2
    44    21    18    1
    45    67    60   am
    46    60    59    1
    47    17    18    1
    48    17    11   am
    49    65    64   ar
    50    18    19    1
    51    10    13    1
    52    10    11    1
    53    64    66   ar
    54    64    63    1
    55    14    13    1
    56    14    15    1
    57    14    16    1
    58    63    62    1
    59    11    12    2
    60    19    20    2
    61    59    62    1
    62    59    58    1
    63    56    55    2
    64    30    32   ar
    65    30    28   ar
    66    55    54    1
    67    32    31   ar
    68    28    27   ar
    69    39    40    1
    70    39    38    1
    71    57    54    1
    72    54    53    1
    73    22    23    1
    74    31    29   ar
    75    27    29   ar
    76    27    26    1
    77    38    37    1
    78    37    34    1
    79    23    26    1
    80    23    24    1
    81    53    51   am
    82    52    51    2
    83    33    24   am
    84    33    34    1
    85    51    50    1
    86    24    25    2
    87    34    35    1
    88    36    35    2
    89    35    41   am
    90    50    49    1
    91    44    43    2
    92    41    42    1
    93    49    43   am
    94    43    42    1
    95    42    45    1
    96    45    46    1
    97    47    46   ar
    98    46    48   ar
