@<TRIPOS>MOLECULE
tmp/4jkvB01.pdb
 85 78 0 0 0
SMALL
GASTEIGER

@<TRIPOS>ATOM
      1  N        -27.4360   14.1730  -19.3160 N.3   197  ILE197     -0.1245
      2  CA       -26.7440   15.4420  -19.6120 C.3   197  ILE197      0.1561
      3  C        -25.5690   15.5870  -18.6400 C.2   197  ILE197      0.2260
      4  O        -24.4550   15.9050  -19.0810 O.2   197  ILE197     -0.2867
      5  CB       -27.6870   16.6840  -19.5530 C.3   197  ILE197      0.0252
      6  CG1      -28.8080   16.6070  -20.6150 C.3   197  ILE197      0.0019
      7  CG2      -26.9000   18.0080  -19.6740 C.3   197  ILE197      0.0019
      8  CD1      -29.9220   17.6790  -20.4440 C.3   197  ILE197      0.0001
      9  N        -21.7190   15.7000  -19.9470 N.3   201  ALA201     -0.1245
     10  CA       -21.0720   17.0160  -19.9540 C.3   201  ALA201      0.1562
     11  C        -19.5380   16.9510  -20.0320 C.2   201  ALA201      0.2260
     12  O        -18.9390   17.8570  -20.6180 O.2   201  ALA201     -0.2867
     13  CB       -21.4900   17.8190  -18.7430 C.3   201  ALA201      0.0290
     14  N        -17.5550   17.2500  -23.6230 N.3   204  MET204     -0.1230
     15  CA       -17.3180   18.5560  -24.2500 C.3   204  MET204      0.1702
     16  C        -15.8130   18.8700  -24.1390 C.2   204  MET204      0.2592
     17  O        -15.1630   18.3510  -23.2270 O.2   204  MET204     -0.2718
     18  CB       -18.1620   19.6510  -23.5840 C.3   204  MET204      0.0401
     19  CG       -19.6440   19.4630  -23.7620 C.3   204  MET204      0.0596
     20  SD       -20.5910   20.8100  -23.0180 S.3   204  MET204     -0.1393
     21  CE       -20.2930   22.1360  -24.2310 C.3   204  MET204      0.0692
     22  N        -15.2520   19.6750  -25.0700 N.am  205  ASP205     -0.1960
     23  CA       -13.8140   19.9750  -25.1000 C.3   205  ASP205      0.1840
     24  C        -13.3260   20.6030  -23.7810 C.2   205  ASP205      0.2623
     25  O        -13.8450   21.6380  -23.3480 O.2   205  ASP205     -0.2715
     26  CB       -13.4480   20.8560  -26.3120 C.3   205  ASP205      0.1450
     27  CG       -13.7380   20.2110  -27.6680 C.2   205  ASP205      0.3671
     28  OD1      -13.3920   19.0190  -27.8500 O.co2 205  ASP205     -0.2456
     29  OD2      -14.2880   20.9080  -28.5550 O.co2 205  ASP205     -0.2456
     30  N        -12.3770   19.9070  -23.1380 N.am  206  GLY206     -0.1940
     31  CA       -11.7690   20.2770  -21.8600 C.3   206  GLY206      0.2014
     32  C        -12.7100   20.3500  -20.6660 C.2   206  GLY206      0.2638
     33  O        -12.3570   20.9340  -19.6360 O.2   206  GLY206     -0.2714
     34  N        -13.9080   19.7450  -20.7830 N.am  207  ALA207     -0.1977
     35  CA       -14.9340   19.7940  -19.7400 C.3   207  ALA207      0.1597
     36  C        -14.6280   18.8930  -18.5500 C.2   207  ALA207      0.2287
     37  O        -14.7850   19.3650  -17.4280 O.2   207  ALA207     -0.2864
     38  CB       -16.2910   19.4490  -20.3140 C.3   207  ALA207      0.0319
     39  N        -12.3650   20.5850  -16.1620 N.3   210  GLU210     -0.1231
     40  CA       -13.0600   21.7120  -15.5560 C.3   210  GLU210      0.1699
     41  C        -14.0030   21.2440  -14.4330 C.2   210  GLU210      0.2592
     42  O        -14.1060   21.9010  -13.3960 O.2   210  GLU210     -0.2718
     43  CB       -13.8400   22.4780  -16.6490 C.3   210  GLU210      0.0402
     44  CG       -14.8340   23.5110  -16.1440 C.3   210  GLU210      0.1161
     45  CD       -14.3040   24.7160  -15.3860 C.2   210  GLU210      0.3649
     46  OE1      -15.1470   25.5390  -14.9660 O.co2 210  GLU210     -0.2457
     47  OE2      -13.0690   24.8680  -15.2420 O.co2 210  GLU210     -0.2457
     48  N        -14.6840   20.1140  -14.6490 N.am  211  ILE211     -0.1980
     49  CA       -15.6590   19.5620  -13.7100 C.3   211  ILE211      0.1595
     50  C        -14.9890   18.9270  -12.4870 C.2   211  ILE211      0.2287
     51  O        -15.3560   19.2230  -11.3580 O.2   211  ILE211     -0.2864
     52  CB       -16.5630   18.5200  -14.4460 C.3   211  ILE211      0.0276
     53  CG1      -17.4670   19.2050  -15.5150 C.3   211  ILE211      0.0022
     54  CG2      -17.3900   17.6490  -13.4550 C.3   211  ILE211      0.0022
     55  CD1      -17.8760   18.3100  -16.6790 C.3   211  ILE211      0.0001
     56  N        -18.6530   24.5010  -11.8160 N.3   231  SER231     -0.1217
     57  CA       -18.8080   23.3190  -12.6760 C.3   231  SER231      0.1889
     58  C        -19.0000   21.9830  -11.9150 C.2   231  SER231      0.2288
     59  O        -19.8200   21.1680  -12.3380 O.2   231  SER231     -0.2866
     60  CB       -17.6290   23.1980  -13.6330 C.3   231  SER231      0.2089
     61  OG       -17.5240   24.4050  -14.3670 O.3   231  SER231     -0.2183
     62  N        -22.4890   21.9810  -10.0350 N.3   234  ILE234     -0.1231
     63  CA       -23.5070   21.9520  -11.0850 C.3   234  ILE234      0.1692
     64  C        -23.7030   20.5160  -11.5660 C.2   234  ILE234      0.2591
     65  O        -24.8420   20.0600  -11.6030 O.2   234  ILE234     -0.2718
     66  CB       -23.1860   22.9260  -12.2650 C.3   234  ILE234      0.0266
     67  CG1      -23.4180   24.3910  -11.8370 C.3   234  ILE234      0.0019
     68  CG2      -24.0110   22.5980  -13.5400 C.3   234  ILE234      0.0020
     69  CD1      -22.8160   25.4780  -12.8200 C.3   234  ILE234      0.0001
     70  N        -22.6220   19.8090  -11.9200 N.am  235  ILE235     -0.1980
     71  CA       -22.7130   18.4260  -12.4130 C.3   235  ILE235      0.1595
     72  C        -23.2800   17.5230  -11.3160 C.2   235  ILE235      0.2287
     73  O        -24.2280   16.7810  -11.5930 O.2   235  ILE235     -0.2864
     74  CB       -21.3700   17.9030  -13.0260 C.3   235  ILE235      0.0276
     75  CG1      -21.0610   18.6400  -14.3480 C.3   235  ILE235      0.0022
     76  CG2      -21.3550   16.3780  -13.2520 C.3   235  ILE235      0.0022
     77  CD1      -22.2670   18.7600  -15.3710 C.3   235  ILE235      0.0001
     78  N        -27.0300   18.1280  -11.0410 N.3   238  ILE238     -0.1245
     79  CA       -27.7090   17.5070  -12.1790 C.3   238  ILE238      0.1561
     80  C        -27.7560   15.9680  -12.0080 C.2   238  ILE238      0.2260
     81  O        -28.8250   15.3950  -12.1570 O.2   238  ILE238     -0.2867
     82  CB       -27.0630   17.9120  -13.5420 C.3   238  ILE238      0.0252
     83  CG1      -27.1700   19.4320  -13.8060 C.3   238  ILE238      0.0019
     84  CG2      -27.6850   17.1340  -14.6920 C.3   238  ILE238      0.0019
     85  CD1      -26.2460   19.9390  -14.9110 C.3   238  ILE238      0.0001
@<TRIPOS>BOND
     1    29    27   ar
     2    28    27   ar
     3    27    26    1
     4    26    23    1
     5    23    22    1
     6    23    24    1
     7    22    16   am
     8    15    16    1
     9    15    14    1
    10    15    18    1
    11    21    20    1
    12    16    17    2
    13    24    25    2
    14    24    30   am
    15    19    18    1
    16    19    20    1
    17    30    31    1
    18    31    32    1
    19    34    32   am
    20    34    35    1
    21    32    33    2
    22    12    11    2
    23     6     8    1
    24     6     5    1
    25    38    35    1
    26    11    10    1
    27    10     9    1
    28    10    13    1
    29    35    36    1
    30     7     5    1
    31     2     5    1
    32     2     1    1
    33     2     3    1
    34     4     3    2
    35    36    37    2
    36    55    53    1
    37    43    44    1
    38    43    40    1
    39    39    40    1
    40    44    45    1
    41    40    41    1
    42    53    52    1
    43    45    47   ar
    44    45    46   ar
    45    77    75    1
    46    85    83    1
    47    84    82    1
    48    48    41   am
    49    48    49    1
    50    52    49    1
    51    52    54    1
    52    41    42    2
    53    61    60    1
    54    75    74    1
    55    83    82    1
    56    49    50    1
    57    60    57    1
    58    82    79    1
    59    68    66    1
    60    76    74    1
    61    74    71    1
    62    69    67    1
    63    57    58    1
    64    57    56    1
    65    50    51    2
    66    71    70    1
    67    71    72    1
    68    59    58    2
    69    66    67    1
    70    66    63    1
    71    79    80    1
    72    79    78    1
    73    81    80    2
    74    70    64   am
    75    65    64    2
    76    73    72    2
    77    64    63    1
    78    63    62    1
