@<TRIPOS>MOLECULE
tmp/4jkvA02.pdb
 98 94 0 0 0
SMALL
GASTEIGER

@<TRIPOS>ATOM
      1  N        -21.3000   22.3560   13.0070 N.3   314  TYR314     -0.1227
      2  CA       -22.4900   23.1670   12.7180 C.3   314  TYR314      0.1736
      3  C        -23.0870   22.8840   11.3180 C.2   314  TYR314      0.2595
      4  O        -24.3100   22.9300   11.1800 O.2   314  TYR314     -0.2718
      5  CB       -22.2000   24.6780   12.9050 C.3   314  TYR314      0.0548
      6  CG       -21.4520   25.3370   11.7620 C.ar  314  TYR314     -0.0200
      7  CD1      -20.0690   25.2320   11.6540 C.ar  314  TYR314     -0.0009
      8  CD2      -22.1370   26.0240   10.7580 C.ar  314  TYR314     -0.0009
      9  CE1      -19.3820   25.7940   10.5760 C.ar  314  TYR314      0.0417
     10  CE2      -21.4650   26.5790    9.6700 C.ar  314  TYR314      0.0417
     11  CZ       -20.0860   26.4660    9.5850 C.ar  314  TYR314      0.1957
     12  OH       -19.4310   27.0260    8.5120 O.3   314  TYR314     -0.2866
     13  N        -22.2550   22.5670   10.3030 N.am  315  ARG315     -0.1980
     14  CA       -22.7440   22.2910    8.9330 C.3   315  ARG315      0.1597
     15  C        -23.8330   21.2040    8.8880 C.2   315  ARG315      0.2287
     16  O        -24.7150   21.2690    8.0290 O.2   315  ARG315     -0.2864
     17  CB       -21.5940   21.8960    7.9910 C.3   315  ARG315      0.0334
     18  CG       -20.7880   23.0960    7.5000 C.3   315  ARG315      0.0492
     19  CD       -19.6960   22.7150    6.5110 C.3   315  ARG315      0.2205
     20  NE       -18.8770   23.8750    6.1510 N.pl3 315  ARG315     -0.0865
     21  CZ       -17.7930   24.2690    6.8200 C.cat 315  ARG315      0.5346
     22  NH1      -17.3830   23.5990    7.8930 N.pl3 315  ARG315      0.1354
     23  NH2      -17.1140   25.3390    6.4240 N.pl3 315  ARG315      0.1354
     24  N        -26.9600   22.7880    9.9450 N.3   318  ALA318     -0.1231
     25  CA       -27.3940   23.6530    8.8460 C.3   318  ALA318      0.1694
     26  C        -28.0900   22.8380    7.7330 C.2   318  ALA318      0.2592
     27  O        -29.2200   23.1550    7.3460 O.2   318  ALA318     -0.2718
     28  CB       -26.2080   24.4190    8.2920 C.3   318  ALA318      0.0304
     29  N        -27.4520   21.7480    7.3050 N.am  319  GLY319     -0.1957
     30  CA       -27.9980   20.8850    6.2750 C.3   319  GLY319      0.1869
     31  C        -29.2160   20.0810    6.6710 C.2   319  GLY319      0.2309
     32  O        -30.1180   19.9120    5.8480 O.2   319  GLY319     -0.2863
     33  N        -31.6540   23.4310    9.7820 N.3   322  LEU322     -0.1231
     34  CA       -31.9100   24.7650    9.2450 C.3   322  LEU322      0.1693
     35  C        -32.5020   24.7260    7.8190 C.2   322  LEU322      0.2591
     36  O        -33.5650   25.3180    7.6070 O.2   322  LEU322     -0.2718
     37  CB       -30.6250   25.6150    9.2630 C.3   322  LEU322      0.0284
     38  CG       -30.8110   27.0830    8.8470 C.3   322  LEU322      0.0019
     39  CD1      -31.5500   27.8500    9.9050 C.3   322  LEU322      0.0001
     40  CD2      -29.4900   27.7380    8.5440 C.3   322  LEU322      0.0001
     41  N        -31.8310   24.0460    6.8580 N.am  323  ALA323     -0.1980
     42  CA       -32.3150   23.9790    5.4760 C.3   323  ALA323      0.1597
     43  C        -33.7060   23.3180    5.3920 C.2   323  ALA323      0.2287
     44  O        -34.5880   23.9740    4.8320 O.2   323  ALA323     -0.2864
     45  CB       -31.3220   23.2660    4.5870 C.3   323  ALA323      0.0319
     46  N        -36.3440   25.7180    6.7520 N.3   326  GLY326     -0.1210
     47  CA       -36.4100   26.8160    5.7930 C.3   326  GLY326      0.1956
     48  C        -37.2600   26.4650    4.5850 C.2   326  GLY326      0.2611
     49  O        -38.0470   27.2910    4.1310 O.2   326  GLY326     -0.2717
     50  N        -37.1350   25.2170    4.0830 N.am  327  LEU327     -0.1979
     51  CA       -37.9150   24.6850    2.9670 C.3   327  LEU327      0.1596
     52  C        -39.4070   24.5830    3.3750 C.2   327  LEU327      0.2287
     53  O        -40.2800   24.8970    2.5490 O.2   327  LEU327     -0.2864
     54  CB       -37.3300   23.3080    2.5300 C.3   327  LEU327      0.0297
     55  CG       -38.0880   22.3290    1.5500 C.3   327  LEU327      0.0022
     56  CD1      -39.1530   21.4500    2.2750 C.3   327  LEU327      0.0001
     57  CD2      -38.5820   23.0030    0.2460 C.3   327  LEU327      0.0001
     58  N        -40.9900   28.1160    3.2230 N.3   330  ILE330     -0.1245
     59  CA       -41.3130   28.6210    1.8860 C.3   330  ILE330      0.1561
     60  C        -42.5430   27.8690    1.3140 C.2   330  ILE330      0.2260
     61  O        -43.4220   28.5260    0.7760 O.2   330  ILE330     -0.2867
     62  CB       -40.1120   28.6760    0.8810 C.3   330  ILE330      0.0252
     63  CG1      -39.8350   27.3530    0.1620 C.3   330  ILE330      0.0019
     64  CG2      -38.8310   29.2770    1.4910 C.3   330  ILE330      0.0019
     65  CD1      -40.2900   27.3530   -1.2980 C.3   330  ILE330      0.0001
     66  N        -36.7900   28.6470   13.1410 N.3   384  PHE384     -0.1241
     67  CA       -35.8450   28.8490   12.0320 C.3   384  PHE384      0.1605
     68  C        -34.8450   29.9400   12.3390 C.2   384  PHE384      0.2264
     69  O        -33.6380   29.7380   12.1250 O.2   384  PHE384     -0.2867
     70  CB       -36.5760   29.1800   10.7230 C.3   384  PHE384      0.0534
     71  CG       -35.6470   29.4730    9.5690 C.ar  384  PHE384     -0.0203
     72  CD1      -35.0410   28.4370    8.8600 C.ar  384  PHE384     -0.0042
     73  CD2      -35.3710   30.7810    9.1930 C.ar  384  PHE384     -0.0042
     74  CE1      -34.1700   28.7070    7.8020 C.ar  384  PHE384     -0.0003
     75  CE2      -34.4840   31.0510    8.1430 C.ar  384  PHE384     -0.0003
     76  CZ       -33.8960   30.0100    7.4500 C.ar  384  PHE384     -0.0000
     77  N        -30.8920   29.6260   12.7000 N.3   388  PHE388     -0.1241
     78  CA       -30.1410   30.4960   11.7950 C.3   388  PHE388      0.1605
     79  C        -29.0710   31.2550   12.5580 C.2   388  PHE388      0.2264
     80  O        -27.9660   31.3850   12.0420 O.2   388  PHE388     -0.2867
     81  CB       -31.0540   31.4700   11.0080 C.3   388  PHE388      0.0534
     82  CG       -30.3410   32.0440    9.8070 C.ar  388  PHE388     -0.0203
     83  CD1      -30.3390   31.3670    8.5910 C.ar  388  PHE388     -0.0042
     84  CD2      -29.5890   33.2160    9.9140 C.ar  388  PHE388     -0.0042
     85  CE1      -29.6220   31.8650    7.4940 C.ar  388  PHE388     -0.0003
     86  CE2      -28.8660   33.7090    8.8190 C.ar  388  PHE388     -0.0003
     87  CZ       -28.8890   33.0320    7.6160 C.ar  388  PHE388     -0.0000
     88  N        -26.2720   28.7630   13.2430 N.3   391  PHE391     -0.1241
     89  CA       -25.5550   28.4720   12.0010 C.3   391  PHE391      0.1605
     90  C        -24.5810   29.5940   11.6600 C.2   391  PHE391      0.2264
     91  O        -23.4530   29.3440   11.2160 O.2   391  PHE391     -0.2867
     92  CB       -26.5670   28.2940   10.8530 C.3   391  PHE391      0.0534
     93  CG       -26.0460   28.5770    9.4590 C.ar  391  PHE391     -0.0203
     94  CD1      -25.1420   27.7130    8.8450 C.ar  391  PHE391     -0.0042
     95  CD2      -26.4660   29.7020    8.7570 C.ar  391  PHE391     -0.0042
     96  CE1      -24.6750   27.9660    7.5530 C.ar  391  PHE391     -0.0003
     97  CE2      -26.0090   29.9470    7.4610 C.ar  391  PHE391     -0.0003
     98  CZ       -25.1210   29.0750    6.8650 C.ar  391  PHE391     -0.0000
@<TRIPOS>BOND
     1    65    63    1
     2    63    62    1
     3    57    55    1
     4    61    60    2
     5    62    64    1
     6    62    59    1
     7    60    59    1
     8    55    56    1
     9    55    54    1
    10    59    58    1
    11    54    51    1
    12    53    52    2
    13    51    52    1
    14    51    50    1
    15    50    48   am
    16    49    48    2
    17    48    47    1
    18    45    42    1
    19    44    43    2
    20    43    42    1
    21    42    41    1
    22    47    46    1
    23    32    31    2
    24    20    19    1
    25    20    21    2
    26    30    31    1
    27    30    29    1
    28    23    21    1
    29    19    18    1
    30    21    22    1
    31    41    35   am
    32    98    97   ar
    33    98    96   ar
    34    29    26   am
    35    27    26    2
    36    76    74   ar
    37    76    75   ar
    38    97    95   ar
    39    85    87   ar
    40    85    83   ar
    41    18    17    1
    42    96    94   ar
    43    36    35    2
    44    87    86   ar
    45    26    25    1
    46    74    72   ar
    47    35    34    1
    48    17    14    1
    49    16    15    2
    50    75    73   ar
    51    28    25    1
    52    12    11    1
    53    40    38    1
    54    83    82   ar
    55    95    93   ar
    56    86    84   ar
    57    94    93   ar
    58    25    24    1
    59    38    37    1
    60    38    39    1
    61    72    71   ar
    62    15    14    1
    63    14    13    1
    64    73    71   ar
    65    34    37    1
    66    34    33    1
    67    93    92    1
    68    71    70    1
    69    11    10   ar
    70    11     9   ar
    71    10     8   ar
    72    82    84   ar
    73    82    81    1
    74    13     3   am
    75     9     7   ar
    76    70    67    1
    77     8     6   ar
    78    92    89    1
    79    81    78    1
    80     4     3    2
    81    91    90    2
    82     3     2    1
    83     7     6   ar
    84    90    89    1
    85     6     5    1
    86    78    79    1
    87    78    77    1
    88    89    88    1
    89    67    68    1
    90    67    66    1
    91    80    79    2
    92    69    68    2
    93     2     5    1
    94     2     1    1
