@<TRIPOS>MOLECULE
tmp/4jkvA01.pdb
 90 84 0 0 0
SMALL
GASTEIGER

@<TRIPOS>ATOM
      1  N        -66.5430   26.9470    9.9520 N.3   364  GLU364     -0.1245
      2  CA       -65.9610   26.7660   11.2760 C.3   364  GLU364      0.1567
      3  C        -64.6270   26.0050   11.2410 C.2   364  GLU364      0.2260
      4  O        -63.6630   26.4640   11.8630 O.2   364  GLU364     -0.2867
      5  CB       -66.9500   26.0650   12.2260 C.3   364  GLU364      0.0388
      6  CG       -66.5990   26.2090   13.7020 C.3   364  GLU364      0.1160
      7  CD       -66.1800   27.6000   14.1510 C.2   364  GLU364      0.3649
      8  OE1      -65.0020   27.7600   14.5510 O.co2 364  GLU364     -0.2457
      9  OE2      -67.0070   28.5370   14.0520 O.co2 364  GLU364     -0.2457
     10  N        -61.9700   28.0970    9.4980 N.3   367  LEU367     -0.1231
     11  CA       -61.5560   29.2180   10.3250 C.3   367  LEU367      0.1693
     12  C        -60.5070   28.7710   11.3340 C.2   367  LEU367      0.2591
     13  O        -59.4480   29.4020   11.3980 O.2   367  LEU367     -0.2718
     14  CB       -62.7480   29.8960   11.0380 C.3   367  LEU367      0.0284
     15  CG       -62.4060   30.9880   12.0830 C.3   367  LEU367      0.0019
     16  CD1      -61.7130   32.1990   11.4440 C.3   367  LEU367      0.0001
     17  CD2      -63.6450   31.4240   12.8440 C.3   367  LEU367      0.0001
     18  N        -60.7640   27.6870   12.0990 N.am  368  ARG368     -0.1980
     19  CA       -59.7570   27.3210   13.0850 C.3   368  ARG368      0.1597
     20  C        -58.5400   26.6190   12.4700 C.2   368  ARG368      0.2287
     21  O        -57.4490   26.7680   13.0170 O.2   368  ARG368     -0.2864
     22  CB       -60.3060   26.5700   14.2950 C.3   368  ARG368      0.0334
     23  CG       -61.0860   25.3030   14.0800 C.3   368  ARG368      0.0492
     24  CD       -61.0720   24.5000   15.3770 C.3   368  ARG368      0.2205
     25  NE       -60.9260   25.3570   16.5590 N.pl3 368  ARG368     -0.0865
     26  CZ       -60.6070   24.9270   17.7740 C.cat 368  ARG368      0.5346
     27  NH1      -60.4020   23.6370   17.9940 N.pl3 368  ARG368      0.1354
     28  NH2      -60.4920   25.7850   18.7800 N.pl3 368  ARG368      0.1354
     29  N        -56.2820   29.5910   11.6070 N.3   371  ILE371     -0.1231
     30  CA       -55.7010   30.2260   12.7900 C.3   371  ILE371      0.1692
     31  C        -54.5460   29.3430   13.2910 C.2   371  ILE371      0.2592
     32  O        -53.4710   29.8670   13.5820 O.2   371  ILE371     -0.2718
     33  CB       -56.7690   30.5210   13.8770 C.3   371  ILE371      0.0266
     34  CG1      -57.7600   31.6060   13.3770 C.3   371  ILE371      0.0019
     35  CG2      -56.1170   30.9450   15.2190 C.3   371  ILE371      0.0020
     36  CD1      -59.0980   31.7070   14.1470 C.3   371  ILE371      0.0001
     37  N        -54.7430   28.0030   13.2920 N.am  372  PHE372     -0.1976
     38  CA       -53.7320   27.0380   13.7220 C.3   372  PHE372      0.1639
     39  C        -52.5340   27.0170   12.7500 C.2   372  PHE372      0.2290
     40  O        -51.3900   27.0500   13.2150 O.2   372  PHE372     -0.2864
     41  CB       -54.3590   25.6510   13.9070 C.3   372  PHE372      0.0560
     42  CG       -55.0050   25.4810   15.2660 C.ar  372  PHE372     -0.0200
     43  CD1      -54.4400   24.6500   16.2210 C.ar  372  PHE372     -0.0042
     44  CD2      -56.1550   26.1930   15.6090 C.ar  372  PHE372     -0.0042
     45  CE1      -55.0180   24.5270   17.4890 C.ar  372  PHE372     -0.0003
     46  CE2      -56.7440   26.0480   16.8660 C.ar  372  PHE372     -0.0003
     47  CZ       -56.1700   25.2200   17.7990 C.ar  372  PHE372     -0.0000
     48  N        -50.6280   30.3470   13.1410 N.3   375  LEU375     -0.1245
     49  CA       -49.9650   30.2950   14.4420 C.3   375  LEU375      0.1561
     50  C        -48.7240   29.4080   14.3690 C.2   375  LEU375      0.2260
     51  O        -47.6550   29.8170   14.8350 O.2   375  LEU375     -0.2867
     52  CB       -50.9340   29.7710   15.5130 C.3   375  LEU375      0.0270
     53  CG       -50.5930   30.0470   16.9810 C.3   375  LEU375      0.0019
     54  CD1      -50.4060   31.5480   17.2490 C.3   375  LEU375      0.0001
     55  CD2      -51.6850   29.5060   17.8840 C.3   375  LEU375      0.0001
     56  N        -44.5160   30.1600   14.8050 N.3   379  PHE379     -0.1241
     57  CA       -43.6450   29.4060   15.7130 C.3   379  PHE379      0.1605
     58  C        -42.4860   28.7300   14.9720 C.2   379  PHE379      0.2264
     59  O        -41.3520   28.8020   15.4540 O.2   379  PHE379     -0.2867
     60  CB       -44.4370   28.3670   16.5200 C.3   379  PHE379      0.0534
     61  CG       -45.2850   28.9120   17.6540 C.ar  379  PHE379     -0.0203
     62  CD1      -44.7090   29.6320   18.6940 C.ar  379  PHE379     -0.0042
     63  CD2      -46.6440   28.6340   17.7210 C.ar  379  PHE379     -0.0042
     64  CE1      -45.4880   30.1130   19.7500 C.ar  379  PHE379     -0.0003
     65  CE2      -47.4230   29.1180   18.7770 C.ar  379  PHE379     -0.0003
     66  CZ       -46.8390   29.8500   19.7870 C.ar  379  PHE379     -0.0000
     67  N        -44.0220   25.2060   22.2440 N.3   431  GLY431     -0.1225
     68  CA       -45.1700   26.0950   22.0940 C.3   431  GLY431      0.1811
     69  C        -46.0750   25.7060   20.9490 C.2   431  GLY431      0.2280
     70  O        -47.2930   25.8580   21.0620 O.2   431  GLY431     -0.2866
     71  N        -47.9630   22.7670   22.2820 N.3   434  ILE434     -0.1231
     72  CA       -48.9810   23.2400   23.2310 C.3   434  ILE434      0.1692
     73  C        -50.1110   23.9610   22.4520 C.2   434  ILE434      0.2591
     74  O        -51.2840   23.6820   22.7200 O.2   434  ILE434     -0.2718
     75  CB       -48.3960   24.1100   24.4040 C.3   434  ILE434      0.0266
     76  CG1      -47.2100   23.3960   25.1160 C.3   434  ILE434      0.0019
     77  CG2      -49.4890   24.4510   25.4360 C.3   434  ILE434      0.0020
     78  CD1      -46.2550   24.3100   25.9790 C.3   434  ILE434      0.0001
     79  N        -49.7660   24.8420   21.4800 N.am  435  ALA435     -0.1980
     80  CA       -50.7590   25.5590   20.6740 C.3   435  ALA435      0.1597
     81  C        -51.6010   24.5930   19.8240 C.2   435  ALA435      0.2287
     82  O        -52.8310   24.6380   19.9190 O.2   435  ALA435     -0.2864
     83  CB       -50.0890   26.5910   19.7830 C.3   435  ALA435      0.0319
     84  N        -54.4580   22.6110   21.4570 N.3   438  THR438     -0.1218
     85  CA       -55.6850   23.3230   21.8400 C.3   438  THR438      0.1862
     86  C        -56.7900   23.1150   20.7860 C.2   438  THR438      0.2287
     87  O        -57.9150   23.5830   20.9910 O.2   438  THR438     -0.2866
     88  CB       -55.4240   24.8160   22.1110 C.3   438  THR438      0.1770
     89  OG1      -55.0670   25.4820   20.9000 O.3   438  THR438     -0.2211
     90  CG2      -54.3810   25.0500   23.1950 C.3   438  THR438      0.0375
@<TRIPOS>BOND
     1    10    11    1
     2     1     2    1
     3    11    14    1
     4    11    12    1
     5    14    15    1
     6     3     2    1
     7     3     4    2
     8     2     5    1
     9    12    13    2
    10    12    18   am
    11    16    15    1
    12    29    30    1
    13    15    17    1
    14    18    19    1
    15     5     6    1
    16    20    21    2
    17    20    19    1
    18    39    40    2
    19    39    38    1
    20    30    31    1
    21    30    33    1
    22    19    22    1
    23    48    49    1
    24    31    37   am
    25    31    32    2
    26    37    38    1
    27    34    33    1
    28    34    36    1
    29     6     7    1
    30    38    41    1
    31    33    35    1
    32    41    42    1
    33     9     7   ar
    34    23    22    1
    35    23    24    1
    36     7     8   ar
    37    50    49    1
    38    50    51    2
    39    49    52    1
    40    56    57    1
    41    58    59    2
    42    58    57    1
    43    42    44   ar
    44    42    43   ar
    45    24    25    1
    46    52    53    1
    47    44    46   ar
    48    57    60    1
    49    43    45   ar
    50    60    61    1
    51    25    26    2
    52    46    47   ar
    53    53    54    1
    54    53    55    1
    55    45    47   ar
    56    61    63   ar
    57    61    62   ar
    58    63    65   ar
    59    26    27    1
    60    26    28    1
    61    62    64   ar
    62    65    66   ar
    63    64    66   ar
    64    83    80    1
    65    81    82    2
    66    81    80    1
    67    80    79    1
    68    86    87    2
    69    86    85    1
    70    89    88    1
    71    69    70    2
    72    69    68    1
    73    84    85    1
    74    79    73   am
    75    85    88    1
    76    68    67    1
    77    88    90    1
    78    71    72    1
    79    73    74    2
    80    73    72    1
    81    72    75    1
    82    75    76    1
    83    75    77    1
    84    76    78    1
