@<TRIPOS>MOLECULE
tmp/4jl0A00.pdb
 173 165 0 0 0
SMALL
GASTEIGER

@<TRIPOS>ATOM
      1  N        -12.0430    8.3650  -37.6440 N.3    10  GLU10      -0.1245
      2  CA       -12.2690    9.4930  -38.5410 C.3    10  GLU10       0.1567
      3  C        -13.7320    9.6190  -38.9730 C.2    10  GLU10       0.2260
      4  O        -14.2620   10.7270  -39.0690 O.2    10  GLU10      -0.2867
      5  CB       -11.3370    9.4360  -39.7520 C.3    10  GLU10       0.0388
      6  CG       -11.3790   10.6870  -40.6210 C.3    10  GLU10       0.1160
      7  CD       -10.9000   11.9430  -39.8980 C.2    10  GLU10       0.3649
      8  OE1       -9.8770   11.8730  -39.1780 O.co2  10  GLU10      -0.2457
      9  OE2      -11.5520   13.0010  -40.0600 O.co2  10  GLU10      -0.2457
     10  N        -15.7890   10.6730  -36.0900 N.3    13  TYR13      -0.1227
     11  CA       -15.5790   12.1140  -36.0160 C.3    13  TYR13       0.1736
     12  C        -16.4890   12.8610  -36.9690 C.2    13  TYR13       0.2595
     13  O        -17.1260   13.8430  -36.5860 O.2    13  TYR13      -0.2718
     14  CB       -14.1180   12.5030  -36.2670 C.3    13  TYR13       0.0548
     15  CG       -13.9410   13.9990  -36.2430 C.ar   13  TYR13      -0.0200
     16  CD1      -13.9420   14.6990  -35.0390 C.ar   13  TYR13      -0.0009
     17  CD2      -13.8120   14.7210  -37.4250 C.ar   13  TYR13      -0.0009
     18  CE1      -13.8070   16.0760  -35.0130 C.ar   13  TYR13       0.0417
     19  CE2      -13.6710   16.0940  -37.4120 C.ar   13  TYR13       0.0417
     20  CZ       -13.6640   16.7670  -36.2060 C.ar   13  TYR13       0.1957
     21  OH       -13.5410   18.1310  -36.2050 O.3    13  TYR13      -0.2866
     22  N        -16.5510   12.3880  -38.2110 N.am   14  ALA14      -0.1980
     23  CA       -17.4410   12.9700  -39.2140 C.3    14  ALA14       0.1597
     24  C        -18.9190   12.9770  -38.7660 C.2    14  ALA14       0.2287
     25  O        -19.6430   13.9540  -38.9780 O.2    14  ALA14      -0.2864
     26  CB       -17.2690   12.2380  -40.5410 C.3    14  ALA14       0.0319
     27  N        -19.4390   15.6400  -35.9990 N.3    17  PHE17      -0.1227
     28  CA       -19.3480   16.9110  -36.7170 C.3    17  PHE17       0.1736
     29  C        -20.6490   17.2410  -37.4490 C.2    17  PHE17       0.2595
     30  O        -21.1860   18.3610  -37.3360 O.2    17  PHE17      -0.2718
     31  CB       -18.1630   16.8560  -37.6990 C.3    17  PHE17       0.0547
     32  CG       -18.0830   18.0360  -38.6370 C.ar   17  PHE17      -0.0202
     33  CD1      -17.3090   19.1500  -38.3130 C.ar   17  PHE17      -0.0042
     34  CD2      -18.7650   18.0270  -39.8590 C.ar   17  PHE17      -0.0042
     35  CE1      -17.2250   20.2310  -39.1780 C.ar   17  PHE17      -0.0003
     36  CE2      -18.6920   19.1080  -40.7250 C.ar   17  PHE17      -0.0003
     37  CZ       -17.9180   20.2120  -40.3860 C.ar   17  PHE17      -0.0000
     38  N        -21.1600   16.2610  -38.1930 N.am   18  ASN18      -0.1974
     39  CA       -22.4300   16.4230  -38.9140 C.3    18  ASN18       0.1688
     40  C        -23.6350   16.6210  -38.0080 C.2    18  ASN18       0.2292
     41  O        -24.4650   17.4810  -38.2740 O.2    18  ASN18      -0.2864
     42  CB       -22.6620   15.2680  -39.8980 C.3    18  ASN18       0.1181
     43  CG       -21.7070   15.3170  -41.0780 C.2    18  ASN18       0.2629
     44  OD1      -21.4040   16.3900  -41.6060 O.2    18  ASN18      -0.2716
     45  ND2      -21.2240   14.1550  -41.4930 N.am   18  ASN18      -0.0877
     46  N        -23.5150   17.9170  -35.0240 N.3    20  TYR20      -0.1227
     47  CA       -23.3030   19.2910  -34.5700 C.3    20  TYR20       0.1736
     48  C        -23.7650   20.3070  -35.6160 C.2    20  TYR20       0.2595
     49  O        -24.5120   21.2260  -35.2950 O.2    20  TYR20      -0.2718
     50  CB       -21.8300   19.5500  -34.2010 C.3    20  TYR20       0.0548
     51  CG       -21.5950   20.9700  -33.7470 C.ar   20  TYR20      -0.0200
     52  CD1      -21.8770   21.3530  -32.4350 C.ar   20  TYR20      -0.0009
     53  CD2      -21.1030   21.9380  -34.6260 C.ar   20  TYR20      -0.0009
     54  CE1      -21.6780   22.6560  -32.0080 C.ar   20  TYR20       0.0417
     55  CE2      -20.9050   23.2490  -34.2070 C.ar   20  TYR20       0.0417
     56  CZ       -21.1910   23.6020  -32.8970 C.ar   20  TYR20       0.1957
     57  OH       -20.9970   24.8920  -32.4540 O.3    20  TYR20      -0.2866
     58  N        -23.3190   20.1400  -36.8620 N.am   21  GLN21      -0.1979
     59  CA       -23.7830   20.9860  -37.9700 C.3    21  GLN21       0.1601
     60  C        -25.3030   21.0220  -38.0650 C.2    21  GLN21       0.2287
     61  O        -25.8810   22.0300  -38.4760 O.2    21  GLN21      -0.2864
     62  CB       -23.2100   20.5090  -39.3070 C.3    21  GLN21       0.0394
     63  CG       -21.7050   20.6950  -39.4820 C.3    21  GLN21       0.0908
     64  CD       -21.2420   22.1330  -39.3020 C.2    21  GLN21       0.2608
     65  OE1      -21.1230   22.6180  -38.1790 O.2    21  GLN21      -0.2717
     66  NE2      -20.9580   22.8150  -40.4100 N.am   21  GLN21      -0.0878
     67  N        -18.7390   12.8060  -29.5710 N.3    32  PHE32      -0.1241
     68  CA       -17.4490   13.4180  -29.1770 C.3    32  PHE32       0.1605
     69  C        -16.9490   12.9030  -27.8330 C.2    32  PHE32       0.2264
     70  O        -15.7560   12.6240  -27.6770 O.2    32  PHE32      -0.2867
     71  CB       -17.5120   14.9540  -29.1850 C.3    32  PHE32       0.0534
     72  CG       -17.6570   15.5280  -30.5520 C.ar   32  PHE32      -0.0203
     73  CD1      -16.7140   15.2450  -31.5370 C.ar   32  PHE32      -0.0042
     74  CD2      -18.7360   16.3410  -30.8690 C.ar   32  PHE32      -0.0042
     75  CE1      -16.8630   15.7550  -32.8180 C.ar   32  PHE32      -0.0003
     76  CE2      -18.8910   16.8660  -32.1530 C.ar   32  PHE32      -0.0003
     77  CZ       -17.9510   16.5780  -33.1240 C.ar   32  PHE32      -0.0000
     78  N         -9.0190   17.8020  -31.4340 N.3    44  ARG44      -0.1245
     79  CA       -10.2600   18.1010  -32.1390 C.3    44  ARG44       0.1563
     80  C        -11.4730   17.4650  -31.4560 C.2    44  ARG44       0.2260
     81  O        -12.5720   18.0070  -31.5060 O.2    44  ARG44      -0.2867
     82  CB       -10.1690   17.6820  -33.6110 C.3    44  ARG44       0.0307
     83  CG       -10.2770   16.1880  -33.8570 C.3    44  ARG44       0.0489
     84  CD        -9.8970   15.7880  -35.2870 C.3    44  ARG44       0.2205
     85  NE        -9.7870   14.3340  -35.3330 N.pl3  44  ARG44      -0.0865
     86  CZ        -9.8370   13.5810  -36.4260 C.cat  44  ARG44       0.5346
     87  NH1       -9.9840   14.1200  -37.6330 N.pl3  44  ARG44       0.1354
     88  NH2       -9.7410   12.2680  -36.2930 N.pl3  44  ARG44       0.1354
     89  N        -12.4830   19.7680  -28.8060 N.3    47  LEU47      -0.1231
     90  CA       -13.1100   20.9100  -29.3840 C.3    47  LEU47       0.1693
     91  C        -14.5740   20.6080  -29.6680 C.2    47  LEU47       0.2592
     92  O        -15.4150   21.3550  -29.3340 O.2    47  LEU47      -0.2718
     93  CB       -12.3840   21.4200  -30.6300 C.3    47  LEU47       0.0284
     94  CG       -12.8060   22.7940  -31.1310 C.3    47  LEU47       0.0019
     95  CD1      -12.7730   23.8780  -30.1070 C.3    47  LEU47       0.0001
     96  CD2      -12.0230   23.2510  -32.3210 C.3    47  LEU47       0.0001
     97  N        -14.8450   19.4760  -30.2720 N.am   48  GLY48      -0.1957
     98  CA       -16.2020   19.0280  -30.4710 C.3    48  GLY48       0.1869
     99  C        -17.0470   18.8880  -29.2220 C.2    48  GLY48       0.2309
    100  O        -18.1240   19.3670  -29.1720 O.2    48  GLY48      -0.2863
    101  N        -17.7990   22.2510  -27.8840 N.3    51  ALA51      -0.1245
    102  CA       -18.7500   22.9460  -28.6870 C.3    51  ALA51       0.1562
    103  C        -20.2160   22.5480  -28.4590 C.2    51  ALA51       0.2260
    104  O        -21.0820   23.3700  -28.4020 O.2    51  ALA51      -0.2867
    105  CB       -18.3710   22.8530  -30.1270 C.3    51  ALA51       0.0290
    106  N        -21.3890   23.8730  -25.1800 N.3    54  GLN54      -0.1231
    107  CA       -21.6480   25.2710  -25.2830 C.3    54  GLN54       0.1698
    108  C        -23.0440   25.5440  -25.8200 C.2    54  GLN54       0.2592
    109  O        -23.7690   26.2960  -25.2670 O.2    54  GLN54      -0.2718
    110  CB       -20.5680   25.9600  -26.1140 C.3    54  GLN54       0.0381
    111  CG       -20.4130   27.4290  -25.8490 C.3    54  GLN54       0.0905
    112  CD       -19.2470   28.0940  -26.5410 C.2    54  GLN54       0.2608
    113  OE1      -18.2670   27.5090  -26.8320 O.2    54  GLN54      -0.2717
    114  NE2      -19.3730   29.3470  -26.7410 N.am   54  GLN54      -0.0878
    115  N        -23.3850   24.8930  -26.9100 N.am   55  SER55      -0.1952
    116  CA       -24.6650   25.0610  -27.5610 C.3    55  SER55       0.1924
    117  C        -25.8330   24.6490  -26.7120 C.2    55  SER55       0.2314
    118  O        -26.8760   25.1330  -26.8630 O.2    55  SER55      -0.2863
    119  CB       -24.7010   24.2910  -28.8500 C.3    55  SER55       0.2116
    120  OG       -24.1400   25.0220  -29.8810 O.3    55  SER55      -0.2180
    121  N        -12.5550   22.3120  -23.3360 N.3    66  TYR66      -0.1241
    122  CA       -11.6570   23.2740  -23.9700 C.3    66  TYR66       0.1605
    123  C        -10.2850   23.3780  -23.2670 C.2    66  TYR66       0.2264
    124  O         -9.2480   23.4850  -23.9360 O.2    66  TYR66      -0.2867
    125  CB       -12.3070   24.6490  -23.9920 C.3    66  TYR66       0.0534
    126  CG       -13.5340   24.8000  -24.8600 C.ar   66  TYR66      -0.0201
    127  CD1      -13.7000   24.0520  -26.0320 C.ar   66  TYR66      -0.0009
    128  CD2      -14.5110   25.7470  -24.5420 C.ar   66  TYR66      -0.0009
    129  CE1      -14.8080   24.2340  -26.8480 C.ar   66  TYR66       0.0417
    130  CE2      -15.6190   25.9380  -25.3590 C.ar   66  TYR66       0.0417
    131  CZ       -15.7630   25.1720  -26.5080 C.ar   66  TYR66       0.1957
    132  OH       -16.8650   25.3700  -27.3180 O.3    66  TYR66      -0.2866
    133  N         -8.8750   28.4430  -31.0780 N.3    78  ARG78      -0.1245
    134  CA       -10.2940   28.1480  -30.8360 C.3    78  ARG78       0.1563
    135  C        -10.5890   27.8070  -29.3760 C.2    78  ARG78       0.2260
    136  O        -11.6690   28.1270  -28.8690 O.2    78  ARG78      -0.2867
    137  CB       -10.8300   27.0630  -31.8050 C.3    78  ARG78       0.0307
    138  CG       -11.1740   27.6290  -33.1880 C.3    78  ARG78       0.0489
    139  CD       -11.4480   26.5600  -34.2450 C.3    78  ARG78       0.2205
    140  NE       -10.2950   25.6890  -34.4810 N.pl3  78  ARG78      -0.0865
    141  CZ       -10.3260   24.5670  -35.2020 C.cat  78  ARG78       0.5346
    142  NH1      -11.4590   24.1500  -35.7620 N.pl3  78  ARG78       0.1354
    143  NH2       -9.2230   23.8400  -35.3390 N.pl3  78  ARG78       0.1354
    144  N        -13.3370   30.1720  -27.3930 N.3    82  HIS82      -0.1241
    145  CA       -14.6810   29.7240  -26.9860 C.3    82  HIS82       0.1621
    146  C        -14.7640   29.5160  -25.5050 C.2    82  HIS82       0.2264
    147  O        -15.8370   29.6850  -24.9120 O.2    82  HIS82      -0.2867
    148  CB       -15.1330   28.4870  -27.7770 C.3    82  HIS82       0.0745
    149  CG       -15.2290   28.7360  -29.2590 C.ar   82  HIS82       0.0817
    150  ND1      -16.1210   29.5990  -29.7910 N.ar   82  HIS82      -0.2268
    151  CD2      -14.4780   28.2460  -30.3200 C.ar   82  HIS82       0.1154
    152  CE1      -15.9650   29.6430  -31.1190 C.ar   82  HIS82       0.1986
    153  NE2      -14.9600   28.8100  -31.4460 N.ar   82  HIS82      -0.2212
    154  N        -15.8840   32.8000  -24.4970 N.3    85  GLU85      -0.1245
    155  CA       -17.3400   32.9130  -24.6720 C.3    85  GLU85       0.1567
    156  C        -18.1180   32.2910  -23.5230 C.2    85  GLU85       0.2260
    157  O        -19.1130   32.8650  -23.0650 O.2    85  GLU85      -0.2867
    158  CB       -17.7920   32.2540  -25.9680 C.3    85  GLU85       0.0388
    159  CG       -17.5460   33.1110  -27.1850 C.3    85  GLU85       0.1160
    160  CD       -17.9330   32.4120  -28.4590 C.2    85  GLU85       0.3649
    161  OE1      -17.8810   31.1530  -28.5120 O.co2  85  GLU85      -0.2457
    162  OE2      -18.2830   33.1360  -29.4060 O.co2  85  GLU85      -0.2457
    163  N        -11.9080   38.7990  -34.4380 N.3   119  ARG119     -0.1245
    164  CA       -13.0320   38.5120  -33.5390 C.3   119  ARG119      0.1563
    165  C        -12.5300   38.5360  -32.0860 C.2   119  ARG119      0.2260
    166  O        -13.1530   39.1510  -31.2170 O.2   119  ARG119     -0.2867
    167  CB       -13.6770   37.1540  -33.8640 C.3   119  ARG119      0.0307
    168  CG       -14.4800   37.1010  -35.1680 C.3   119  ARG119      0.0489
    169  CD       -15.1960   35.7540  -35.3210 C.3   119  ARG119      0.2205
    170  NE       -16.2220   35.5610  -34.2850 N.pl3 119  ARG119     -0.0865
    171  CZ       -16.6870   34.3810  -33.8640 C.cat 119  ARG119      0.5346
    172  NH1      -16.2390   33.2390  -34.3740 N.pl3 119  ARG119      0.1354
    173  NH2      -17.6200   34.3420  -32.9250 N.pl3 119  ARG119      0.1354
@<TRIPOS>BOND
     1    44    43    2
     2    45    43   am
     3    43    42    1
     4    36    37   ar
     5    36    34   ar
     6     6     7    1
     7     6     5    1
     8    26    23    1
     9    66    64   am
    10    37    35   ar
    11     9     7   ar
    12    42    39    1
    13     7     8   ar
    14    34    32   ar
    15     5     2    1
    16    63    62    1
    17    63    64    1
    18    62    59    1
    19    64    65    2
    20    23    24    1
    21    23    22    1
    22    35    33   ar
    23     4     3    2
    24    25    24    2
    25     3     2    1
    26    39    38    1
    27    39    40    1
    28    32    33   ar
    29    32    31    1
    30     2     1    1
    31    61    60    2
    32    41    40    2
    33    22    12   am
    34    38    29   am
    35    60    59    1
    36    59    58    1
    37    31    28    1
    38    87    86    1
    39    29    30    2
    40    29    28    1
    41    17    19   ar
    42    17    15   ar
    43    19    20   ar
    44    12    13    2
    45    12    11    1
    46    58    48   am
    47    28    27    1
    48    86    88    1
    49    86    85    2
    50    14    15    1
    51    14    11    1
    52    15    16   ar
    53    20    21    1
    54    20    18   ar
    55    10    11    1
    56   142   141    1
    57    48    49    2
    58    48    47    1
    59   143   141    1
    60    85    84    1
    61   169   168    1
    62   169   170    1
    63    84    83    1
    64   141   140    2
    65   168   167    1
    66    16    18   ar
    67    46    47    1
    68    53    55   ar
    69    53    51   ar
    70    47    50    1
    71   140   139    1
    72   163   164    1
    73   172   171    1
    74   170   171    2
    75   139   138    1
    76    55    56   ar
    77    50    51    1
    78   171   173    1
    79   167   164    1
    80    83    82    1
    81    51    52   ar
    82    82    79    1
    83   164   165    1
    84   138   137    1
    85    77    75   ar
    86    77    76   ar
    87    56    57    1
    88    56    54   ar
    89    75    73   ar
    90    52    54   ar
    91    96    94    1
    92    76    74   ar
    93    79    80    1
    94    79    78    1
    95   165   166    2
    96   137   134    1
    97    73    72   ar
    98    81    80    2
    99   153   152   ar
   100   153   151   ar
   101    94    93    1
   102    94    95    1
   103   152   150   ar
   104   133   134    1
   105    74    72   ar
   106   134   135    1
   107    93    90    1
   108    72    71    1
   109    98    97    1
   110    98    99    1
   111   151   149   ar
   112    97    91   am
   113   105   102    1
   114   120   119    1
   115   150   149   ar
   116    91    90    1
   117    91    92    2
   118    67    68    1
   119   162   160   ar
   120    90    89    1
   121   135   136    2
   122   149   148    1
   123    99   100    2
   124    71    68    1
   125    68    69    1
   126   119   116    1
   127   102   103    1
   128   102   101    1
   129   161   160   ar
   130   160   159    1
   131   103   104    2
   132    69    70    2
   133   148   145    1
   134   116   115    1
   135   116   117    1
   136   144   145    1
   137   132   131    1
   138   159   158    1
   139   145   146    1
   140   115   108   am
   141   118   117    2
   142   129   131   ar
   143   129   127   ar
   144   113   112    2
   145   114   112   am
   146   112   111    1
   147   131   130   ar
   148   110   111    1
   149   110   107    1
   150   127   126   ar
   151   158   155    1
   152   108   107    1
   153   108   109    2
   154   146   147    2
   155   130   128   ar
   156   107   106    1
   157   126   128   ar
   158   126   125    1
   159   155   154    1
   160   155   156    1
   161   125   122    1
   162   122   121    1
   163   122   123    1
   164   124   123    2
   165   156   157    2
