@<TRIPOS>MOLECULE
tmp/4jl0B00.pdb
 167 159 0 0 0
SMALL
GASTEIGER

@<TRIPOS>ATOM
      1  N         -6.7310   -5.0710  -12.5580 N.3    10  GLU10      -0.1245
      2  CA        -6.7720   -4.6630  -11.1630 C.3    10  GLU10       0.1567
      3  C         -5.4110   -4.8840  -10.5000 C.2    10  GLU10       0.2260
      4  O         -4.8720   -3.9870   -9.8300 O.2    10  GLU10      -0.2867
      5  CB        -7.8790   -5.4160  -10.4080 C.3    10  GLU10       0.0388
      6  CG        -8.5800   -4.5770   -9.3440 C.3    10  GLU10       0.1160
      7  CD        -9.1570   -3.2940   -9.9190 C.2    10  GLU10       0.3649
      8  OE1      -10.2450   -3.3310  -10.5300 O.co2  10  GLU10      -0.2457
      9  OE2       -8.5050   -2.2490   -9.7790 O.co2  10  GLU10      -0.2457
     10  N         -2.9440   -2.4960  -11.7580 N.3    13  TYR13      -0.1227
     11  CA        -3.1350   -1.2410  -11.0230 C.3    13  TYR13       0.1736
     12  C         -2.4760   -1.2920   -9.6340 C.2    13  TYR13       0.2595
     13  O         -1.7980   -0.3450   -9.2150 O.2    13  TYR13      -0.2718
     14  CB        -4.6280   -0.8750  -10.8920 C.3    13  TYR13       0.0548
     15  CG        -4.8020    0.3130   -9.9810 C.ar   13  TYR13      -0.0200
     16  CD1       -4.3220    1.5610  -10.3560 C.ar   13  TYR13      -0.0009
     17  CD2       -5.3770    0.1780   -8.7110 C.ar   13  TYR13      -0.0009
     18  CE1       -4.4350    2.6570   -9.5210 C.ar   13  TYR13       0.0417
     19  CE2       -5.4930    1.2750   -7.8620 C.ar   13  TYR13       0.0417
     20  CZ        -5.0150    2.5090   -8.2770 C.ar   13  TYR13       0.1957
     21  OH        -5.1120    3.6140   -7.4720 O.3    13  TYR13      -0.2866
     22  N         -2.6830   -2.4010   -8.9260 N.am   14  ALA14      -0.1980
     23  CA        -2.0980   -2.6030   -7.5990 C.3    14  ALA14       0.1597
     24  C         -0.5930   -2.4890   -7.6900 C.2    14  ALA14       0.2287
     25  O          0.0510   -1.9320   -6.7930 O.2    14  ALA14      -0.2864
     26  CB        -2.4960   -3.9610   -7.0460 C.3    14  ALA14       0.0319
     27  N          0.3360    1.2070   -8.1440 N.3    17  PHE17      -0.1227
     28  CA         0.0980    1.7870   -6.8360 C.3    17  PHE17       0.1736
     29  C          1.2870    1.5190   -5.9030 C.2    17  PHE17       0.2595
     30  O          1.8070    2.4410   -5.2750 O.2    17  PHE17      -0.2718
     31  CB        -1.1890    1.1700   -6.2860 C.3    17  PHE17       0.0547
     32  CG        -1.6460    1.7490   -4.9900 C.ar   17  PHE17      -0.0202
     33  CD1       -2.4870    2.8670   -4.9660 C.ar   17  PHE17      -0.0042
     34  CD2       -1.2750    1.1560   -3.7830 C.ar   17  PHE17      -0.0042
     35  CE1       -2.9280    3.3920   -3.7560 C.ar   17  PHE17      -0.0003
     36  CE2       -1.7140    1.6800   -2.5700 C.ar   17  PHE17      -0.0003
     37  CZ        -2.5400    2.7980   -2.5590 C.ar   17  PHE17      -0.0000
     38  N          1.7350    0.2630   -5.8660 N.am   18  ASN18      -0.1974
     39  CA         2.8450   -0.1550   -5.0070 C.3    18  ASN18       0.1688
     40  C          4.2130    0.3960   -5.3570 C.2    18  ASN18       0.2292
     41  O          4.9720    0.7460   -4.4610 O.2    18  ASN18      -0.2864
     42  CB         2.8970   -1.6780   -4.8900 C.3    18  ASN18       0.1181
     43  CG         1.7580   -2.2120   -4.0640 C.2    18  ASN18       0.2629
     44  OD1        1.2140   -1.4970   -3.2230 O.2    18  ASN18      -0.2716
     45  ND2        1.3720   -3.4570   -4.3030 N.am   18  ASN18      -0.0877
     46  N          4.6140    3.2120   -6.8060 N.3    20  TYR20      -0.1227
     47  CA         4.4270    4.6180   -6.4500 C.3    20  TYR20       0.1736
     48  C          4.6110    4.8540   -4.9410 C.2    20  TYR20       0.2595
     49  O          5.1830    5.8610   -4.5480 O.2    20  TYR20      -0.2718
     50  CB         3.0500    5.1280   -6.9040 C.3    20  TYR20       0.0548
     51  CG         2.7390    6.5140   -6.4010 C.ar   20  TYR20      -0.0200
     52  CD1        3.3180    7.6390   -7.0000 C.ar   20  TYR20      -0.0009
     53  CD2        1.8860    6.7060   -5.3130 C.ar   20  TYR20      -0.0009
     54  CE1        3.0450    8.9120   -6.5350 C.ar   20  TYR20       0.0417
     55  CE2        1.6110    7.9750   -4.8330 C.ar   20  TYR20       0.0417
     56  CZ         2.1890    9.0700   -5.4450 C.ar   20  TYR20       0.1957
     57  OH         1.9090   10.3280   -4.9800 O.3    20  TYR20      -0.2866
     58  N          4.1200    3.9340   -4.1100 N.am   21  GLN21      -0.1979
     59  CA         4.3450    4.0060   -2.6560 C.3    21  GLN21       0.1601
     60  C          5.8390    3.9870   -2.3170 C.2    21  GLN21       0.2287
     61  O          6.2900    4.7450   -1.4610 O.2    21  GLN21      -0.2864
     62  CB         3.6460    2.8550   -1.9140 C.3    21  GLN21       0.0394
     63  CG         2.1340    2.7970   -2.0570 C.3    21  GLN21       0.0908
     64  CD         1.4310    4.0400   -1.5480 C.2    21  GLN21       0.2608
     65  OE1        0.8240    4.7700   -2.3180 O.2    21  GLN21      -0.2717
     66  NE2        1.5170    4.2880   -0.2470 N.am   21  GLN21      -0.0878
     67  N          1.1530    3.1140  -15.0250 N.3    32  PHE32      -0.1241
     68  CA        -0.1090    3.8660  -15.1400 C.3    32  PHE32       0.1605
     69  C         -0.3980    4.3030  -16.5750 C.2    32  PHE32       0.2264
     70  O         -1.5460    4.2310  -17.0250 O.2    32  PHE32      -0.2867
     71  CB        -0.1480    5.0680  -14.1770 C.3    32  PHE32       0.0534
     72  CG        -0.2610    4.6750  -12.7330 C.ar   32  PHE32      -0.0203
     73  CD1       -1.2860    3.8380  -12.3120 C.ar   32  PHE32      -0.0042
     74  CD2        0.6540    5.1410  -11.7940 C.ar   32  PHE32      -0.0042
     75  CE1       -1.3920    3.4600  -10.9880 C.ar   32  PHE32      -0.0003
     76  CE2        0.5530    4.7630  -10.4690 C.ar   32  PHE32      -0.0003
     77  CZ        -0.4670    3.9250  -10.0660 C.ar   32  PHE32      -0.0000
     78  N         -8.8120    6.1120  -11.7610 N.3    44  ARG44      -0.1245
     79  CA        -7.6670    5.8460  -10.8590 C.3    44  ARG44       0.1563
     80  C         -6.3410    5.8680  -11.6030 C.2    44  ARG44       0.2260
     81  O         -5.3260    6.2820  -11.0520 O.2    44  ARG44      -0.2867
     82  CB        -7.8140    4.5110  -10.1450 C.3    44  ARG44       0.0307
     83  CG        -9.1360    4.3100   -9.4250 C.3    44  ARG44       0.0489
     84  CD        -9.3030    2.8320   -9.0970 C.3    44  ARG44       0.2205
     85  NE        -9.5660    2.0480  -10.3030 N.pl3  44  ARG44      -0.0865
     86  CZ        -9.3600    0.7390  -10.4190 C.cat  44  ARG44       0.5346
     87  NH1       -8.8770    0.0420   -9.4030 N.pl3  44  ARG44       0.1354
     88  NH2       -9.6380    0.1290  -11.5610 N.pl3  44  ARG44       0.1354
     89  N         -5.1630    9.4570  -12.1350 N.3    47  LEU47      -0.1231
     90  CA        -4.6990    9.9940  -10.8580 C.3    47  LEU47       0.1693
     91  C         -3.2830    9.4950  -10.5460 C.2    47  LEU47       0.2592
     92  O         -2.3840   10.2970  -10.2450 O.2    47  LEU47      -0.2718
     93  CB        -5.6950    9.6350   -9.7510 C.3    47  LEU47       0.0284
     94  CG        -5.7670   10.4880   -8.4850 C.3    47  LEU47       0.0019
     95  CD1       -5.8210   11.9830   -8.7830 C.3    47  LEU47       0.0001
     96  CD2       -6.9790   10.0510   -7.6720 C.3    47  LEU47       0.0001
     97  N         -3.0830    8.1820  -10.6560 N.am   48  GLY48      -0.1957
     98  CA        -1.7520    7.5510  -10.4610 C.3    48  GLY48       0.1869
     99  C         -0.6560    8.1060  -11.3540 C.2    48  GLY48       0.2309
    100  O          0.4540    8.3980  -10.8870 O.2    48  GLY48      -0.2863
    101  N          0.1100   11.7950  -10.3280 N.3    51  ALA51      -0.1245
    102  CA         0.9320   11.6380   -9.1170 C.3    51  ALA51       0.1562
    103  C          2.4160   11.3000   -9.3790 C.2    51  ALA51       0.2260
    104  O          3.3010   11.9680   -8.8330 O.2    51  ALA51      -0.2867
    105  CB         0.3060   10.6150   -8.1860 C.3    51  ALA51       0.0290
    106  N          4.1390   14.3650  -10.8810 N.3    54  GLN54      -0.1245
    107  CA         4.3720   15.3410   -9.8270 C.3    54  GLN54       0.1566
    108  C          5.6620   15.0060   -9.0820 C.2    54  GLN54       0.2260
    109  O          6.5470   15.8490   -8.9550 O.2    54  GLN54      -0.2867
    110  CB         3.1860   15.3890   -8.8470 C.3    54  GLN54       0.0367
    111  CG         2.2280   16.5420   -9.1080 C.3    54  GLN54       0.0905
    112  CD         1.2940   16.8340   -7.9390 C.2    54  GLN54       0.2608
    113  OE1        0.2910   16.1560   -7.7410 O.2    54  GLN54      -0.2717
    114  NE2        1.6170   17.8580   -7.1740 N.am   54  GLN54      -0.0878
    115  N         -4.3600   15.2110  -14.9730 N.3    66  TYR66      -0.1241
    116  CA        -5.3710   15.6280  -14.0520 C.3    66  TYR66       0.1605
    117  C         -6.5630   16.2760  -14.7450 C.2    66  TYR66       0.2264
    118  O         -7.6770   16.0740  -14.3850 O.2    66  TYR66      -0.2867
    119  CB        -4.7760   16.5950  -13.0560 C.3    66  TYR66       0.0534
    120  CG        -3.8120   16.0120  -12.0990 C.ar   66  TYR66      -0.0201
    121  CD1       -3.9840   14.7760  -11.6130 C.ar   66  TYR66      -0.0009
    122  CD2       -2.7360   16.7190  -11.6920 C.ar   66  TYR66      -0.0009
    123  CE1       -3.1180   14.2490  -10.7420 C.ar   66  TYR66       0.0417
    124  CE2       -1.8600   16.1990  -10.8200 C.ar   66  TYR66       0.0417
    125  CZ        -2.0690   14.9600  -10.3510 C.ar   66  TYR66       0.1957
    126  OH        -1.2230   14.4540   -9.4910 O.3    66  TYR66      -0.2866
    127  N        -10.3370   15.2540   -6.3750 N.3    78  ARG78      -0.1245
    128  CA        -8.8770   15.1140   -6.3280 C.3    78  ARG78       0.1563
    129  C         -8.1840   15.6210   -7.6020 C.2    78  ARG78       0.2260
    130  O         -7.0300   16.0460   -7.5640 O.2    78  ARG78      -0.2867
    131  CB        -8.4840   13.6540   -6.0640 C.3    78  ARG78       0.0307
    132  CG        -8.5790   13.2070   -4.6090 C.3    78  ARG78       0.0489
    133  CD        -8.3130   11.7070   -4.4880 C.3    78  ARG78       0.2205
    134  NE        -9.4290   10.9280   -5.0340 N.pl3  78  ARG78      -0.0865
    135  CZ        -9.4590    9.6020   -5.1420 C.cat  78  ARG78       0.5346
    136  NH1       -8.4310    8.8610   -4.7340 N.pl3  78  ARG78       0.1354
    137  NH2      -10.5280    9.0160   -5.6570 N.pl3  78  ARG78       0.1354
    138  N         -5.1360   18.4030   -7.2400 N.3    82  HIS82      -0.1241
    139  CA        -3.7310   18.1820   -7.6100 C.3    82  HIS82       0.1621
    140  C         -3.3260   18.9140   -8.8530 C.2    82  HIS82       0.2264
    141  O         -2.1390   19.2250   -9.0280 O.2    82  HIS82      -0.2867
    142  CB        -3.3840   16.7070   -7.6610 C.3    82  HIS82       0.0745
    143  CG        -3.4670   16.0300   -6.3210 C.ar   82  HIS82       0.0817
    144  ND1       -2.6810   16.3800   -5.2840 N.ar   82  HIS82      -0.2268
    145  CD2       -4.2870   15.0110   -5.8650 C.ar   82  HIS82       0.1154
    146  CE1       -2.9840   15.6200   -4.2240 C.ar   82  HIS82       0.1986
    147  NE2       -3.9680   14.7820   -4.5810 N.ar   82  HIS82      -0.2212
    148  N         -2.1760   22.1300   -7.4140 N.3    85  GLU85      -0.1245
    149  CA        -0.8010   21.9760   -6.9220 C.3    85  GLU85       0.1567
    150  C          0.2330   22.1600   -8.0300 C.2    85  GLU85       0.2260
    151  O          1.2530   22.8360   -7.8320 O.2    85  GLU85      -0.2867
    152  CB        -0.5980   20.6040   -6.2820 C.3    85  GLU85       0.0388
    153  CG        -1.1240   20.4440   -4.8700 C.3    85  GLU85       0.1160
    154  CD        -0.7600   19.0850   -4.2860 C.2    85  GLU85       0.3649
    155  OE1       -0.6180   18.9860   -3.0490 O.co2  85  GLU85      -0.2457
    156  OE2       -0.5990   18.1110   -5.0620 O.co2  85  GLU85      -0.2457
    157  N         -8.5390   21.1430    3.3350 N.3   119  ARG119     -0.1245
    158  CA        -7.1900   21.3370    2.8160 C.3   119  ARG119      0.1563
    159  C         -7.1830   22.2300    1.5760 C.2   119  ARG119      0.2260
    160  O         -6.2790   23.0520    1.4050 O.2   119  ARG119     -0.2867
    161  CB        -6.5730   19.9780    2.5040 C.3   119  ARG119      0.0307
    162  CG        -5.0600   19.9380    2.5070 C.3   119  ARG119      0.0489
    163  CD        -4.6300   18.4870    2.4450 C.3   119  ARG119      0.2205
    164  NE        -3.4800   18.3020    1.5710 N.pl3 119  ARG119     -0.0865
    165  CZ        -3.3340   17.2680    0.7500 C.cat 119  ARG119      0.5346
    166  NH1       -4.2750   16.3340    0.6840 N.pl3 119  ARG119      0.1354
    167  NH2       -2.2530   17.1730   -0.0090 N.pl3 119  ARG119      0.1354
@<TRIPOS>BOND
     1    70    69    2
     2    69    68    1
     3    68    67    1
     4    68    71    1
     5   115   116    1
     6   117   118    2
     7   117   116    1
     8    71    72    1
     9   116   119    1
    10   119   120    1
    11    72    73   ar
    12    72    74   ar
    13     1     2    1
    14    73    75   ar
    15    89    90    1
    16   120   122   ar
    17   120   121   ar
    18    74    76   ar
    19    78    79    1
    20    10    11    1
    21   122   124   ar
    22   121   123   ar
    23    80    81    2
    24    80    79    1
    25    88    86    1
    26    99   100    2
    27    99    98    1
    28     2     3    1
    29     2     5    1
    30    11    14    1
    31    11    12    1
    32    75    77   ar
    33    14    15    1
    34   106   107    1
    35    79    82    1
    36    90    91    1
    37    90    93    1
    38   124   125   ar
    39   123   125   ar
    40    97    91   am
    41    97    98    1
    42    91    92    2
    43     8     7   ar
    44     3     4    2
    45    76    77   ar
    46    86    85    2
    47    86    87    1
    48     5     6    1
    49    16    15   ar
    50    16    18   ar
    51   125   126    1
    52   101   102    1
    53    85    84    1
    54    82    83    1
    55    15    17   ar
    56     7     9   ar
    57     7     6    1
    58   107   108    1
    59   107   110    1
    60    93    94    1
    61    12    13    2
    62    12    22   am
    63    18    20   ar
    64    83    84    1
    65   103   102    1
    66   103   104    2
    67   102   105    1
    68   111   110    1
    69   111   112    1
    70   108   109    2
    71   141   140    2
    72    22    23    1
    73   140   139    1
    74    95    94    1
    75    17    19   ar
    76    94    96    1
    77    20    19   ar
    78    20    21    1
    79    27    28    1
    80   150   151    2
    81   150   149    1
    82   112   113    2
    83   112   114   am
    84    24    23    1
    85    24    25    2
    86   142   139    1
    87   142   143    1
    88   139   138    1
    89   129   130    2
    90   129   128    1
    91    23    26    1
    92   148   149    1
    93    52    54   ar
    94    52    51   ar
    95   149   152    1
    96    50    47    1
    97    50    51    1
    98    28    31    1
    99    28    29    1
   100    46    47    1
   101    54    56   ar
   102    47    48    1
   103    51    53   ar
   104   127   128    1
   105   128   131    1
   106   143   145   ar
   107   143   144   ar
   108    31    32    1
   109   152   153    1
   110   131   132    1
   111    29    38   am
   112    29    30    2
   113    38    39    1
   114   145   147   ar
   115   137   135    1
   116    56    57    1
   117    56    55   ar
   118    40    39    1
   119    40    41    2
   120    53    55   ar
   121   144   146   ar
   122   135   134    2
   123   135   136    1
   124   156   154   ar
   125   134   133    1
   126    39    42    1
   127    32    33   ar
   128    32    34   ar
   129    33    35   ar
   130    48    49    2
   131    48    58   am
   132    42    43    1
   133   153   154    1
   134   132   133    1
   135   147   146   ar
   136    45    43   am
   137   154   155   ar
   138    58    59    1
   139    43    44    2
   140    34    36   ar
   141    35    37   ar
   142    59    60    1
   143    59    62    1
   144    36    37   ar
   145    65    64    2
   146    60    61    2
   147    63    62    1
   148    63    64    1
   149    64    66   am
   150   167   165    1
   151   166   165    1
   152   165   164    2
   153   160   159    2
   154   164   163    1
   155   159   158    1
   156   163   162    1
   157   161   162    1
   158   161   158    1
   159   158   157    1
