@<TRIPOS>MOLECULE
tmp/4jl1B00.pdb
 141 143 0 0 0
SMALL
GASTEIGER

@<TRIPOS>ATOM
      1  N        -12.4560  -13.7020  -12.5050 N.3    30  PHE30      -0.1241
      2  CA       -13.5830  -14.2110  -11.7470 C.3    30  PHE30       0.1605
      3  C        -13.1070  -15.5280  -11.0660 C.2    30  PHE30       0.2264
      4  O        -12.3940  -16.2710  -11.7020 O.2    30  PHE30      -0.2867
      5  CB       -14.7450  -14.5270  -12.6480 C.3    30  PHE30       0.0534
      6  CG       -16.0610  -14.0500  -12.1380 C.ar   30  PHE30      -0.0203
      7  CD1      -16.5130  -14.4230  -10.8870 C.ar   30  PHE30      -0.0042
      8  CD2      -16.8440  -13.1710  -12.9040 C.ar   30  PHE30      -0.0042
      9  CE1      -17.7580  -13.9690  -10.4150 C.ar   30  PHE30      -0.0003
     10  CE2      -18.0840  -12.7220  -12.4230 C.ar   30  PHE30      -0.0003
     11  CZ       -18.5190  -13.1370  -11.1690 C.ar   30  PHE30      -0.0000
     12  N        -14.9170  -18.7430   -9.2930 N.3    32  HIS32      -0.1241
     13  CA       -16.1110  -19.5540   -8.9100 C.3    32  HIS32       0.1621
     14  C        -15.5810  -20.7020   -8.1210 C.2    32  HIS32       0.2264
     15  O        -14.9520  -21.6120   -8.6640 O.2    32  HIS32      -0.2867
     16  CB       -16.8430  -20.0660  -10.1860 C.3    32  HIS32       0.0745
     17  CG       -17.8790  -19.1210  -10.6800 C.ar   32  HIS32       0.0817
     18  ND1      -17.5700  -17.9710  -11.3590 N.ar   32  HIS32      -0.2268
     19  CD2      -19.2310  -19.1530  -10.5980 C.ar   32  HIS32       0.1154
     20  CE1      -18.6890  -17.3120  -11.6450 C.ar   32  HIS32       0.1986
     21  NE2      -19.7090  -18.0200  -11.1900 N.ar   32  HIS32      -0.2212
     22  N        -21.2230  -25.8500  -11.6740 N.3    53  GLU53      -0.1231
     23  CA       -21.7390  -25.1960  -10.4750 C.3    53  GLU53       0.1699
     24  C        -23.2530  -25.3950  -10.3250 C.2    53  GLU53       0.2592
     25  O        -23.8200  -25.1950   -9.2730 O.2    53  GLU53      -0.2718
     26  CB       -21.3220  -23.7140  -10.4370 C.3    53  GLU53       0.0402
     27  CG       -22.0000  -22.8070  -11.4190 C.3    53  GLU53       0.1161
     28  CD       -21.5450  -22.9150  -12.8710 C.2    53  GLU53       0.3649
     29  OE1      -20.5470  -23.6120  -13.2230 O.co2  53  GLU53      -0.2457
     30  OE2      -22.2070  -22.2250  -13.6440 O.co2  53  GLU53      -0.2457
     31  N        -23.8860  -25.8330  -11.4270 N.am   54  TRP54      -0.1976
     32  CA       -25.3120  -26.2200  -11.4570 C.3    54  TRP54       0.1640
     33  C        -25.5650  -27.7490  -11.3340 C.2    54  TRP54       0.2290
     34  O        -26.6790  -28.1980  -11.4920 O.2    54  TRP54      -0.2864
     35  CB       -25.9870  -25.7340  -12.7420 C.3    54  TRP54       0.0576
     36  CG       -26.4290  -24.2850  -12.7070 C.ar   54  TRP54       0.0006
     37  CD1      -25.6100  -23.1700  -12.7740 C.ar   54  TRP54       0.0946
     38  CD2      -27.7500  -23.7940  -12.6680 C.ar   54  TRP54       0.0152
     39  NE1      -26.3720  -22.0210  -12.7490 N.ar   54  TRP54      -0.2442
     40  CE2      -27.6880  -22.3870  -12.6770 C.ar   54  TRP54       0.0810
     41  CE3      -29.0060  -24.4150  -12.6080 C.ar   54  TRP54       0.0012
     42  CZ2      -28.8200  -21.6020  -12.6500 C.ar   54  TRP54       0.0191
     43  CZ3      -30.1100  -23.6090  -12.5640 C.ar   54  TRP54       0.0001
     44  CH2      -30.0040  -22.2380  -12.5430 C.ar   54  TRP54       0.0015
     45  N        -22.8200  -19.0380   -3.9730 N.3   101  HIS101     -0.1226
     46  CA       -23.4590  -19.3040   -5.2820 C.3   101  HIS101      0.1752
     47  C        -24.8740  -19.8700   -5.0020 C.2   101  HIS101      0.2596
     48  O        -25.2990  -19.9050   -3.8670 O.2   101  HIS101     -0.2718
     49  CB       -22.5510  -20.2200   -6.1320 C.3   101  HIS101      0.0759
     50  CG       -22.7800  -20.0740   -7.6190 C.ar  101  HIS101      0.0818
     51  ND1      -23.7590  -20.7530   -8.2720 N.ar  101  HIS101     -0.2268
     52  CD2      -22.2170  -19.2700   -8.5470 C.ar  101  HIS101      0.1154
     53  CE1      -23.8020  -20.4130   -9.5350 C.ar  101  HIS101      0.1986
     54  NE2      -22.8540  -19.5240   -9.7480 N.ar  101  HIS101     -0.2212
     55  N        -25.6280  -20.2490   -6.0360 N.am  102  HIS102     -0.1975
     56  CA       -26.9690  -20.7800   -5.8670 C.3   102  HIS102      0.1656
     57  C        -27.0470  -21.8560   -4.7960 C.2   102  HIS102      0.2291
     58  O        -28.0100  -21.9080   -4.0680 O.2   102  HIS102     -0.2864
     59  CB       -27.5970  -21.3120   -7.1820 C.3   102  HIS102      0.0771
     60  CG       -27.4570  -20.4220   -8.3630 C.ar  102  HIS102      0.0820
     61  ND1      -27.3870  -19.0470   -8.2890 N.ar  102  HIS102     -0.2267
     62  CD2      -27.2680  -20.7280   -9.6720 C.ar  102  HIS102      0.1154
     63  CE1      -27.2430  -18.5500   -9.4990 C.ar  102  HIS102      0.1986
     64  NE2      -27.1480  -19.5400  -10.3510 N.ar  102  HIS102     -0.2212
     65  N        -19.2600  -11.3720   -5.8350 N.3   144  TYR144     -0.1241
     66  CA       -20.4050  -12.0470   -6.4680 C.3   144  TYR144      0.1605
     67  C        -21.2950  -12.5670   -5.3300 C.2   144  TYR144      0.2264
     68  O        -20.8180  -13.0850   -4.3310 O.2   144  TYR144     -0.2867
     69  CB       -19.9140  -13.2430   -7.3510 C.3   144  TYR144      0.0534
     70  CG       -21.0160  -14.1810   -7.7900 C.ar  144  TYR144     -0.0201
     71  CD1      -21.6770  -15.0000   -6.8800 C.ar  144  TYR144     -0.0009
     72  CD2      -21.3800  -14.2520   -9.1350 C.ar  144  TYR144     -0.0009
     73  CE1      -22.6800  -15.8160   -7.2630 C.ar  144  TYR144      0.0417
     74  CE2      -22.3510  -15.1650   -9.5590 C.ar  144  TYR144      0.0417
     75  CZ       -23.0030  -15.8990   -8.6500 C.ar  144  TYR144      0.1957
     76  OH       -24.0100  -16.7570   -9.0360 O.3   144  TYR144     -0.2866
     77  N        -21.8100   -7.8580   -7.2750 N.3   193  TRP193     -0.1241
     78  CA       -22.2090   -8.3290   -8.5820 C.3   193  TRP193      0.1605
     79  C        -23.2040   -9.4140   -8.2230 C.2   193  TRP193      0.2264
     80  O        -22.9010  -10.5330   -7.8510 O.2   193  TRP193     -0.2867
     81  CB       -21.0090   -8.8550   -9.3490 C.3   193  TRP193      0.0550
     82  CG       -21.2630   -9.1080  -10.8350 C.ar  193  TRP193      0.0003
     83  CD1      -20.9260   -8.2560  -11.8480 C.ar  193  TRP193      0.0946
     84  CD2      -21.7860  -10.2770  -11.4560 C.ar  193  TRP193      0.0152
     85  NE1      -21.2580   -8.8030  -13.0830 N.ar  193  TRP193     -0.2442
     86  CE2      -21.7790  -10.0400  -12.8510 C.ar  193  TRP193      0.0810
     87  CE3      -22.3280  -11.4850  -10.9840 C.ar  193  TRP193      0.0012
     88  CZ2      -22.2700  -10.9710  -13.7730 C.ar  193  TRP193      0.0191
     89  CZ3      -22.8100  -12.4170  -11.9200 C.ar  193  TRP193      0.0001
     90  CH2      -22.7270  -12.1590  -13.2930 C.ar  193  TRP193      0.0015
     91  N        -26.3520  -12.0530   -8.8370 N.3   195  ASP195     -0.1239
     92  CA       -26.8400  -13.0520   -9.7630 C.3   195  ASP195      0.1674
     93  C        -28.0560  -13.7140   -9.1190 C.2   195  ASP195      0.2266
     94  O        -28.3470  -13.5600   -7.9330 O.2   195  ASP195     -0.2867
     95  CB       -25.7310  -14.1310   -9.9550 C.3   195  ASP195      0.1410
     96  CG       -25.8350  -14.9080  -11.2740 C.2   195  ASP195      0.3668
     97  OD1      -26.6220  -14.5170  -12.1130 O.co2 195  ASP195     -0.2456
     98  OD2      -25.0790  -15.9160  -11.3430 O.co2 195  ASP195     -0.2456
     99  N        -33.3280  -13.3680  -11.5920 N.3   198  TRP198     -0.1241
    100  CA       -34.1920  -13.4220  -12.7640 C.3   198  TRP198      0.1605
    101  C        -35.5880  -13.9580  -12.4210 C.2   198  TRP198      0.2264
    102  O        -36.4930  -13.8430  -13.2790 O.2   198  TRP198     -0.2867
    103  CB       -33.5480  -14.2950  -13.8770 C.3   198  TRP198      0.0550
    104  CG       -33.1430  -15.6150  -13.3890 C.ar  198  TRP198      0.0003
    105  CD1      -33.9580  -16.6330  -13.0540 C.ar  198  TRP198      0.0946
    106  CD2      -31.8150  -16.0680  -13.1350 C.ar  198  TRP198      0.0152
    107  NE1      -33.2270  -17.6870  -12.6100 N.ar  198  TRP198     -0.2442
    108  CE2      -31.9050  -17.3690  -12.6400 C.ar  198  TRP198      0.0810
    109  CE3      -30.5530  -15.4810  -13.2600 C.ar  198  TRP198      0.0012
    110  CZ2      -30.7870  -18.1030  -12.2510 C.ar  198  TRP198      0.0191
    111  CZ3      -29.4590  -16.2020  -12.8900 C.ar  198  TRP198      0.0001
    112  CH2      -29.5730  -17.4910  -12.3850 C.ar  198  TRP198      0.0015
    113  N        -21.9910  -12.2010  -21.6280 N.3   254  GLU254     -0.1196
    114  CA       -21.2850  -13.4650  -21.2190 C.3   254  GLU254      0.1783
    115  C        -20.9470  -14.3450  -22.4120 C.2   254  GLU254      0.2306
    116  O        -19.8460  -14.8710  -22.5260 O.2   254  GLU254     -0.2863
    117  CB       -22.1130  -14.2900  -20.2220 C.2   254  GLU254      0.0071
    118  CG       -22.4920  -13.5660  -18.9300 C.2   254  GLU254      0.0834
    119  CD       -23.1600  -14.4280  -17.8820 C.2   254  GLU254      0.3877
    120  OE1      -23.4180  -15.6290  -18.1310 O.co2 254  GLU254     -0.2406
    121  OE2      -23.4380  -13.8860  -16.7820 O.co2 254  GLU254     -0.2406
    122  N        -18.1880  -10.7610  -18.6200 N.3   274  CYS274     -0.1235
    123  CA       -17.5080  -11.8690  -17.9510 C.3   274  CYS274      0.1677
    124  C        -17.5400  -13.0640  -18.8710 C.2   274  CYS274      0.2270
    125  O        -18.4770  -13.2110  -19.6660 O.2   274  CYS274     -0.2867
    126  CB       -18.1900  -12.2030  -16.6470 C.3   274  CYS274      0.0956
    127  SG       -19.9530  -12.5360  -16.8070 S.3   274  CYS274     -0.0801
    128  N        -18.3430  -22.5020  -15.2840 N.3   282  TRP282     -0.1241
    129  CA       -17.8280  -21.4980  -14.3460 C.3   282  TRP282      0.1605
    130  C        -17.1330  -22.1500  -13.1330 C.2   282  TRP282      0.2264
    131  O        -15.9380  -21.8880  -12.8620 O.2   282  TRP282     -0.2867
    132  CB       -18.9900  -20.5780  -13.8950 C.3   282  TRP282      0.0550
    133  CG       -19.6590  -19.8300  -15.0180 C.ar  282  TRP282      0.0003
    134  CD1      -20.7340  -20.2530  -15.7590 C.ar  282  TRP282      0.0946
    135  CD2      -19.3600  -18.4760  -15.4680 C.ar  282  TRP282      0.0152
    136  NE1      -21.0690  -19.2850  -16.7090 N.ar  282  TRP282     -0.2442
    137  CE2      -20.2550  -18.1800  -16.5410 C.ar  282  TRP282      0.0810
    138  CE3      -18.4250  -17.5350  -15.1060 C.ar  282  TRP282      0.0012
    139  CZ2      -20.2420  -16.9620  -17.2110 C.ar  282  TRP282      0.0191
    140  CZ3      -18.4150  -16.2810  -15.7760 C.ar  282  TRP282      0.0001
    141  CH2      -19.2610  -16.0540  -16.8720 C.ar  282  TRP282      0.0015
@<TRIPOS>BOND
     1   116   115    2
     2   115   114    1
     3   113   114    1
     4   114   117    1
     5   117   118    2
     6   125   124    2
     7   118   119    1
     8   124   123    1
     9   122   123    1
    10   120   119   ar
    11   123   126    1
    12   119   121   ar
    13   139   141   ar
    14   139   137   ar
    15   141   140   ar
    16   127   126    1
    17   136   137   ar
    18   136   134   ar
    19   137   135   ar
    20   140   138   ar
    21   134   133   ar
    22   135   138   ar
    23   135   133   ar
    24   128   129    1
    25   133   132    1
    26   129   132    1
    27   129   130    1
    28   103   104    1
    29   103   100    1
    30    88    90   ar
    31    88    86   ar
    32    30    28   ar
    33   104   106   ar
    34   104   105   ar
    35    90    89   ar
    36   102   101    2
    37   109   106   ar
    38   109   111   ar
    39    29    28   ar
    40   106   108   ar
    41   130   131    2
    42    85    86   ar
    43    85    83   ar
    44   105   107   ar
    45     8    10   ar
    46     8     6   ar
    47   111   112   ar
    48    28    27    1
    49    86    84   ar
    50    37    39   ar
    51    37    36   ar
    52   100   101    1
    53   100    99    1
    54    39    40   ar
    55    35    36    1
    56    35    32    1
    57    36    38   ar
    58    40    38   ar
    59    40    42   ar
    60    38    41   ar
    61    42    44   ar
    62     5     6    1
    63     5     2    1
    64   108   107   ar
    65   108   110   ar
    66    41    43   ar
    67    43    44   ar
    68     1     2    1
    69    10    11   ar
    70   112   110   ar
    71     6     7   ar
    72    97    96   ar
    73    89    87   ar
    74    83    82   ar
    75     2     3    1
    76     4     3    2
    77    22    23    1
    78    20    18   ar
    79    20    21   ar
    80    34    33    2
    81    32    31    1
    82    32    33    1
    83    84    87   ar
    84    84    82   ar
    85    31    24   am
    86    27    26    1
    87    18    17   ar
    88    98    96   ar
    89    96    95    1
    90    21    19   ar
    91    11     9   ar
    92     7     9   ar
    93    82    81    1
    94    17    19   ar
    95    17    16    1
    96    23    26    1
    97    23    24    1
    98    64    62   ar
    99    64    63   ar
   100    24    25    2
   101    16    13    1
   102    95    92    1
   103    92    93    1
   104    92    91    1
   105    54    53   ar
   106    54    52   ar
   107    62    60   ar
   108    74    72   ar
   109    74    75   ar
   110    53    51   ar
   111    63    61   ar
   112    81    78    1
   113    12    13    1
   114    72    70   ar
   115    93    94    2
   116    76    75    1
   117    13    14    1
   118    15    14    2
   119    75    73   ar
   120    78    79    1
   121    78    77    1
   122    52    50   ar
   123    60    61   ar
   124    60    59    1
   125    51    50   ar
   126    79    80    2
   127    70    69    1
   128    70    71   ar
   129    50    49    1
   130    69    66    1
   131    73    71   ar
   132    59    56    1
   133    66    65    1
   134    66    67    1
   135    49    46    1
   136    55    56    1
   137    55    47   am
   138    56    57    1
   139    67    68    2
   140    46    47    1
   141    46    45    1
   142    47    48    2
   143    57    58    2
