@<TRIPOS>MOLECULE
tmp/4jl1A00.pdb
 135 138 0 0 0
SMALL
GASTEIGER

@<TRIPOS>ATOM
      1  N        -12.4620   -1.0690   29.3220 N.3    30  PHE30      -0.1241
      2  CA       -12.8670    0.1880   28.6710 C.3    30  PHE30       0.1605
      3  C        -11.6640    0.7590   27.9310 C.2    30  PHE30       0.2264
      4  O        -10.5570    0.6680   28.4470 O.2    30  PHE30      -0.2867
      5  CB       -13.2910    1.1940   29.7210 C.3    30  PHE30       0.0534
      6  CG       -14.5450    1.9440   29.3800 C.ar   30  PHE30      -0.0203
      7  CD1      -14.6650    2.6220   28.1890 C.ar   30  PHE30      -0.0042
      8  CD2      -15.6090    1.9720   30.2580 C.ar   30  PHE30      -0.0042
      9  CE1      -15.8770    3.3210   27.8690 C.ar   30  PHE30      -0.0003
     10  CE2      -16.7770    2.6650   29.9440 C.ar   30  PHE30      -0.0003
     11  CZ       -16.9010    3.3470   28.7410 C.ar   30  PHE30      -0.0000
     12  N        -10.4970    4.3550   26.2980 N.3    32  HIS32      -0.1241
     13  CA       -10.6600    5.8100   26.0340 C.3    32  HIS32       0.1621
     14  C         -9.5340    6.2320   25.1690 C.2    32  HIS32       0.2264
     15  O         -8.3990    6.2790   25.5820 O.2    32  HIS32      -0.2867
     16  CB       -10.6530    6.6090   27.3690 C.3    32  HIS32       0.0745
     17  CG       -11.9920    6.7570   28.0030 C.ar   32  HIS32       0.0817
     18  ND1      -12.5770    5.7330   28.7120 N.ar   32  HIS32      -0.2268
     19  CD2      -12.8390    7.8260   28.1190 C.ar   32  HIS32       0.1154
     20  CE1      -13.7690    6.1390   29.1480 C.ar   32  HIS32       0.1986
     21  NE2      -13.9520    7.3850   28.7820 N.ar   32  HIS32      -0.2212
     22  N         -8.8950   13.6640   29.1950 N.3    53  GLU53      -0.1231
     23  CA        -9.8520   13.7330   28.1130 C.3    53  GLU53       0.1699
     24  C        -10.6630   15.0410   28.1520 C.2    53  GLU53       0.2592
     25  O        -11.2790   15.3810   27.1580 O.2    53  GLU53      -0.2718
     26  CB       -10.7270   12.4520   28.0580 C.3    53  GLU53       0.0402
     27  CG       -11.7260   12.2850   29.1290 C.3    53  GLU53       0.1161
     28  CD       -11.1860   11.9220   30.5170 C.2    53  GLU53       0.3649
     29  OE1       -9.9690   11.5620   30.7160 O.co2  53  GLU53      -0.2457
     30  OE2      -12.0520   11.8710   31.3790 O.co2  53  GLU53      -0.2457
     31  N        -10.5920   15.7810   29.2610 N.am   54  TRP54      -0.1976
     32  CA       -11.1650   17.1070   29.4280 C.3    54  TRP54       0.1640
     33  C        -10.1610   18.2840   29.2180 C.2    54  TRP54       0.2290
     34  O        -10.5100   19.4170   29.5070 O.2    54  TRP54      -0.2864
     35  CB       -11.8050   17.2290   30.8100 C.3    54  TRP54       0.0576
     36  CG       -13.2340   16.6030   30.9350 C.ar   54  TRP54       0.0006
     37  CD1      -13.5380   15.2780   31.0130 C.ar   54  TRP54       0.0946
     38  CD2      -14.4500   17.3060   31.0090 C.ar   54  TRP54       0.0152
     39  NE1      -14.9020   15.1140   31.1180 N.ar   54  TRP54      -0.2442
     40  CE2      -15.4860   16.3430   31.1200 C.ar   54  TRP54       0.0810
     41  CE3      -14.7930   18.6670   30.9720 C.ar   54  TRP54       0.0012
     42  CZ2      -16.8350   16.7020   31.2070 C.ar   54  TRP54       0.0191
     43  CZ3      -16.1510   19.0200   31.0830 C.ar   54  TRP54       0.0001
     44  CH2      -17.1460   18.0290   31.1760 C.ar   54  TRP54       0.0015
     45  N        -15.8490   10.9850   22.0290 N.3   101  HIS101     -0.1226
     46  CA       -15.8850   11.5570   23.3660 C.3   101  HIS101      0.1752
     47  C        -16.3720   13.0250   23.2120 C.2   101  HIS101      0.2596
     48  O        -16.8110   13.4480   22.1390 O.2   101  HIS101     -0.2718
     49  CB       -14.5330   11.3780   24.0830 C.3   101  HIS101      0.0759
     50  CG       -14.6570   11.3710   25.5860 C.ar  101  HIS101      0.0818
     51  ND1      -14.6780   12.5320   26.3190 N.ar  101  HIS101     -0.2268
     52  CD2      -14.7940   10.3720   26.4820 C.ar  101  HIS101      0.1154
     53  CE1      -14.8710   12.2730   27.5970 C.ar  101  HIS101      0.1986
     54  NE2      -14.9580   10.9650   27.7320 N.ar  101  HIS101     -0.2212
     55  N        -16.3670   13.7810   24.2920 N.am  102  HIS102     -0.1975
     56  CA       -16.9390   15.1240   24.2570 C.3   102  HIS102      0.1656
     57  C        -16.3020   16.0070   23.1750 C.2   102  HIS102      0.2291
     58  O        -16.9690   16.8180   22.5730 O.2   102  HIS102     -0.2864
     59  CB       -16.8120   15.8480   25.6340 C.3   102  HIS102      0.0771
     60  CG       -17.2640   15.0650   26.8180 C.ar  102  HIS102      0.0820
     61  ND1      -18.3280   14.1800   26.8100 N.ar  102  HIS102     -0.2267
     62  CD2      -16.7770   15.0390   28.0800 C.ar  102  HIS102      0.1154
     63  CE1      -18.4450   13.6530   28.0010 C.ar  102  HIS102      0.1986
     64  NE2      -17.5320   14.1710   28.7850 N.ar  102  HIS102     -0.2212
     65  N        -19.2630    3.2250   23.6730 N.3   144  TYR144     -0.1241
     66  CA       -19.4060    4.4730   24.4210 C.3   144  TYR144      0.1605
     67  C        -19.7110    5.6010   23.3650 C.2   144  TYR144      0.2264
     68  O        -19.0980    5.6490   22.3240 O.2   144  TYR144     -0.2867
     69  CB       -18.1060    4.8100   25.1820 C.3   144  TYR144      0.0534
     70  CG       -18.0250    6.2310   25.6960 C.ar  144  TYR144     -0.0201
     71  CD1      -17.9040    7.3570   24.8400 C.ar  144  TYR144     -0.0009
     72  CD2      -18.0220    6.4920   27.0600 C.ar  144  TYR144     -0.0009
     73  CE1      -17.7940    8.6010   25.3320 C.ar  144  TYR144      0.0417
     74  CE2      -17.9260    7.7930   27.5600 C.ar  144  TYR144      0.0417
     75  CZ       -17.8430    8.8420   26.7140 C.ar  144  TYR144      0.1957
     76  OH       -17.8340   10.1540   27.1540 O.3   144  TYR144     -0.2866
     77  N        -23.3650    2.7270   25.4870 N.3   193  TRP193     -0.1241
     78  CA       -23.1420    3.3550   26.8010 C.3   193  TRP193      0.1605
     79  C        -23.0030    4.8670   26.6030 C.2   193  TRP193      0.2264
     80  O        -21.9750    5.3780   26.1320 O.2   193  TRP193     -0.2867
     81  CB       -21.8950    2.7060   27.4420 C.3   193  TRP193      0.0550
     82  CG       -21.7320    2.9710   28.9260 C.ar  193  TRP193      0.0003
     83  CD1      -22.0860    2.1150   29.9380 C.ar  193  TRP193      0.0946
     84  CD2      -21.1190    4.1000   29.5700 C.ar  193  TRP193      0.0152
     85  NE1      -21.8020    2.6580   31.1660 N.ar  193  TRP193     -0.2442
     86  CE2      -21.1610    3.8470   30.9770 C.ar  193  TRP193      0.0810
     87  CE3      -20.5520    5.3030   29.1200 C.ar  193  TRP193      0.0012
     88  CZ2      -20.7080    4.7630   31.9030 C.ar  193  TRP193      0.0191
     89  CZ3      -20.0850    6.2080   30.0490 C.ar  193  TRP193      0.0001
     90  CH2      -20.1620    5.9320   31.4310 C.ar  193  TRP193      0.0015
     91  N        -22.8880    8.8590   27.4530 N.3   195  ASP195     -0.1239
     92  CA       -22.3110    9.8390   28.3760 C.3   195  ASP195      0.1674
     93  C        -22.7000   11.2550   27.9170 C.2   195  ASP195      0.2266
     94  O        -23.1930   11.4830   26.7770 O.2   195  ASP195     -0.2867
     95  CB       -20.7910    9.6750   28.3980 C.3   195  ASP195      0.1410
     96  CG       -20.1390   10.1200   29.6790 C.2   195  ASP195      0.3668
     97  OD1      -20.8600   10.4520   30.6410 O.co2 195  ASP195     -0.2456
     98  OD2      -18.8810   10.2380   29.6390 O.co2 195  ASP195     -0.2456
     99  N        -26.0800   15.1080   30.8550 N.3   198  TRP198     -0.1241
    100  CA       -26.4760   15.7530   32.1060 C.3   198  TRP198      0.1605
    101  C        -27.0030   17.1940   31.8870 C.2   198  TRP198      0.2264
    102  O        -27.5090   17.8110   32.8330 O.2   198  TRP198     -0.2867
    103  CB       -25.3150   15.7460   33.0950 C.3   198  TRP198      0.0550
    104  CG       -24.0930   16.2170   32.5190 C.ar  198  TRP198      0.0003
    105  CD1      -23.7960   17.4860   32.2320 C.ar  198  TRP198      0.0946
    106  CD2      -22.9360   15.4290   32.1220 C.ar  198  TRP198      0.0152
    107  NE1      -22.5600   17.5660   31.6870 N.ar  198  TRP198     -0.2442
    108  CE2      -22.0050   16.3290   31.6010 C.ar  198  TRP198      0.0810
    109  CE3      -22.6170   14.0600   32.1510 C.ar  198  TRP198      0.0012
    110  CZ2      -20.7780   15.9280   31.1180 C.ar  198  TRP198      0.0191
    111  CZ3      -21.3650   13.6630   31.6740 C.ar  198  TRP198      0.0001
    112  CH2      -20.4960   14.5880   31.1460 C.ar  198  TRP198      0.0015
    113  N        -18.7820    4.7030   39.5400 N.3   254  GLU254     -0.1245
    114  CA       -17.4300    4.9860   38.9720 C.3   254  GLU254      0.1567
    115  C        -16.3580    5.2000   40.0320 C.2   254  GLU254      0.2260
    116  O        -15.2640    4.6830   39.9560 O.2   254  GLU254     -0.2867
    117  CB       -17.4480    6.2230   38.0660 C.3   254  GLU254      0.0388
    118  CG       -18.3700    6.1550   36.8560 C.3   254  GLU254      0.1160
    119  CD       -18.2120    7.3500   35.9050 C.2   254  GLU254      0.3649
    120  OE1      -17.3760    8.2380   36.1490 O.co2 254  GLU254     -0.2457
    121  OE2      -18.9090    7.4170   34.8700 O.co2 254  GLU254     -0.2457
    122  N         -9.1880    9.0100   32.5130 N.3   282  TRP282     -0.1241
    123  CA        -9.7550    8.0230   31.5740 C.3   282  TRP282      0.1605
    124  C         -8.9290    7.9700   30.2630 C.2   282  TRP282      0.2264
    125  O         -8.4370    6.8660   29.8500 O.2   282  TRP282     -0.2867
    126  CB       -11.2460    8.3030   31.3360 C.3   282  TRP282      0.0550
    127  CG       -12.1200    8.2680   32.5280 C.ar  282  TRP282      0.0003
    128  CD1      -12.3930    9.2760   33.3800 C.ar  282  TRP282      0.0946
    129  CD2      -12.9030    7.1370   32.9780 C.ar  282  TRP282      0.0152
    130  NE1      -13.2850    8.8670   34.3410 N.ar  282  TRP282     -0.2442
    131  CE2      -13.6300    7.5600   34.1050 C.ar  282  TRP282      0.0810
    132  CE3      -13.0620    5.8320   32.5240 C.ar  282  TRP282      0.0012
    133  CZ2      -14.5000    6.7020   34.7890 C.ar  282  TRP282      0.0191
    134  CZ3      -13.9340    4.9570   33.2190 C.ar  282  TRP282      0.0001
    135  CH2      -14.5930    5.3810   34.3530 C.ar  282  TRP282      0.0015
@<TRIPOS>BOND
     1    45    46    1
     2    48    47    2
     3    68    67    2
     4    58    57    2
     5    57    56    1
     6    47    46    1
     7    47    55   am
     8    67    66    1
     9    46    49    1
    10    65    66    1
    11    49    50    1
    12    56    55    1
    13    56    59    1
    14    66    69    1
    15    71    73   ar
    16    71    70   ar
    17    14    15    2
    18    14    13    1
    19    69    70    1
    20    73    75   ar
    21    77    78    1
    22    50    51   ar
    23    50    52   ar
    24    59    60    1
    25    70    72   ar
    26    13    12    1
    27    13    16    1
    28    80    79    2
    29    51    53   ar
    30    52    54   ar
    31    79    78    1
    32    75    76    1
    33    75    74   ar
    34    94    93    2
    35    78    81    1
    36    61    60   ar
    37    61    63   ar
    38    60    62   ar
    39    72    74   ar
    40    25    24    2
    41    16    17    1
    42    81    82    1
    43    91    92    1
    44    53    54   ar
    45     9     7   ar
    46     9    11   ar
    47    93    92    1
    48     3     4    2
    49     3     2    1
    50    63    64   ar
    51    17    19   ar
    52    17    18   ar
    53    26    23    1
    54    26    27    1
    55    62    64   ar
    56    23    24    1
    57    23    22    1
    58    19    21   ar
    59    24    31   am
    60     7     6   ar
    61    92    95    1
    62    95    96    1
    63     2     1    1
    64     2     5    1
    65    18    20   ar
    66    11    10   ar
    67    21    20   ar
    68    82    84   ar
    69    82    83   ar
    70    87    84   ar
    71    87    89   ar
    72    27    28    1
    73    33    32    1
    74    33    34    2
    75    31    32    1
    76     6     5    1
    77     6     8   ar
    78    32    35    1
    79    84    86   ar
    80    98    96   ar
    81    96    97   ar
    82   125   124    2
    83    83    85   ar
    84    10     8   ar
    85    89    90   ar
    86   124   123    1
    87    28    29   ar
    88    28    30   ar
    89    35    36    1
    90    99   100    1
    91    36    38   ar
    92    36    37   ar
    93    41    38   ar
    94    41    43   ar
    95    86    85   ar
    96    86    88   ar
    97    38    40   ar
    98    37    39   ar
    99    43    44   ar
   100   110   112   ar
   101   110   108   ar
   102    39    40   ar
   103    40    42   ar
   104   112   111   ar
   105    44    42   ar
   106   126   123    1
   107   126   127    1
   108    90    88   ar
   109   123   122    1
   110   108   107   ar
   111   108   106   ar
   112   111   109   ar
   113   107   105   ar
   114   101   100    1
   115   101   102    2
   116   100   103    1
   117   106   109   ar
   118   106   104   ar
   119   105   104   ar
   120   104   103    1
   121   132   129   ar
   122   132   134   ar
   123   127   129   ar
   124   127   128   ar
   125   129   131   ar
   126   134   135   ar
   127   128   130   ar
   128   131   130   ar
   129   131   133   ar
   130   135   133   ar
   131   121   119   ar
   132   119   120   ar
   133   119   118    1
   134   118   117    1
   135   117   114    1
   136   114   113    1
   137   114   115    1
   138   116   115    2
