@<TRIPOS>MOLECULE
tmp/4jl2A00.pdb
 135 138 0 0 0
SMALL
GASTEIGER

@<TRIPOS>ATOM
      1  N        -12.0280   -1.1140   29.4300 N.3    30  PHE30      -0.1241
      2  CA       -12.4160    0.1460   28.7930 C.3    30  PHE30       0.1605
      3  C        -11.1890    0.6620   28.0250 C.2    30  PHE30       0.2264
      4  O        -10.0500    0.5570   28.5040 O.2    30  PHE30      -0.2867
      5  CB       -12.8000    1.1960   29.8520 C.3    30  PHE30       0.0534
      6  CG       -14.0960    1.9260   29.5790 C.ar   30  PHE30      -0.0203
      7  CD1      -14.2730    2.6890   28.4320 C.ar   30  PHE30      -0.0042
      8  CD2      -15.1120    1.9130   30.5120 C.ar   30  PHE30      -0.0042
      9  CE1      -15.4480    3.3680   28.2020 C.ar   30  PHE30      -0.0003
     10  CE2      -16.2960    2.5820   30.2670 C.ar   30  PHE30      -0.0003
     11  CZ       -16.4550    3.3360   29.1230 C.ar   30  PHE30      -0.0000
     12  N        -10.1050    4.2980   26.4720 N.3    32  HIS32      -0.1241
     13  CA       -10.2240    5.7310   26.1840 C.3    32  HIS32       0.1621
     14  C         -9.0590    6.1070   25.2750 C.2    32  HIS32       0.2264
     15  O         -7.9240    6.1740   25.7040 O.2    32  HIS32      -0.2867
     16  CB       -10.1420    6.5560   27.4580 C.3    32  HIS32       0.0745
     17  CG       -11.4550    6.6970   28.1620 C.ar   32  HIS32       0.0817
     18  ND1      -12.0330    5.6650   28.8530 N.ar   32  HIS32      -0.2268
     19  CD2      -12.3130    7.7430   28.2530 C.ar   32  HIS32       0.1154
     20  CE1      -13.1900    6.0690   29.3580 C.ar   32  HIS32       0.1986
     21  NE2      -13.4010    7.3170   28.9710 N.ar   32  HIS32      -0.2212
     22  N         -8.0790   13.5400   29.3040 N.3    53  GLU53      -0.1231
     23  CA        -9.0660   13.6110   28.2230 C.3    53  GLU53       0.1699
     24  C         -9.8760   14.9070   28.2630 C.2    53  GLU53       0.2592
     25  O        -10.5760   15.2220   27.3130 O.2    53  GLU53      -0.2718
     26  CB        -9.9190   12.3330   28.1900 C.3    53  GLU53       0.0402
     27  CG       -10.9840   12.1930   29.2710 C.3    53  GLU53       0.1161
     28  CD       -10.4820   11.7540   30.6290 C.2    53  GLU53       0.3649
     29  OE1       -9.2730   11.4290   30.7970 O.co2  53  GLU53      -0.2457
     30  OE2      -11.3370   11.7510   31.5520 O.co2  53  GLU53      -0.2457
     31  N         -9.7440   15.6690   29.3570 N.am   54  TRP54      -0.1976
     32  CA       -10.3550   16.9940   29.5320 C.3    54  TRP54       0.1640
     33  C         -9.3490   18.1700   29.3310 C.2    54  TRP54       0.2290
     34  O         -9.6700   19.3300   29.6020 O.2    54  TRP54      -0.2864
     35  CB       -10.9860   17.0540   30.9440 C.3    54  TRP54       0.0576
     36  CG       -12.3830   16.4850   31.0610 C.ar   54  TRP54       0.0006
     37  CD1      -12.7550   15.1660   31.0740 C.ar   54  TRP54       0.0946
     38  CD2      -13.5980   17.2410   31.2060 C.ar   54  TRP54       0.0152
     39  NE1      -14.1280   15.0610   31.2080 N.ar   54  TRP54      -0.2442
     40  CE2      -14.6680   16.3200   31.2940 C.ar   54  TRP54       0.0810
     41  CE3      -13.8900   18.6130   31.2670 C.ar   54  TRP54       0.0012
     42  CZ2      -16.0100   16.7420   31.4330 C.ar   54  TRP54       0.0191
     43  CZ3      -15.2350   19.0230   31.4140 C.ar   54  TRP54       0.0001
     44  CH2      -16.2590   18.1010   31.4820 C.ar   54  TRP54       0.0015
     45  N        -15.2880   10.9360   22.2720 N.3   101  HIS101     -0.1226
     46  CA       -15.3330   11.5240   23.6010 C.3   101  HIS101      0.1752
     47  C        -15.8100   13.0020   23.4850 C.2   101  HIS101      0.2596
     48  O        -16.2730   13.4350   22.4210 O.2   101  HIS101     -0.2718
     49  CB       -13.9630   11.3720   24.3050 C.3   101  HIS101      0.0759
     50  CG       -14.0540   11.3830   25.8060 C.ar  101  HIS101      0.0818
     51  ND1      -13.9320   12.5310   26.5540 N.ar  101  HIS101     -0.2268
     52  CD2      -14.2150   10.3750   26.6960 C.ar  101  HIS101      0.1154
     53  CE1      -14.0900   12.2440   27.8330 C.ar  101  HIS101      0.1986
     54  NE2      -14.2360   10.9390   27.9450 N.ar  101  HIS101     -0.2212
     55  N        -15.7250   13.7790   24.5730 N.am  102  HIS102     -0.1975
     56  CA       -16.2770   15.1020   24.5530 C.3   102  HIS102      0.1656
     57  C        -15.6440   15.9680   23.4530 C.2   102  HIS102      0.2291
     58  O        -16.3100   16.8280   22.8860 O.2   102  HIS102     -0.2864
     59  CB       -16.0980   15.8260   25.8950 C.3   102  HIS102      0.0771
     60  CG       -16.4930   15.0370   27.1140 C.ar  102  HIS102      0.0820
     61  ND1      -17.5510   14.1510   27.1530 N.ar  102  HIS102     -0.2267
     62  CD2      -15.9970   15.0810   28.3750 C.ar  102  HIS102      0.1154
     63  CE1      -17.6700   13.6640   28.3740 C.ar  102  HIS102      0.1986
     64  NE2      -16.7360   14.2070   29.1310 N.ar  102  HIS102     -0.2212
     65  N        -18.8110    3.2710   23.9190 N.3   144  TYR144     -0.1241
     66  CA       -18.9400    4.5240   24.6440 C.3   144  TYR144      0.1605
     67  C        -19.2540    5.6110   23.6230 C.2   144  TYR144      0.2264
     68  O        -18.6130    5.6740   22.5500 O.2   144  TYR144     -0.2867
     69  CB       -17.6310    4.8310   25.4140 C.3   144  TYR144      0.0534
     70  CG       -17.4820    6.2430   25.9540 C.ar  144  TYR144     -0.0201
     71  CD1      -17.3760    7.3400   25.1070 C.ar  144  TYR144     -0.0009
     72  CD2      -17.4550    6.4860   27.3280 C.ar  144  TYR144     -0.0009
     73  CE1      -17.2910    8.6410   25.5950 C.ar  144  TYR144      0.0417
     74  CE2      -17.3430    7.7810   27.8280 C.ar  144  TYR144      0.0417
     75  CZ       -17.2710    8.8550   26.9650 C.ar  144  TYR144      0.1957
     76  OH       -17.2240   10.1140   27.4480 O.3   144  TYR144     -0.2866
     77  N        -22.9590    2.8650   25.7310 N.3   193  TRP193     -0.1241
     78  CA       -22.6850    3.4520   27.0560 C.3   193  TRP193      0.1605
     79  C        -22.5340    4.9600   26.8450 C.2   193  TRP193      0.2264
     80  O        -21.5130    5.4380   26.3720 O.2   193  TRP193     -0.2867
     81  CB       -21.4440    2.8160   27.6820 C.3   193  TRP193      0.0550
     82  CG       -21.2650    3.0610   29.1640 C.ar  193  TRP193      0.0003
     83  CD1      -21.6330    2.2160   30.1670 C.ar  193  TRP193      0.0946
     84  CD2      -20.6140    4.1800   29.8090 C.ar  193  TRP193      0.0152
     85  NE1      -21.2970    2.7550   31.3830 N.ar  193  TRP193     -0.2442
     86  CE2      -20.6830    3.9540   31.2010 C.ar  193  TRP193      0.0810
     87  CE3      -20.0200    5.3620   29.3540 C.ar  193  TRP193      0.0012
     88  CZ2      -20.1300    4.8280   32.1300 C.ar  193  TRP193      0.0191
     89  CZ3      -19.4700    6.2430   30.2930 C.ar  193  TRP193      0.0001
     90  CH2      -19.5410    5.9720   31.6660 C.ar  193  TRP193      0.0015
     91  N        -22.3500    8.9320   27.7390 N.3   195  ASP195     -0.1239
     92  CA       -21.7460    9.8770   28.6740 C.3   195  ASP195      0.1674
     93  C        -22.0870   11.2930   28.2180 C.2   195  ASP195      0.2266
     94  O        -22.5820   11.5140   27.0910 O.2   195  ASP195     -0.2867
     95  CB       -20.2320    9.6430   28.6930 C.3   195  ASP195      0.1410
     96  CG       -19.5460   10.1630   29.9400 C.2   195  ASP195      0.3668
     97  OD1      -20.2130   10.5140   30.9210 O.co2 195  ASP195     -0.2456
     98  OD2      -18.3070   10.1210   29.9620 O.co2 195  ASP195     -0.2456
     99  N        -25.3590   15.1790   31.1800 N.3   198  TRP198     -0.1241
    100  CA       -25.7240   15.8390   32.4390 C.3   198  TRP198      0.1605
    101  C        -26.2210   17.2870   32.2450 C.2   198  TRP198      0.2264
    102  O        -26.8080   17.8580   33.1590 O.2   198  TRP198     -0.2867
    103  CB       -24.5600   15.8080   33.4250 C.3   198  TRP198      0.0550
    104  CG       -23.2760   16.2200   32.8450 C.ar  198  TRP198      0.0003
    105  CD1      -22.9020   17.4810   32.5240 C.ar  198  TRP198      0.0946
    106  CD2      -22.1830   15.3650   32.4770 C.ar  198  TRP198      0.0152
    107  NE1      -21.6350   17.4780   31.9890 N.ar  198  TRP198     -0.2442
    108  CE2      -21.1760   16.1910   31.9370 C.ar  198  TRP198      0.0810
    109  CE3      -21.9570   13.9860   32.5420 C.ar  198  TRP198      0.0012
    110  CZ2      -19.9610   15.6880   31.4750 C.ar  198  TRP198      0.0191
    111  CZ3      -20.7340   13.4920   32.0840 C.ar  198  TRP198      0.0001
    112  CH2      -19.7610   14.3470   31.5610 C.ar  198  TRP198      0.0015
    113  N        -18.6230    4.8380   39.2410 N.3   254  GLU254     -0.1245
    114  CA       -17.5150    5.1590   38.3960 C.3   254  GLU254      0.1567
    115  C        -16.5000    5.6060   39.3810 C.2   254  GLU254      0.2260
    116  O        -16.6580    6.6190   40.0250 O.2   254  GLU254     -0.2867
    117  CB       -17.9470    6.2120   37.3670 C.3   254  GLU254      0.0388
    118  CG       -16.8750    7.1250   36.8190 C.3   254  GLU254      0.1160
    119  CD       -17.3950    8.0790   35.7450 C.2   254  GLU254      0.3649
    120  OE1      -18.4060    7.7450   35.0820 O.co2 254  GLU254     -0.2457
    121  OE2      -16.7930    9.1660   35.5400 O.co2 254  GLU254     -0.2457
    122  N         -8.4100    8.8500   32.5960 N.3   282  TRP282     -0.1241
    123  CA        -9.0050    7.8580   31.7030 C.3   282  TRP282      0.1605
    124  C         -8.2110    7.7980   30.3990 C.2   282  TRP282      0.2264
    125  O         -7.7340    6.7320   29.9760 O.2   282  TRP282     -0.2867
    126  CB       -10.4890    8.1770   31.4200 C.3   282  TRP282      0.0550
    127  CG       -11.4120    8.1470   32.6330 C.ar  282  TRP282      0.0003
    128  CD1      -11.6360    9.1650   33.5030 C.ar  282  TRP282      0.0946
    129  CD2      -12.2360    7.0500   33.0720 C.ar  282  TRP282      0.0152
    130  NE1      -12.5450    8.7840   34.4500 N.ar  282  TRP282     -0.2442
    131  CE2      -12.9290    7.4880   34.2130 C.ar  282  TRP282      0.0810
    132  CE3      -12.4290    5.7360   32.6250 C.ar  282  TRP282      0.0012
    133  CZ2      -13.8130    6.6650   34.9180 C.ar  282  TRP282      0.0191
    134  CZ3      -13.2910    4.9170   33.3180 C.ar  282  TRP282      0.0001
    135  CH2      -13.9970    5.3870   34.4680 C.ar  282  TRP282      0.0015
@<TRIPOS>BOND
     1    45    46    1
     2    48    47    2
     3    68    67    2
     4    58    57    2
     5    57    56    1
     6    47    46    1
     7    47    55   am
     8    46    49    1
     9    67    66    1
    10    65    66    1
    11    49    50    1
    12    56    55    1
    13    56    59    1
    14    66    69    1
    15    71    73   ar
    16    71    70   ar
    17    14    15    2
    18    14    13    1
    19    69    70    1
    20    73    75   ar
    21    77    78    1
    22    50    51   ar
    23    50    52   ar
    24    59    60    1
    25    70    72   ar
    26    13    12    1
    27    13    16    1
    28    80    79    2
    29    51    53   ar
    30    52    54   ar
    31    79    78    1
    32    75    76    1
    33    75    74   ar
    34    78    81    1
    35    94    93    2
    36    60    61   ar
    37    60    62   ar
    38    61    63   ar
    39    25    24    2
    40    72    74   ar
    41    16    17    1
    42    81    82    1
    43    91    92    1
    44    53    54   ar
    45     3     4    2
    46     3     2    1
    47    17    19   ar
    48    17    18   ar
    49    26    23    1
    50    26    27    1
    51     9     7   ar
    52     9    11   ar
    53    93    92    1
    54    23    24    1
    55    23    22    1
    56    19    21   ar
    57    24    31   am
    58    63    64   ar
    59    62    64   ar
    60     7     6   ar
    61    92    95    1
    62    95    96    1
    63     2     1    1
    64     2     5    1
    65    18    20   ar
    66    21    20   ar
    67    11    10   ar
    68    82    84   ar
    69    82    83   ar
    70    27    28    1
    71    33    32    1
    72    33    34    2
    73    87    84   ar
    74    87    89   ar
    75    31    32    1
    76    32    35    1
    77     6     5    1
    78     6     8   ar
    79    84    86   ar
    80    96    98   ar
    81    96    97   ar
    82   125   124    2
    83    83    85   ar
    84    10     8   ar
    85    89    90   ar
    86   124   123    1
    87    28    29   ar
    88    28    30   ar
    89    35    36    1
    90    36    37   ar
    91    36    38   ar
    92    37    39   ar
    93    99   100    1
    94    86    85   ar
    95    86    88   ar
    96    38    41   ar
    97    38    40   ar
    98    39    40   ar
    99    41    43   ar
   100    40    42   ar
   101    43    44   ar
   102   126   123    1
   103   126   127    1
   104    42    44   ar
   105   110   112   ar
   106   110   108   ar
   107   112   111   ar
   108    90    88   ar
   109   123   122    1
   110   108   107   ar
   111   108   106   ar
   112   107   105   ar
   113   111   109   ar
   114   101   100    1
   115   101   102    2
   116   100   103    1
   117   106   109   ar
   118   106   104   ar
   119   105   104   ar
   120   132   129   ar
   121   132   134   ar
   122   127   129   ar
   123   127   128   ar
   124   104   103    1
   125   129   131   ar
   126   134   135   ar
   127   128   130   ar
   128   131   130   ar
   129   131   133   ar
   130   135   133   ar
   131   120   119   ar
   132   121   119   ar
   133   119   118    1
   134   118   117    1
   135   117   114    1
   136   114   113    1
   137   114   115    1
   138   115   116    2
