@<TRIPOS>MOLECULE
tmp/4jl6A01.pdb
 192 179 0 0 0
SMALL
GASTEIGER

@<TRIPOS>ATOM
      1  N        -14.8100   -3.3700   13.1130 N.3     9  PRO9       -0.2102
      2  CA       -15.0840   -1.9870   13.5010 C.3     9  PRO9        0.1504
      3  C        -16.3330   -1.5110   12.7630 C.2     9  PRO9        0.2576
      4  O        -16.5150   -1.8430   11.5850 O.2     9  PRO9       -0.2718
      5  CB       -13.8450   -1.2320   12.9960 C.3     9  PRO9        0.0282
      6  CG       -13.2660   -2.1180   11.9200 C.3     9  PRO9        0.0208
      7  CD       -13.5180   -3.5080   12.4210 C.3     9  PRO9        0.0893
      8  N        -17.1920   -0.7770   13.4610 N.am   10  GLY10      -0.1957
      9  CA       -18.4130   -0.2560   12.8690 C.3    10  GLY10       0.1869
     10  C        -19.6030   -1.2010   12.9210 C.2    10  GLY10       0.2309
     11  O        -20.6790   -0.8840   12.4030 O.2    10  GLY10      -0.2863
     12  N        -20.9380   -2.5090   18.0290 N.3    13  LYS13      -0.1245
     13  CA       -20.6540   -3.1260   19.3260 C.3    13  LYS13       0.1561
     14  C        -20.7440   -2.1440   20.4890 C.2    13  LYS13       0.2260
     15  O        -21.2940   -2.4750   21.5370 O.2    13  LYS13      -0.2867
     16  CB       -19.2710   -3.8030   19.3260 C.3    13  LYS13       0.0271
     17  CG       -19.1140   -4.8290   18.2120 C.3    13  LYS13       0.0035
     18  CD       -17.7400   -5.5080   18.2050 C.3    13  LYS13       0.0206
     19  CE       -16.5750   -4.5310   18.0270 C.3    13  LYS13       0.1093
     20  NZ       -16.6240   -3.7800   16.7330 N.3    13  LYS13      -0.1314
     21  N        -14.8800   -0.6030   27.6950 N.3    30  SER30      -0.1202
     22  CA       -14.5060   -0.3100   26.3180 C.3    30  SER30       0.2020
     23  C        -13.0310    0.0500   26.2650 C.2    30  SER30       0.2619
     24  O        -12.6380    1.0910   26.7710 O.2    30  SER30      -0.2717
     25  CB       -15.3140    0.8670   25.7760 C.3    30  SER30       0.2103
     26  OG       -14.8120    1.2650   24.5140 O.3    30  SER30      -0.2182
     27  N        -12.2170   -0.7880   25.6400 N.am   31  THR31      -0.1938
     28  CA       -10.8120   -0.4390   25.5290 C.3    31  THR31       0.2028
     29  C        -10.6390    0.7970   24.6430 C.2    31  THR31       0.2642
     30  O         -9.7650    1.6250   24.8930 O.2    31  THR31      -0.2714
     31  CB        -9.9580   -1.6310   25.0550 C.3    31  THR31       0.1808
     32  OG1      -10.6710   -2.3520   24.0430 O.3    31  THR31      -0.2208
     33  CG2       -9.6770   -2.5770   26.2240 C.3    31  THR31       0.0379
     34  N        -11.4820    0.9530   23.6240 N.am   32  GLY32      -0.1954
     35  CA       -11.3900    2.1440   22.7960 C.3    32  GLY32       0.1869
     36  C        -11.6780    3.4160   23.5800 C.2    32  GLY32       0.2309
     37  O        -10.9520    4.4110   23.4740 O.2    32  GLY32      -0.2863
     38  N         -8.8160    3.9790   26.1910 N.3    35  LEU35      -0.1231
     39  CA        -7.6720    4.4870   25.4420 C.3    35  LEU35       0.1693
     40  C         -7.8660    5.9360   24.9930 C.2    35  LEU35       0.2591
     41  O         -6.9370    6.7330   25.0690 O.2    35  LEU35      -0.2718
     42  CB        -7.4020    3.5980   24.2370 C.3    35  LEU35       0.0284
     43  CG        -6.7430    2.2600   24.5600 C.3    35  LEU35       0.0019
     44  CD1       -6.7450    1.3940   23.3290 C.3    35  LEU35       0.0001
     45  CD2       -5.3000    2.4870   25.0510 C.3    35  LEU35       0.0001
     46  N         -9.0640    6.2900   24.5270 N.am   36  ARG36      -0.1980
     47  CA        -9.2770    7.6570   24.0630 C.3    36  ARG36       0.1597
     48  C         -9.2030    8.6560   25.2220 C.2    36  ARG36       0.2287
     49  O         -8.7470    9.7880   25.0450 O.2    36  ARG36      -0.2864
     50  CB       -10.5950    7.7890   23.2780 C.3    36  ARG36       0.0334
     51  CG       -10.4680    7.3630   21.8230 C.3    36  ARG36       0.0492
     52  CD       -11.7840    7.5450   21.0570 C.3    36  ARG36       0.2205
     53  NE       -12.8080    6.5840   21.4700 N.pl3  36  ARG36      -0.0865
     54  CZ       -12.9440    5.3680   20.9460 C.cat  36  ARG36       0.5346
     55  NH1      -13.9040    4.5560   21.3790 N.pl3  36  ARG36       0.1354
     56  NH2      -12.1210    4.9580   19.9880 N.pl3  36  ARG36       0.1354
     57  N         -3.2550    4.0190   17.2180 N.3    53  MET53      -0.1245
     58  CA        -4.6740    4.2790   16.9740 C.3    53  MET53       0.1570
     59  C         -4.8720    5.1310   15.7160 C.2    53  MET53       0.2261
     60  O         -5.7230    4.8230   14.8750 O.2    53  MET53      -0.2867
     61  CB        -5.3150    4.9470   18.1920 C.3    53  MET53       0.0387
     62  CG        -5.1590    4.1450   19.4980 C.3    53  MET53       0.0595
     63  SD        -5.6240    5.0620   20.9740 S.3    53  MET53      -0.1393
     64  CE        -7.3910    5.2190   20.7250 C.3    53  MET53       0.0692
     65  N         -4.6080    3.2330   12.6040 N.3    56  GLY56      -0.1210
     66  CA        -5.5610    2.1360   12.5270 C.3    56  GLY56       0.1956
     67  C         -4.9500    0.7930   12.8950 C.2    56  GLY56       0.2612
     68  O         -5.4720   -0.2720   12.5480 O.2    56  GLY56      -0.2717
     69  N         -3.8280    0.8500   13.6030 N.am   57  GLU57      -0.1965
     70  CA        -3.1510   -0.3500   14.0880 C.3    57  GLU57       0.1733
     71  C         -3.6230   -0.6700   15.4990 C.2    57  GLU57       0.2616
     72  O         -4.1080    0.2130   16.2130 O.2    57  GLU57      -0.2715
     73  CB        -1.6390   -0.1290   14.0760 C.3    57  GLU57       0.0429
     74  CG        -1.0950    0.1240   12.6840 C.3    57  GLU57       0.1163
     75  CD         0.3250    0.6680   12.6810 C.2    57  GLU57       0.3649
     76  OE1        0.7120    1.2820   11.6620 O.co2  57  GLU57      -0.2457
     77  OE2        1.0580    0.4900   13.6810 O.co2  57  GLU57      -0.2457
     78  N         -3.4850   -1.9270   15.9070 N.am   58  LEU58      -0.1963
     79  CA        -3.7730   -2.2690   17.2980 C.3    58  LEU58       0.1728
     80  C         -2.6650   -1.7620   18.2110 C.2    58  LEU58       0.2616
     81  O         -1.4830   -1.8000   17.8550 O.2    58  LEU58      -0.2715
     82  CB        -3.9450   -3.7800   17.4820 C.3    58  LEU58       0.0311
     83  CG        -5.1020   -4.4410   16.7280 C.3    58  LEU58       0.0022
     84  CD1       -5.1950   -5.9200   17.0730 C.3    58  LEU58       0.0001
     85  CD2       -6.4310   -3.7520   17.0340 C.3    58  LEU58       0.0001
     86  N         -3.0600   -1.3110   19.3960 N.am   59  VAL59      -0.1977
     87  CA        -2.0990   -0.9480   20.4320 C.3    59  VAL59       0.1596
     88  C         -1.4730   -2.2360   20.9520 C.2    59  VAL59       0.2287
     89  O         -2.1760   -3.2380   21.1170 O.2    59  VAL59      -0.2864
     90  CB        -2.8060   -0.2230   21.5760 C.3    59  VAL59       0.0276
     91  CG1       -1.8470    0.0660   22.7360 C.3    59  VAL59       0.0022
     92  CG2       -3.4200    1.0700   21.0830 C.3    59  VAL59       0.0022
     93  N         -2.3650   -3.2000   26.6480 N.3    64  ILE64      -0.1245
     94  CA        -3.7850   -3.4970   26.7770 C.3    64  ILE64       0.1561
     95  C         -4.0320   -4.4510   27.9230 C.2    64  ILE64       0.2260
     96  O         -4.9640   -4.2690   28.6960 O.2    64  ILE64      -0.2867
     97  CB        -4.3630   -4.0730   25.4660 C.3    64  ILE64       0.0252
     98  CG1       -4.1700   -3.0610   24.3430 C.3    64  ILE64       0.0019
     99  CG2       -5.8350   -4.4520   25.6480 C.3    64  ILE64       0.0019
    100  CD1       -4.8680   -1.7260   24.5920 C.3    64  ILE64       0.0001
    101  N        -15.8940   -4.8790   25.6380 N.3    81  ASP81      -0.1225
    102  CA       -16.3280   -4.3380   24.3540 C.3    81  ASP81       0.1805
    103  C        -15.1230   -3.8920   23.5280 C.2    81  ASP81       0.2598
    104  O        -14.5590   -2.8220   23.7410 O.2    81  ASP81      -0.2718
    105  CB       -17.3380   -3.2000   24.6210 C.3    81  ASP81       0.1424
    106  CG       -17.6490   -2.3610   23.3970 C.2    81  ASP81       0.3668
    107  OD1      -17.4530   -2.8300   22.2580 O.co2  81  ASP81      -0.2456
    108  OD2      -18.1160   -1.2120   23.5900 O.co2  81  ASP81      -0.2456
    109  N        -14.7230   -4.7350   22.5870 N.am   82  GLY82      -0.1942
    110  CA       -13.5580   -4.4360   21.7790 C.3    82  GLY82       0.2014
    111  C        -12.2890   -4.9470   22.4370 C.2    82  GLY82       0.2638
    112  O        -11.1820   -4.5780   22.0560 O.2    82  GLY82      -0.2714
    113  N        -12.4600   -5.7810   23.4560 N.am   83  PHE83      -0.1973
    114  CA       -11.3540   -6.5260   24.0460 C.3    83  PHE83       0.1639
    115  C        -11.9070   -7.9070   24.3150 C.2    83  PHE83       0.2290
    116  O        -13.0230   -8.0170   24.7960 O.2    83  PHE83      -0.2864
    117  CB       -10.9140   -5.9070   25.3770 C.3    83  PHE83       0.0560
    118  CG        -9.9450   -6.7700   26.1560 C.ar   83  PHE83      -0.0200
    119  CD1       -8.5870   -6.7820   25.8420 C.ar   83  PHE83      -0.0042
    120  CD2      -10.3920   -7.5690   27.2060 C.ar   83  PHE83      -0.0042
    121  CE1       -7.6990   -7.5780   26.5560 C.ar   83  PHE83      -0.0003
    122  CE2       -9.5090   -8.3680   27.9130 C.ar   83  PHE83      -0.0003
    123  CZ        -8.1650   -8.3730   27.5860 C.ar   83  PHE83      -0.0000
    124  N         -8.7020   -8.3180   21.3950 N.3    85  ARG85      -0.1245
    125  CA        -8.5790   -8.1140   19.9480 C.3    85  ARG85       0.1563
    126  C         -7.5480   -9.0420   19.3330 C.2    85  ARG85       0.2260
    127  O         -7.3850   -9.0620   18.1200 O.2    85  ARG85      -0.2867
    128  CB        -8.1690   -6.6780   19.6160 C.3    85  ARG85       0.0307
    129  CG        -9.1820   -5.6210   19.9680 C.3    85  ARG85       0.0489
    130  CD       -10.3470   -5.6360   19.0160 C.3    85  ARG85       0.2205
    131  NE       -10.3660   -4.4610   18.1470 N.pl3  85  ARG85      -0.0865
    132  CZ       -10.8000   -3.2560   18.5180 C.cat  85  ARG85       0.5346
    133  NH1      -11.2270   -3.0490   19.7470 N.pl3  85  ARG85       0.1354
    134  NH2      -10.7940   -2.2520   17.6490 N.pl3  85  ARG85       0.1354
    135  N         -4.2420  -11.5800   23.7890 N.3    89  GLN89      -0.1245
    136  CA        -5.1500  -10.9000   24.7060 C.3    89  GLN89       0.1566
    137  C         -6.2030  -11.8570   25.2420 C.2    89  GLN89       0.2260
    138  O         -6.5450  -11.8080   26.4220 O.2    89  GLN89      -0.2867
    139  CB        -5.8280   -9.7060   24.0280 C.3    89  GLN89       0.0367
    140  CG        -4.8980   -8.5310   23.7800 C.3    89  GLN89       0.0905
    141  CD        -5.5980   -7.3790   23.0850 C.2    89  GLN89       0.2608
    142  OE1       -6.8120   -7.2300   23.1770 O.2    89  GLN89      -0.2717
    143  NE2       -4.8270   -6.5510   22.3910 N.am   89  GLN89      -0.0878
    144  N        -18.8680    3.4980    9.3510 N.3   121  LEU121     -0.1245
    145  CA       -17.7150    4.1940    9.8970 C.3   121  LEU121      0.1561
    146  C        -17.5410    5.5500    9.2190 C.2   121  LEU121      0.2260
    147  O        -17.1510    6.5270    9.8610 O.2   121  LEU121     -0.2867
    148  CB       -16.4570    3.3460    9.7430 C.3   121  LEU121      0.0270
    149  CG       -16.3280    2.1310   10.6630 C.3   121  LEU121      0.0019
    150  CD1      -15.0240    1.4050   10.3610 C.3   121  LEU121      0.0001
    151  CD2      -16.4000    2.5420   12.1300 C.3   121  LEU121      0.0001
    152  N        -20.0350    7.8460   10.7480 N.3   124  ARG124     -0.1245
    153  CA       -19.9850    7.9740   12.2040 C.3   124  ARG124      0.1563
    154  C        -19.5670    9.3750   12.6410 C.2   124  ARG124      0.2260
    155  O        -18.5650    9.9220   12.1580 O.2   124  ARG124     -0.2867
    156  CB       -19.0500    6.9210   12.8270 C.3   124  ARG124      0.0307
    157  CG       -18.9020    7.0530   14.3460 C.3   124  ARG124      0.0489
    158  CD       -18.3830    5.7780   15.0080 C.3   124  ARG124      0.2205
    159  NE       -16.9890    5.4670   14.6890 N.pl3 124  ARG124     -0.0865
    160  CZ       -16.3580    4.3890   15.1480 C.cat 124  ARG124      0.5346
    161  NH1      -17.0060    3.5300   15.9280 N.pl3 124  ARG124      0.1354
    162  NH2      -15.0910    4.1650   14.8290 N.pl3 124  ARG124      0.1354
    163  N        -14.2240   11.2250   13.6720 N.3   150  ARG150     -0.1245
    164  CA       -12.9620   10.7080   14.1870 C.3   150  ARG150      0.1563
    165  C        -11.9740   10.5360   13.0390 C.2   150  ARG150      0.2260
    166  O        -12.3570   10.2060   11.9140 O.2   150  ARG150     -0.2867
    167  CB       -13.1820    9.3860   14.9250 C.3   150  ARG150      0.0307
    168  CG       -13.7410    9.5430   16.3450 C.3   150  ARG150      0.0489
    169  CD       -14.1340    8.1920   16.9490 C.3   150  ARG150      0.2205
    170  NE       -13.2140    7.1210   16.5590 N.pl3 150  ARG150     -0.0865
    171  CZ       -13.3460    5.8440   16.9140 C.cat 150  ARG150      0.5346
    172  NH1      -12.4560    4.9460   16.5040 N.pl3 150  ARG150      0.1354
    173  NH2      -14.3620    5.4590   17.6790 N.pl3 150  ARG150      0.1354
    174  N         -9.7230    8.3250   12.5430 N.3   152  ASP152     -0.1239
    175  CA        -9.5300    6.9470   12.1030 C.3   152  ASP152      0.1674
    176  C        -10.7340    6.4240   11.3300 C.2   152  ASP152      0.2266
    177  O        -10.7220    5.2940   10.8300 O.2   152  ASP152     -0.2867
    178  CB        -9.1510    6.0150   13.2680 C.3   152  ASP152      0.1410
    179  CG       -10.1210    6.0880   14.4300 C.2   152  ASP152      0.3668
    180  OD1      -10.1910    5.0980   15.1880 O.co2 152  ASP152     -0.2456
    181  OD2      -10.7950    7.1260   14.5970 O.co2 152  ASP152     -0.2456
    182  N         -7.9520   -0.5300    9.3170 N.3   161  ARG161     -0.1245
    183  CA        -8.6210   -1.1200   10.4770 C.3   161  ARG161      0.1563
    184  C         -9.3250   -2.4310   10.1310 C.2   161  ARG161      0.2260
    185  O         -9.2910   -3.3910   10.9070 O.2   161  ARG161     -0.2867
    186  CB        -9.5960   -0.1180   11.1140 C.3   161  ARG161      0.0307
    187  CG        -8.9020    0.9590   11.9460 C.3   161  ARG161      0.0489
    188  CD        -9.7880    2.1740   12.1810 C.3   161  ARG161      0.2205
    189  NE       -10.9380    1.9080   13.0420 N.pl3 161  ARG161     -0.0865
    190  CZ       -12.1230    2.4930   12.8950 C.cat 161  ARG161      0.5346
    191  NH1      -13.1160    2.1960   13.7150 N.pl3 161  ARG161      0.1354
    192  NH2      -12.3190    3.3770   11.9200 N.pl3 161  ARG161      0.1354
@<TRIPOS>BOND
     1   146   147    2
     2   146   145    1
     3   182   183    1
     4   144   145    1
     5   148   145    1
     6   148   149    1
     7   184   183    1
     8   184   185    2
     9   150   149    1
    10   183   186    1
    11   149   151    1
    12   152   153    1
    13   177   176    2
    14   186   187    1
    15   176   175    1
    16     4     3    2
    17    76    75   ar
    18   166   165    2
    19   192   190    1
    20     6     7    1
    21     6     5    1
    22   187   188    1
    23   175   174    1
    24   175   178    1
    25   155   154    2
    26   188   189    1
    27   153   154    1
    28   153   156    1
    29    11    10    2
    30     7     1    1
    31    66    65    1
    32    66    67    1
    33    68    67    2
    34    75    74    1
    35    75    77   ar
    36    74    73    1
    37     3     8   am
    38     3     2    1
    39   156   157    1
    40     9    10    1
    41     9     8    1
    42   190   189    2
    43   190   191    1
    44    67    69   am
    45     5     2    1
    46   165   164    1
    47     1     2    1
    48   178   179    1
    49    69    70    1
    50   163   164    1
    51    73    70    1
    52    70    71    1
    53   164   167    1
    54   157   158    1
    55   179   181   ar
    56   179   180   ar
    57   159   158    1
    58   159   160    2
    59   162   160    1
    60    60    59    2
    61   167   168    1
    62   160   161    1
    63    71    78   am
    64    71    72    2
    65    59    58    1
    66    78    79    1
    67   168   169    1
    68   172   171    1
    69   170   171    2
    70   170   169    1
    71    83    85    1
    72    83    84    1
    73    83    82    1
    74    20    19    1
    75   171   173    1
    76    58    57    1
    77    58    61    1
    78    79    82    1
    79    79    80    1
    80   134   132    1
    81    81    80    2
    82    19    18    1
    83    12    13    1
    84   127   126    2
    85   131   132    2
    86   131   130    1
    87    61    62    1
    88    18    17    1
    89    80    86   am
    90    17    16    1
    91   132   133    1
    92   130   129    1
    93    13    16    1
    94    13    14    1
    95   126   125    1
    96    86    87    1
    97    62    63    1
    98   128   125    1
    99   128   129    1
   100   125   124    1
   101    56    54    1
   102    87    88    1
   103    87    90    1
   104    14    15    2
   105    64    63    1
   106    54    55    1
   107    54    53    2
   108    88    89    2
   109    52    53    1
   110    52    51    1
   111    92    90    1
   112    90    91    1
   113   110   111    1
   114   110   109    1
   115    51    50    1
   116   112   111    2
   117   107   106   ar
   118   143   141   am
   119   111   113   am
   120   109   103   am
   121    35    36    1
   122    35    34    1
   123   141   142    2
   124   141   140    1
   125    50    47    1
   126    44    43    1
   127   106   108   ar
   128   106   105    1
   129   113   114    1
   130    37    36    2
   131   103   104    2
   132   103   102    1
   133    34    29   am
   134   140   139    1
   135   135   136    1
   136   139   136    1
   137    32    31    1
   138   114   115    1
   139   114   117    1
   140    47    46    1
   141    47    48    1
   142    42    43    1
   143    42    39    1
   144   115   116    2
   145    98   100    1
   146    98    97    1
   147   102   105    1
   148   102   101    1
   149    26    25    1
   150    46    40   am
   151    43    45    1
   152    29    30    2
   153    29    28    1
   154   136   137    1
   155    40    41    2
   156    40    39    1
   157    49    48    2
   158    31    28    1
   159    31    33    1
   160   137   138    2
   161   117   118    1
   162    39    38    1
   163    97    99    1
   164    97    94    1
   165    28    27    1
   166    27    23   am
   167    25    22    1
   168   119   118   ar
   169   119   121   ar
   170   118   120   ar
   171    23    22    1
   172    23    24    2
   173    22    21    1
   174   121   123   ar
   175    93    94    1
   176    94    95    1
   177   120   122   ar
   178   123   122   ar
   179    95    96    2
