@<TRIPOS>MOLECULE
tmp/4jlcA00.pdb
 125 118 0 0 0
SMALL
GASTEIGER

@<TRIPOS>ATOM
      1  N         22.6600   12.1610   11.5440 N.3    16  LEU16      -0.1231
      2  CA        23.5820   13.2210   11.1490 C.3    16  LEU16       0.1693
      3  C         24.9250   12.6670   10.6700 C.2    16  LEU16       0.2592
      4  O         25.0000   12.0180    9.6270 O.2    16  LEU16      -0.2718
      5  CB        23.7930   14.2170   12.2950 C.3    16  LEU16       0.0284
      6  CG        22.5790   15.0410   12.7340 C.3    16  LEU16       0.0019
      7  CD1       22.9220   15.9050   13.9380 C.3    16  LEU16       0.0001
      8  CD2       22.0620   15.9000   11.5920 C.3    16  LEU16       0.0001
      9  N         25.9770   12.9280   11.4420 N.am   17  GLY17      -0.1957
     10  CA        27.3390   12.5870   11.0600 C.3    17  GLY17       0.1869
     11  C         27.5790   11.1380   10.6880 C.2    17  GLY17       0.2309
     12  O         28.2790   10.8580    9.7140 O.2    17  GLY17      -0.2863
     13  N         25.4290    9.7730   15.4000 N.3    24  VAL24      -0.1245
     14  CA        24.8580   11.0270   15.8870 C.3    24  VAL24       0.1561
     15  C         23.5750   11.4050   15.1420 C.2    24  VAL24       0.2260
     16  O         23.5400   11.4170   13.9130 O.2    24  VAL24      -0.2867
     17  CB        25.8750   12.1880   15.8190 C.3    24  VAL24       0.0252
     18  CG1       26.7990   12.1550   17.0230 C.3    24  VAL24       0.0019
     19  CG2       26.6740   12.1230   14.5350 C.3    24  VAL24       0.0019
     20  N         21.9050   17.4220   19.4780 N.3    37  ALA37      -0.1245
     21  CA        22.5170   16.2960   18.7870 C.3    37  ALA37       0.1562
     22  C         22.7560   15.1710   19.7890 C.2    37  ALA37       0.2260
     23  O         23.4470   15.3660   20.7920 O.2    37  ALA37      -0.2867
     24  CB        23.8160   16.7200   18.1430 C.3    37  ALA37       0.0290
     25  N         24.2020   11.2620   20.6860 N.3    39  LYS39      -0.1245
     26  CA        25.1950   10.3060   20.2070 C.3    39  LYS39       0.1561
     27  C         24.9860    8.9220   20.8080 C.2    39  LYS39       0.2260
     28  O         25.4160    8.6530   21.9290 O.2    39  LYS39      -0.2867
     29  CB        26.6150   10.7980   20.5030 C.3    39  LYS39       0.0271
     30  CG        27.7070    9.9240   19.9010 C.3    39  LYS39       0.0035
     31  CD        29.1020   10.4050   20.2820 C.3    39  LYS39       0.0206
     32  CE        30.1740    9.5290   19.6470 C.3    39  LYS39       0.1093
     33  NZ        31.5530    9.8940   20.0760 N.3    39  LYS39      -0.1314
     34  N         32.0260   22.2550   21.5950 N.3    69  VAL69      -0.1245
     35  CA        30.6110   21.8880   21.6490 C.3    69  VAL69       0.1561
     36  C         30.2130   21.4990   23.0730 C.2    69  VAL69       0.2260
     37  O         30.9070   20.7230   23.7320 O.2    69  VAL69      -0.2867
     38  CB        30.2560   20.7460   20.6640 C.3    69  VAL69       0.0252
     39  CG1       30.4010   21.2100   19.2160 C.3    69  VAL69       0.0019
     40  CG2       31.1040   19.5120   20.9250 C.3    69  VAL69       0.0019
     41  N         24.3650   16.3330   23.3830 N.3    87  MET87      -0.1230
     42  CA        25.2510   17.4380   23.0280 C.3    87  MET87       0.1702
     43  C         24.5530   18.5310   22.2160 C.2    87  MET87       0.2592
     44  O         23.4210   18.3660   21.7630 O.2    87  MET87      -0.2718
     45  CB        26.4570   16.9150   22.2440 C.3    87  MET87       0.0401
     46  CG        26.5090   15.3990   22.1200 C.3    87  MET87       0.0596
     47  SD        27.7120   14.8400   20.9030 S.3    87  MET87      -0.1393
     48  CE        29.2360   15.2860   21.7180 C.3    87  MET87       0.0692
     49  N         25.2590   19.6390   22.0190 N.am   88  GLU88      -0.1966
     50  CA        24.7110   20.8120   21.3450 C.3    88  GLU88       0.1733
     51  C         24.5200   20.6090   19.8430 C.2    88  GLU88       0.2616
     52  O         25.4320   20.1610   19.1500 O.2    88  GLU88      -0.2715
     53  CB        25.6260   22.0110   21.5880 C.3    88  GLU88       0.0429
     54  CG        25.3720   23.1850   20.6680 C.3    88  GLU88       0.1163
     55  CD        26.4500   24.2380   20.7800 C.2    88  GLU88       0.3649
     56  OE1       27.5230   23.9310   21.3420 O.co2  88  GLU88      -0.2457
     57  OE2       26.2250   25.3740   20.3120 O.co2  88  GLU88      -0.2457
     58  N         23.3330   20.9480   19.3450 N.am   89  PHE89      -0.1960
     59  CA        23.0350   20.8170   17.9220 C.3    89  PHE89       0.1771
     60  C         23.5910   21.9970   17.1290 C.2    89  PHE89       0.2620
     61  O         23.4200   23.1520   17.5140 O.2    89  PHE89      -0.2715
     62  CB        21.5250   20.6840   17.6930 C.3    89  PHE89       0.0574
     63  CG        21.1480   20.4240   16.2590 C.ar   89  PHE89      -0.0200
     64  CD1       21.4390   19.2100   15.6590 C.ar   89  PHE89      -0.0042
     65  CD2       20.4950   21.3920   15.5140 C.ar   89  PHE89      -0.0042
     66  CE1       21.0930   18.9730   14.3380 C.ar   89  PHE89      -0.0003
     67  CE2       20.1470   21.1570   14.1990 C.ar   89  PHE89      -0.0003
     68  CZ        20.4470   19.9480   13.6100 C.ar   89  PHE89      -0.0000
     69  N         24.2530   21.6970   16.0170 N.am   90  CYS90      -0.1954
     70  CA        24.8380   22.7280   15.1700 C.3    90  CYS90       0.1828
     71  C         24.2450   22.6550   13.7680 C.2    90  CYS90       0.2467
     72  O         24.7870   21.9800   12.9000 O.2    90  CYS90      -0.2730
     73  CB        26.3550   22.5540   15.1150 C.3    90  CYS90       0.0996
     74  SG        27.1520   22.5370   16.7410 S.3    90  CYS90      -0.0797
     75  N         23.1290   23.3630   13.5460 N.am   91  PRO91      -0.2726
     76  CA        22.3140   23.2740   12.3270 C.3    91  PRO91       0.1402
     77  C         23.0660   23.6030   11.0410 C.2    91  PRO91       0.2269
     78  O         22.6860   23.1030    9.9830 O.2    91  PRO91      -0.2865
     79  CB        21.1940   24.2940   12.5760 C.3    91  PRO91       0.0296
     80  CG        21.7200   25.1960   13.6370 C.3    91  PRO91       0.0237
     81  CD        22.5910   24.3480   14.4970 C.3    91  PRO91       0.0939
     82  N         25.9990   22.7160   10.1620 N.3    93  GLY93      -0.1210
     83  CA        26.9140   21.6680    9.7520 C.3    93  GLY93       0.1956
     84  C         28.3200   21.9280   10.2590 C.2    93  GLY93       0.2612
     85  O         28.5010   22.5710   11.2930 O.2    93  GLY93      -0.2717
     86  N         29.3160   21.4330    9.5310 N.am   94  SER94      -0.1952
     87  CA        30.7120   21.5790    9.9370 C.3    94  SER94       0.1924
     88  C         31.5060   22.4260    8.9420 C.2    94  SER94       0.2314
     89  O         30.9530   22.9470    7.9700 O.2    94  SER94      -0.2863
     90  CB        31.3670   20.2040   10.0790 C.3    94  SER94       0.2116
     91  OG        31.4450   19.5570    8.8220 O.3    94  SER94      -0.2180
     92  N         33.6190   21.2030    7.0080 N.3    96  TYR96      -0.1227
     93  CA        33.5590   20.3940    5.8010 C.3    96  TYR96       0.1736
     94  C         32.3470   20.7830    4.9660 C.2    96  TYR96       0.2596
     95  O         32.4290   20.8620    3.7400 O.2    96  TYR96      -0.2718
     96  CB        33.4970   18.9090    6.1500 C.3    96  TYR96       0.0548
     97  CG        33.4690   18.0140    4.9360 C.ar   96  TYR96      -0.0200
     98  CD1       34.6460   17.6130    4.3170 C.ar   96  TYR96      -0.0009
     99  CD2       32.2660   17.5720    4.4060 C.ar   96  TYR96      -0.0009
    100  CE1       34.6250   16.7950    3.2070 C.ar   96  TYR96       0.0417
    101  CE2       32.2350   16.7560    3.2960 C.ar   96  TYR96       0.0417
    102  CZ        33.4160   16.3700    2.7000 C.ar   96  TYR96       0.1957
    103  OH        33.3910   15.5540    1.5940 O.3    96  TYR96      -0.2866
    104  N         31.2240   21.0210    5.6400 N.am   97  THR97      -0.1953
    105  CA        29.9980   21.4460    4.9770 C.3    97  THR97       0.1897
    106  C         30.2080   22.7860    4.2780 C.2    97  THR97       0.2313
    107  O         29.7790   22.9750    3.1370 O.2    97  THR97      -0.2863
    108  CB        28.8390   21.5930    5.9780 C.3    97  THR97       0.1794
    109  OG1       28.8330   20.4760    6.8740 O.3    97  THR97      -0.2208
    110  CG2       27.5060   21.6590    5.2490 C.3    97  THR97       0.0378
    111  N         32.4620   21.9050   13.9880 N.3   143  MET143     -0.1245
    112  CA        31.0830   22.3130   13.7420 C.3   143  MET143      0.1570
    113  C         30.9400   23.8250   13.6260 C.2   143  MET143      0.2261
    114  O         31.7420   24.5820   14.1660 O.2   143  MET143     -0.2867
    115  CB        30.1620   21.7780   14.8400 C.3   143  MET143      0.0387
    116  CG        30.3080   20.2900   15.0840 C.3   143  MET143      0.0595
    117  SD        30.1470   19.3450   13.5590 S.3   143  MET143     -0.1393
    118  CE        28.5230   19.8640   13.0140 C.3   143  MET143      0.0692
    119  N         34.7770   19.2730   18.2370 N.3   157  THR157     -0.1218
    120  CA        34.0720   18.1420   18.8170 C.3   157  THR157      0.1862
    121  C         34.9440   16.9050   18.6900 C.2   157  THR157      0.2287
    122  O         36.0480   16.9830   18.1500 O.2   157  THR157     -0.2866
    123  CB        32.7150   17.9060   18.1290 C.3   157  THR157      0.1770
    124  OG1       31.9570   16.9530   18.8830 O.3   157  THR157     -0.2211
    125  CG2       32.9090   17.3970   16.7070 C.3   157  THR157      0.0375
@<TRIPOS>BOND
     1   103   102    1
     2   102   100   ar
     3   102   101   ar
     4   107   106    2
     5   100    98   ar
     6   101    99   ar
     7    95    94    2
     8   106   105    1
     9    98    97   ar
    10    99    97   ar
    11    97    96    1
    12    94   104   am
    13    94    93    1
    14   105   104    1
    15   105   108    1
    16   110   108    1
    17    93    96    1
    18    93    92    1
    19   108   109    1
    20    89    88    2
    21    91    90    1
    22    88    87    1
    23    86    87    1
    24    86    84   am
    25     4     3    2
    26    12    11    2
    27    83    82    1
    28    83    84    1
    29    87    90    1
    30    78    77    2
    31    84    85    2
    32     3     2    1
    33     3     9   am
    34    11    10    1
    35    77    76    1
    36    10     9    1
    37     2     1    1
    38     2     5    1
    39     8     6    1
    40     5     6    1
    41    76    79    1
    42    76    75    1
    43    79    80    1
    44     6     7    1
    45    72    71    2
    46   118   117    1
    47    75    71   am
    48    75    81    1
    49   117   116    1
    50    68    67   ar
    51    68    66   ar
    52   113   112    1
    53   113   114    2
    54    80    81    1
    55   112   111    1
    56   112   115    1
    57    71    70    1
    58    16    15    2
    59    67    65   ar
    60    66    64   ar
    61    19    17    1
    62   115   116    1
    63    73    70    1
    64    73    74    1
    65    15    14    1
    66    70    69    1
    67    13    14    1
    68    65    63   ar
    69    64    63   ar
    70    17    14    1
    71    17    18    1
    72    69    60   am
    73    63    62    1
    74   125   123    1
    75    60    61    2
    76    60    59    1
    77    62    59    1
    78    59    58    1
    79   123   120    1
    80   123   124    1
    81    24    21    1
    82   122   121    2
    83   119   120    1
    84   121   120    1
    85    21    20    1
    86    21    22    1
    87    52    51    2
    88    39    38    1
    89    58    51   am
    90    32    33    1
    91    32    31    1
    92    22    23    2
    93    51    50    1
    94    30    31    1
    95    30    29    1
    96    26    29    1
    97    26    25    1
    98    26    27    1
    99    57    55   ar
   100    38    40    1
   101    38    35    1
   102    54    55    1
   103    54    53    1
   104    55    56   ar
   105    27    28    2
   106    47    48    1
   107    47    46    1
   108    50    53    1
   109    50    49    1
   110    34    35    1
   111    35    36    1
   112    44    43    2
   113    49    43   am
   114    46    45    1
   115    43    42    1
   116    45    42    1
   117    42    41    1
   118    36    37    2
