@<TRIPOS>MOLECULE
tmp/4jlgA01.pdb
 177 176 0 0 0
SMALL
GASTEIGER

@<TRIPOS>ATOM
      1  N         -1.5230    0.3910   -1.9340 N.3   129  TYR129     -0.1241
      2  CA        -2.2450    0.2200   -3.1910 C.3   129  TYR129      0.1605
      3  C         -1.7360    1.2430   -4.2030 C.2   129  TYR129      0.2264
      4  O         -2.2670    2.3340   -4.3330 O.2   129  TYR129     -0.2867
      5  CB        -3.7610    0.3360   -2.9910 C.3   129  TYR129      0.0534
      6  CG        -4.6090   -0.3670   -4.0490 C.ar  129  TYR129     -0.0201
      7  CD1       -5.4580   -1.4070   -3.6960 C.ar  129  TYR129     -0.0009
      8  CD2       -4.5670    0.0220   -5.3980 C.ar  129  TYR129     -0.0009
      9  CE1       -6.2520   -2.0470   -4.6470 C.ar  129  TYR129      0.0417
     10  CE2       -5.3610   -0.6250   -6.3670 C.ar  129  TYR129      0.0417
     11  CZ        -6.1940   -1.6600   -5.9740 C.ar  129  TYR129      0.1957
     12  OH        -6.9820   -2.3220   -6.9010 O.3   129  TYR129     -0.2866
     13  N        -11.8780    8.6600  -13.8230 N.3   136  HIS136     -0.1241
     14  CA       -13.1270    7.9480  -13.6040 C.3   136  HIS136      0.1621
     15  C        -13.8870    7.7210  -14.9010 C.2   136  HIS136      0.2264
     16  O        -14.5430    6.6980  -15.0600 O.2   136  HIS136     -0.2867
     17  CB       -14.0010    8.7150  -12.6200 C.3   136  HIS136      0.0745
     18  CG       -13.6190    8.4970  -11.1970 C.ar  136  HIS136      0.0817
     19  ND1      -14.1330    7.4660  -10.4450 N.ar  136  HIS136     -0.2268
     20  CD2      -12.7600    9.1620  -10.3880 C.ar  136  HIS136      0.1154
     21  CE1      -13.6220    7.5130   -9.2280 C.ar  136  HIS136      0.1986
     22  NE2      -12.7850    8.5310   -9.1680 N.ar  136  HIS136     -0.2212
     23  N        -12.6090    4.6720  -16.9230 N.3   139  VAL139     -0.1231
     24  CA       -13.0720    3.4590  -16.2520 C.3   139  VAL139      0.1692
     25  C        -14.5580    3.2330  -16.5510 C.2   139  VAL139      0.2592
     26  O        -14.9630    2.1200  -16.8720 O.2   139  VAL139     -0.2718
     27  CB       -12.8510    3.5330  -14.7200 C.3   139  VAL139      0.0266
     28  CG1      -13.4610    2.3200  -14.0150 C.3   139  VAL139      0.0020
     29  CG2      -11.3560    3.6480  -14.3870 C.3   139  VAL139      0.0020
     30  N        -15.3500    4.3040  -16.4580 N.am  140  ASP140     -0.1974
     31  CA       -16.7900    4.2490  -16.7310 C.3   140  ASP140      0.1709
     32  C        -17.1050    3.8650  -18.1780 C.2   140  ASP140      0.2293
     33  O        -18.1200    3.2260  -18.4430 O.2   140  ASP140     -0.2864
     34  CB       -17.4450    5.5970  -16.4130 C.3   140  ASP140      0.1436
     35  CG       -17.3660    5.9630  -14.9320 C.2   140  ASP140      0.3671
     36  OD1      -17.0980    5.0760  -14.0950 O.co2 140  ASP140     -0.2456
     37  OD2      -17.5690    7.1530  -14.6030 O.co2 140  ASP140     -0.2456
     38  N        -16.1320   -3.8150  -18.7560 N.3   144  TRP144     -0.1241
     39  CA       -16.1420   -4.1090  -17.3070 C.3   144  TRP144      0.1605
     40  C        -15.1280   -5.1700  -16.8820 C.2   144  TRP144      0.2264
     41  O        -14.7070   -5.2120  -15.7170 O.2   144  TRP144     -0.2867
     42  CB       -17.5450   -4.5280  -16.8480 C.3   144  TRP144      0.0550
     43  CG       -17.6010   -4.5120  -15.3300 C.ar  144  TRP144      0.0003
     44  CD1      -17.4480   -5.5540  -14.5180 C.ar  144  TRP144      0.0946
     45  CD2      -17.8490   -3.3410  -14.5050 C.ar  144  TRP144      0.0152
     46  NE1      -17.5420   -5.1620  -13.2070 N.ar  144  TRP144     -0.2442
     47  CE2      -17.7930   -3.8060  -13.1570 C.ar  144  TRP144      0.0810
     48  CE3      -18.0860   -2.0200  -14.7410 C.ar  144  TRP144      0.0012
     49  CZ2      -17.9820   -2.9580  -12.1190 C.ar  144  TRP144      0.0191
     50  CZ3      -18.2710   -1.1430  -13.6490 C.ar  144  TRP144      0.0001
     51  CH2      -18.2170   -1.6330  -12.3660 C.ar  144  TRP144      0.0015
     52  N        -11.9500   -3.8050  -15.1860 N.3   147  ASN147     -0.1225
     53  CA       -12.0840   -3.0030  -13.9560 C.3   147  ASN147      0.1785
     54  C        -12.0390   -3.7690  -12.6400 C.2   147  ASN147      0.2598
     55  O        -12.6360   -3.3420  -11.6340 O.2   147  ASN147     -0.2718
     56  CB       -13.3450   -2.1290  -14.0160 C.3   147  ASN147      0.1169
     57  CG       -13.2980   -1.1140  -15.1370 C.2   147  ASN147      0.2627
     58  OD1      -12.2160   -0.7370  -15.6040 O.2   147  ASN147     -0.2716
     59  ND2      -14.4760   -0.6630  -15.5840 N.am  147  ASN147     -0.0877
     60  N        -11.3140   -4.8840  -12.6400 N.am  148  GLY148     -0.1942
     61  CA       -11.1070   -5.6690  -11.4250 C.3   148  GLY148      0.2014
     62  C        -10.2850   -4.9540  -10.3620 C.2   148  GLY148      0.2639
     63  O        -10.5510   -5.1100   -9.1670 O.2   148  GLY148     -0.2714
     64  N         -9.3020   -4.1580  -10.8040 N.am  149  ASN149     -0.1958
     65  CA        -8.3050   -3.5300   -9.9170 C.3   149  ASN149      0.1819
     66  C         -8.3730   -1.9990   -9.8250 C.2   149  ASN149      0.2622
     67  O         -7.4240   -1.3560   -9.3470 O.2   149  ASN149     -0.2715
     68  CB        -6.8710   -3.9470  -10.3190 C.3   149  ASN149      0.1195
     69  CG        -6.5240   -5.3780   -9.8990 C.2   149  ASN149      0.2630
     70  OD1       -7.1920   -5.9740   -9.0630 O.2   149  ASN149     -0.2716
     71  ND2       -5.4590   -5.9240  -10.4800 N.am  149  ASN149     -0.0877
     72  N         -9.4900   -1.4230  -10.2610 N.am  150  THR150     -0.1937
     73  CA        -9.6430    0.0270  -10.3260 C.3   150  THR150      0.2028
     74  C        -10.1490    0.5710   -8.9970 C.2   150  THR150      0.2642
     75  O        -11.3290    0.4300   -8.6520 O.2   150  THR150     -0.2714
     76  CB       -10.5860    0.4770  -11.4720 C.3   150  THR150      0.1808
     77  OG1      -11.8110   -0.2700  -11.4200 O.3   150  THR150     -0.2208
     78  CG2       -9.9260    0.2640  -12.8260 C.3   150  THR150      0.0379
     79  N         -9.2430    1.1870   -8.2570 N.am  151  LEU151     -0.1963
     80  CA        -9.5810    1.7730   -6.9610 C.3   151  LEU151      0.1728
     81  C         -9.6550    3.2920   -7.0670 C.2   151  LEU151      0.2616
     82  O         -8.7090    3.9420   -7.5210 O.2   151  LEU151     -0.2715
     83  CB        -8.5490    1.3680   -5.9080 C.3   151  LEU151      0.0311
     84  CG        -8.8240    1.8410   -4.4710 C.3   151  LEU151      0.0022
     85  CD1      -10.0230    1.0920   -3.8750 C.3   151  LEU151      0.0001
     86  CD2       -7.5950    1.6440   -3.6100 C.3   151  LEU151      0.0001
     87  N        -10.7860    3.8480   -6.6430 N.am  152  SER152     -0.1950
     88  CA       -10.9670    5.2870   -6.6020 C.3   152  SER152      0.1924
     89  C         -9.9750    5.9210   -5.6340 C.2   152  SER152      0.2314
     90  O         -9.8980    5.5160   -4.4710 O.2   152  SER152     -0.2863
     91  CB       -12.3970    5.6260   -6.1630 C.3   152  SER152      0.2116
     92  OG       -12.6260    7.0180   -6.2950 O.3   152  SER152     -0.2180
     93  N         -8.4820    7.5350  -10.5040 N.3   158  VAL158     -0.1245
     94  CA        -8.5480    6.1230  -10.1590 C.3   158  VAL158      0.1561
     95  C         -7.1510    5.5320  -10.3130 C.2   158  VAL158      0.2260
     96  O         -6.4190    5.8830  -11.2480 O.2   158  VAL158     -0.2867
     97  CB        -9.5410    5.3620  -11.0730 C.3   158  VAL158      0.0252
     98  CG1       -9.3670    3.8390  -10.9560 C.3   158  VAL158      0.0019
     99  CG2      -10.9760    5.7600  -10.7510 C.3   158  VAL158      0.0019
    100  N         -3.4620   -4.4120   -4.1520 N.3   177  HIS177     -0.1241
    101  CA        -4.4090   -4.9570   -5.1280 C.3   177  HIS177      0.1621
    102  C         -4.6720   -6.4640   -4.9780 C.2   177  HIS177      0.2264
    103  O         -5.5140   -7.0180   -5.6960 O.2   177  HIS177     -0.2867
    104  CB        -3.9360   -4.6600   -6.5540 C.3   177  HIS177      0.0745
    105  CG        -2.6060   -5.2640   -6.8780 C.ar  177  HIS177      0.0817
    106  ND1       -1.4270   -4.7960   -6.3370 N.ar  177  HIS177     -0.2268
    107  CD2       -2.2700   -6.3120   -7.6710 C.ar  177  HIS177      0.1154
    108  CE1       -0.4150   -5.5060   -6.8120 C.ar  177  HIS177      0.1986
    109  NE2       -0.9000   -6.4310   -7.6260 N.ar  177  HIS177     -0.2212
    110  N         -5.7280   -7.8260   -2.0040 N.3   179  ALA179     -0.1245
    111  CA        -6.6710   -8.0410   -0.9270 C.3   179  ALA179      0.1562
    112  C         -8.0750   -8.2310   -1.4880 C.2   179  ALA179      0.2260
    113  O         -8.5450   -7.4270   -2.2850 O.2   179  ALA179     -0.2867
    114  CB        -6.6410   -6.8900    0.0560 C.3   179  ALA179      0.0290
    115  N         -9.4650    0.5360    3.2100 N.3   189  TYR189     -0.1241
    116  CA        -8.5770    1.3940    2.4150 C.3   189  TYR189      0.1605
    117  C         -8.5060    2.7700    3.0450 C.2   189  TYR189      0.2264
    118  O         -9.5240    3.3060    3.4940 O.2   189  TYR189     -0.2867
    119  CB        -9.0530    1.5390    0.9670 C.3   189  TYR189      0.0534
    120  CG        -9.1250    0.2550    0.1710 C.ar  189  TYR189     -0.0201
    121  CD1      -10.3520   -0.2250   -0.2930 C.ar  189  TYR189     -0.0009
    122  CD2       -7.9740   -0.4790   -0.1220 C.ar  189  TYR189     -0.0009
    123  CE1      -10.4330   -1.3960   -1.0240 C.ar  189  TYR189      0.0417
    124  CE2       -8.0470   -1.6580   -0.8490 C.ar  189  TYR189      0.0417
    125  CZ        -9.2780   -2.1000   -1.3090 C.ar  189  TYR189      0.1957
    126  OH        -9.3650   -3.2690   -2.0270 O.3   189  TYR189     -0.2866
    127  N        -15.4030   -3.9280   -0.5100 N.3   219  TYR219     -0.1227
    128  CA       -15.3530   -3.2130   -1.7980 C.3   219  TYR219      0.1736
    129  C        -16.5300   -2.2390   -1.9480 C.2   219  TYR219      0.2596
    130  O        -17.5630   -2.3970   -1.2810 O.2   219  TYR219     -0.2718
    131  CB       -15.3520   -4.2150   -2.9640 C.3   219  TYR219      0.0548
    132  CG       -14.0560   -5.0040   -3.2030 C.ar  219  TYR219     -0.0200
    133  CD1      -13.0910   -5.1630   -2.2040 C.ar  219  TYR219     -0.0009
    134  CD2      -13.8390   -5.6370   -4.4330 C.ar  219  TYR219     -0.0009
    135  CE1      -11.9130   -5.9190   -2.4290 C.ar  219  TYR219      0.0417
    136  CE2      -12.6760   -6.3920   -4.6760 C.ar  219  TYR219      0.0417
    137  CZ       -11.7220   -6.5340   -3.6680 C.ar  219  TYR219      0.1957
    138  OH       -10.5840   -7.2820   -3.9050 O.3   219  TYR219     -0.2866
    139  N        -16.3650   -1.2290   -2.7980 N.am  220  GLY220     -0.1942
    140  CA       -17.4110   -0.2300   -3.0280 C.3   220  GLY220      0.2014
    141  C        -18.1010   -0.3220   -4.3790 C.2   220  GLY220      0.2638
    142  O        -17.5520    0.1260   -5.4020 O.2   220  GLY220     -0.2714
    143  N        -19.3160   -0.8740   -4.3760 N.am  221  TYR221     -0.1973
    144  CA       -20.1050   -1.0390   -5.5960 C.3   221  TYR221      0.1639
    145  C        -21.4460   -0.2930   -5.5640 C.2   221  TYR221      0.2290
    146  O        -22.3960   -0.6950   -6.2330 O.2   221  TYR221     -0.2864
    147  CB       -20.3340   -2.5270   -5.9170 C.3   221  TYR221      0.0560
    148  CG       -19.0950   -3.2450   -6.4150 C.ar  221  TYR221     -0.0198
    149  CD1      -18.5210   -4.2660   -5.6750 C.ar  221  TYR221     -0.0009
    150  CD2      -18.4970   -2.8890   -7.6260 C.ar  221  TYR221     -0.0009
    151  CE1      -17.3590   -4.9330   -6.1250 C.ar  221  TYR221      0.0417
    152  CE2      -17.3410   -3.5460   -8.0840 C.ar  221  TYR221      0.0417
    153  CZ       -16.7840   -4.5610   -7.3270 C.ar  221  TYR221      0.1957
    154  OH       -15.6430   -5.2080   -7.7720 O.3   221  TYR221     -0.2866
    155  N        -21.8960    2.5460   -6.9060 N.3   223  HIS223     -0.1226
    156  CA       -21.9940    3.2660   -8.1770 C.3   223  HIS223      0.1752
    157  C        -21.8760    2.3750   -9.4180 C.2   223  HIS223      0.2597
    158  O        -21.5740    2.8660  -10.5150 O.2   223  HIS223     -0.2718
    159  CB       -20.9610    4.4050   -8.2310 C.3   223  HIS223      0.0759
    160  CG       -21.1240    5.4210   -7.1430 C.ar  223  HIS223      0.0818
    161  ND1      -22.2320    6.2340   -7.0410 N.ar  223  HIS223     -0.2268
    162  CD2      -20.3200    5.7520   -6.1060 C.ar  223  HIS223      0.1154
    163  CE1      -22.1060    7.0210   -5.9870 C.ar  223  HIS223      0.1986
    164  NE2      -20.9530    6.7480   -5.4020 N.ar  223  HIS223     -0.2212
    165  N        -22.1250    1.0790   -9.2440 N.am  224  SER224     -0.1938
    166  CA       -22.1980    0.1280  -10.3620 C.3   224  SER224      0.2040
    167  C        -23.3460    0.5080  -11.3030 C.2   224  SER224      0.2485
    168  O        -24.3430    1.0870  -10.8430 O.2   224  SER224     -0.2729
    169  CB       -22.4360   -1.2860   -9.8360 C.3   224  SER224      0.2129
    170  OG       -21.3080   -1.7950   -9.1510 O.3   224  SER224     -0.2179
    171  N        -23.2160    0.2020  -12.6170 N.am  225  PRO225     -0.2726
    172  CA       -24.3080    0.5300  -13.5430 C.3   225  PRO225      0.1402
    173  C        -25.6290   -0.0840  -13.0670 C.2   225  PRO225      0.2269
    174  O        -25.6570   -1.2530  -12.6610 O.2   225  PRO225     -0.2865
    175  CB       -23.8520   -0.1030  -14.8630 C.3   225  PRO225      0.0296
    176  CG       -22.3430   -0.0800  -14.7630 C.3   225  PRO225      0.0237
    177  CD       -22.0770   -0.4210  -13.3240 C.3   225  PRO225      0.0939
@<TRIPOS>BOND
     1    38    39    1
     2    33    32    2
     3    32    31    1
     4    39    40    1
     5    39    42    1
     6    23    24    1
     7    40    41    2
     8    26    25    2
     9    42    43    1
    10    31    30    1
    11    31    34    1
    12    25    30   am
    13    25    24    1
    14    34    35    1
    15    24    27    1
    16    58    57    2
    17    59    57   am
    18    43    44   ar
    19    43    45   ar
    20    52    53    1
    21    57    56    1
    22    16    15    2
    23    35    37   ar
    24    35    36   ar
    25    15    14    1
    26   175   176    1
    27   175   172    1
    28   176   177    1
    29    48    45   ar
    30    48    50   ar
    31    27    29    1
    32    27    28    1
    33    44    46   ar
    34    45    47   ar
    35    56    53    1
    36    53    54    1
    37    13    14    1
    38    50    51   ar
    39    14    17    1
    40   172   173    1
    41   172   171    1
    42   177   171    1
    43    46    47   ar
    44    47    49   ar
    45   173   174    2
    46    78    76    1
    47    60    54   am
    48    60    61    1
    49    54    55    2
    50    17    18    1
    51   171   167   am
    52    51    49   ar
    53    76    77    1
    54    76    73    1
    55    61    62    1
    56   167   168    2
    57   167   166    1
    58    96    95    2
    59    18    19   ar
    60    18    20   ar
    61    97    98    1
    62    97    99    1
    63    97    94    1
    64    64    62   am
    65    64    65    1
    66   158   157    2
    67    93    94    1
    68    71    69   am
    69    19    21   ar
    70    20    22   ar
    71   166   169    1
    72   166   165    1
    73    62    63    2
    74    73    72    1
    75    73    74    1
    76    68    65    1
    77    68    69    1
    78    95    94    1
    79    72    66   am
    80    65    66    1
    81    69    70    2
    82   169   170    1
    83    66    67    2
    84   157   165   am
    85   157   156    1
    86    21    22   ar
    87    74    75    2
    88    74    79   am
    89    79    80    1
    90   159   156    1
    91   159   160    1
    92   156   155    1
    93   152   150   ar
    94   152   153   ar
    95   154   153    1
    96   107   109   ar
    97   107   105   ar
    98   150   148   ar
    99   109   108   ar
   100    82    81    2
   101   153   151   ar
   102   160   161   ar
   103   160   162   ar
   104    81    80    1
   105    81    87   am
   106   161   163   ar
   107    80    83    1
   108    12    11    1
   109   105   104    1
   110   105   106   ar
   111   108   106   ar
   112    87    88    1
   113    88    91    1
   114    88    89    1
   115   104   101    1
   116   148   147    1
   117   148   149   ar
   118    10    11   ar
   119    10     8   ar
   120    92    91    1
   121   146   145    2
   122   151   149   ar
   123   162   164   ar
   124   163   164   ar
   125    11     9   ar
   126   147   144    1
   127    83    84    1
   128   103   102    2
   129    89    90    2
   130   144   145    1
   131   144   143    1
   132   142   141    2
   133     8     6   ar
   134   101   102    1
   135   101   100    1
   136   136   134   ar
   137   136   137   ar
   138     9     7   ar
   139    84    85    1
   140    84    86    1
   141   134   132   ar
   142   141   143   am
   143   141   140    1
   144     4     3    2
   145     3     2    1
   146     6     7   ar
   147     6     5    1
   148   138   137    1
   149   137   135   ar
   150   132   131    1
   151   132   133   ar
   152     2     5    1
   153     2     1    1
   154   140   139    1
   155   131   128    1
   156   139   129   am
   157   135   133   ar
   158   113   112    2
   159   126   125    1
   160   110   111    1
   161   129   128    1
   162   129   130    2
   163   128   127    1
   164   112   111    1
   165   125   123   ar
   166   125   124   ar
   167   123   121   ar
   168   111   114    1
   169   124   122   ar
   170   121   120   ar
   171   122   120   ar
   172   120   119    1
   173   119   116    1
   174   116   117    1
   175   116   115    1
   176   117   118    2
