@<TRIPOS>MOLECULE
tmp/4jlhA00.pdb
 88 87 0 0 0
SMALL
GASTEIGER

@<TRIPOS>ATOM
      1  N        -25.4480   13.2290   -9.7950 N.3    39  GLN39      -0.1245
      2  CA       -25.6060   12.3580  -10.9300 C.3    39  GLN39       0.1566
      3  C        -26.3920   11.0790  -10.5970 C.2    39  GLN39       0.2260
      4  O        -27.2160   10.6540  -11.3770 O.2    39  GLN39      -0.2867
      5  CB       -24.2370   12.0190  -11.5220 C.3    39  GLN39       0.0367
      6  CG       -24.2990   11.1280  -12.7500 C.3    39  GLN39       0.0905
      7  CD       -22.9140   10.6730  -13.2310 C.2    39  GLN39       0.2608
      8  OE1      -22.7680    9.5590  -13.7590 O.2    39  GLN39      -0.2717
      9  NE2      -21.9020   11.5330  -13.0610 N.am   39  GLN39      -0.0878
     10  N        -30.0590   12.1720  -10.0080 N.3    42  ALA42      -0.1231
     11  CA       -30.7300   12.5300  -11.2570 C.3    42  ALA42       0.1694
     12  C        -31.1180   11.2640  -11.9700 C.2    42  ALA42       0.2592
     13  O        -32.2210   11.1300  -12.4810 O.2    42  ALA42      -0.2718
     14  CB       -29.7860   13.3720  -12.1710 C.3    42  ALA42       0.0304
     15  N        -30.1690   10.3250  -12.0230 N.am   43  TYR43      -0.1976
     16  CA       -30.3800    9.0450  -12.6920 C.3    43  TYR43       0.1639
     17  C        -31.5030    8.2700  -12.0630 C.2    43  TYR43       0.2290
     18  O        -32.3750    7.7070  -12.7560 O.2    43  TYR43      -0.2864
     19  CB       -29.0760    8.2240  -12.6790 C.3    43  TYR43       0.0560
     20  CG       -29.2340    6.8940  -13.3640 C.ar   43  TYR43      -0.0198
     21  CD1      -29.3120    6.8340  -14.7600 C.ar   43  TYR43      -0.0009
     22  CD2      -29.3310    5.6830  -12.6190 C.ar   43  TYR43      -0.0009
     23  CE1      -29.4780    5.6340  -15.4210 C.ar   43  TYR43       0.0417
     24  CE2      -29.4880    4.4540  -13.2840 C.ar   43  TYR43       0.0417
     25  CZ       -29.5500    4.4530  -14.6940 C.ar   43  TYR43       0.1957
     26  OH       -29.6890    3.2840  -15.4010 O.3    43  TYR43      -0.2866
     27  N        -34.8910    9.8530  -13.0240 N.3    46  LEU46      -0.1245
     28  CA       -35.3210    9.5100  -14.3880 C.3    46  LEU46       0.1561
     29  C        -35.9610    8.1440  -14.4630 C.2    46  LEU46       0.2260
     30  O        -36.9730    7.9270  -15.1460 O.2    46  LEU46      -0.2867
     31  CB       -34.1470    9.6020  -15.3760 C.3    46  LEU46       0.0270
     32  CG       -33.6520   11.0510  -15.6390 C.3    46  LEU46       0.0019
     33  CD1      -32.4100   10.9610  -16.5310 C.3    46  LEU46       0.0001
     34  CD2      -34.7400   11.9690  -16.2790 C.3    46  LEU46       0.0001
     35  N        -27.3490   21.3900  -10.6430 N.3    68  THR68      -0.1203
     36  CA       -27.9490   21.5710  -11.9630 C.3    68  THR68       0.1994
     37  C        -28.2310   20.2040  -12.5860 C.2    68  THR68       0.2618
     38  O        -29.2070   20.0460  -13.2990 O.2    68  THR68      -0.2717
     39  CB       -27.0570   22.4430  -12.9020 C.3    68  THR68       0.1784
     40  OG1      -25.7250   21.9110  -12.9140 O.3    68  THR68      -0.2211
     41  CG2      -26.9800   23.8900  -12.4110 C.3    68  THR68       0.0376
     42  N        -27.3990   19.2120  -12.2800 N.am   69  THR69      -0.1952
     43  CA       -27.5820   17.8590  -12.7660 C.3    69  THR69       0.1897
     44  C        -28.9710   17.3280  -12.3630 C.2    69  THR69       0.2313
     45  O        -29.6930   16.8380  -13.2040 O.2    69  THR69      -0.2863
     46  CB       -26.4660   16.9270  -12.2250 C.3    69  THR69       0.1794
     47  OG1      -25.2030   17.5400  -12.4670 O.3    69  THR69      -0.2208
     48  CG2      -26.5130   15.5770  -12.8840 C.3    69  THR69       0.0378
     49  N        -31.9390   19.4440  -13.8840 N.3    72  THR72      -0.1203
     50  CA       -32.1230   19.0680  -15.3100 C.3    72  THR72       0.1994
     51  C        -32.9180   17.7640  -15.4320 C.2    72  THR72       0.2617
     52  O        -33.8410   17.6690  -16.2710 O.2    72  THR72      -0.2717
     53  CB       -30.7830   18.9760  -16.0220 C.3    72  THR72       0.1784
     54  OG1      -30.1180   20.2160  -15.8450 O.3    72  THR72      -0.2211
     55  CG2      -30.9090   18.6800  -17.5620 C.3    72  THR72       0.0376
     56  N        -32.6050   16.7720  -14.5850 N.am   73  ALA73      -0.1979
     57  CA       -33.4270   15.5380  -14.6230 C.3    73  ALA73       0.1597
     58  C        -34.8740   15.9360  -14.3300 C.2    73  ALA73       0.2287
     59  O        -35.8470   15.4100  -14.9280 O.2    73  ALA73      -0.2864
     60  CB       -32.9440   14.4800  -13.6100 C.3    73  ALA73       0.0319
     61  N        -36.4020   18.8930  -14.6440 N.3    74  TRP74      -0.1227
     62  CA       -36.9010   19.6480  -15.8260 C.3    74  TRP74       0.1737
     63  C        -37.3310   18.6640  -16.9120 C.2    74  TRP74       0.2595
     64  O        -38.4590   18.7430  -17.4290 O.2    74  TRP74      -0.2718
     65  CB       -35.8250   20.6140  -16.3300 C.3    74  TRP74       0.0564
     66  CG       -36.1280   21.1150  -17.7250 C.ar   74  TRP74       0.0003
     67  CD1      -37.0070   22.1240  -18.0650 C.ar   74  TRP74       0.0946
     68  CD2      -35.6030   20.6070  -18.9590 C.ar   74  TRP74       0.0152
     69  NE1      -37.0240   22.2860  -19.4250 N.ar   74  TRP74      -0.2442
     70  CE2      -36.1790   21.3800  -20.0030 C.ar   74  TRP74       0.0810
     71  CE3      -34.6780   19.5980  -19.2860 C.ar   74  TRP74       0.0012
     72  CZ2      -35.8860   21.1650  -21.3400 C.ar   74  TRP74       0.0191
     73  CZ3      -34.3660   19.3890  -20.6330 C.ar   74  TRP74       0.0001
     74  CH2      -34.9820   20.1700  -21.6530 C.ar   74  TRP74       0.0015
     75  N        -36.4620   17.7080  -17.2400 N.am   75  TRP75      -0.1976
     76  CA       -36.7340   16.8230  -18.3690 C.3    75  TRP75       0.1640
     77  C        -37.9570   15.9350  -18.1660 C.2    75  TRP75       0.2290
     78  O        -38.7750   15.7460  -19.1000 O.2    75  TRP75      -0.2864
     79  CB       -35.4840   15.9900  -18.7560 C.3    75  TRP75       0.0576
     80  CG       -35.6510   15.2330  -20.0570 C.ar   75  TRP75       0.0006
     81  CD1      -35.2810   15.6490  -21.3040 C.ar   75  TRP75       0.0946
     82  CD2      -36.2190   13.9170  -20.2210 C.ar   75  TRP75       0.0152
     83  NE1      -35.6100   14.6860  -22.2350 N.ar   75  TRP75      -0.2442
     84  CE2      -36.1790   13.6120  -21.6030 C.ar   75  TRP75       0.0810
     85  CE3      -36.7770   12.9860  -19.3360 C.ar   75  TRP75       0.0012
     86  CZ2      -36.6640   12.4110  -22.1250 C.ar   75  TRP75       0.0191
     87  CZ3      -37.2650   11.7880  -19.8510 C.ar   75  TRP75       0.0001
     88  CH2      -37.2140   11.5160  -21.2460 C.ar   75  TRP75       0.0015
@<TRIPOS>BOND
     1    83    84   ar
     2    83    81   ar
     3    86    84   ar
     4    86    88   ar
     5    74    72   ar
     6    74    73   ar
     7    84    82   ar
     8    72    70   ar
     9    81    80   ar
    10    88    87   ar
    11    73    71   ar
    12    82    80   ar
    13    82    85   ar
    14    80    79    1
    15    70    69   ar
    16    70    68   ar
    17    87    85   ar
    18    69    67   ar
    19    71    68   ar
    20    78    77    2
    21    68    66   ar
    22    79    76    1
    23    76    77    1
    24    76    75    1
    25    67    66   ar
    26    66    65    1
    27    55    53    1
    28    64    63    2
    29    75    63   am
    30    63    62    1
    31    33    32    1
    32    65    62    1
    33    34    32    1
    34    52    51    2
    35    53    54    1
    36    53    50    1
    37    62    61    1
    38    32    31    1
    39    51    50    1
    40    51    56   am
    41    23    21   ar
    42    23    25   ar
    43    26    25    1
    44    31    28    1
    45    50    49    1
    46    30    29    2
    47    59    58    2
    48    21    20   ar
    49    25    24   ar
    50    57    56    1
    51    57    58    1
    52    57    60    1
    53    29    28    1
    54    28    27    1
    55     8     7    2
    56    20    19    1
    57    20    22   ar
    58    38    37    2
    59    24    22   ar
    60     7     9   am
    61     7     6    1
    62    45    44    2
    63    40    39    1
    64    39    41    1
    65    39    36    1
    66    48    46    1
    67    43    44    1
    68    43    42    1
    69    43    46    1
    70    18    17    2
    71     6     5    1
    72    16    19    1
    73    16    17    1
    74    16    15    1
    75    37    42   am
    76    37    36    1
    77    13    12    2
    78    47    46    1
    79    14    11    1
    80    15    12   am
    81    12    11    1
    82    36    35    1
    83     5     2    1
    84     4     3    2
    85    11    10    1
    86     2     3    1
    87     2     1    1
