@<TRIPOS>MOLECULE
tmp/4jllA00.pdb
 157 150 0 0 0
SMALL
GASTEIGER

@<TRIPOS>ATOM
      1  N        -23.9930    9.1580   -7.2480 N.3     3  ILE3       -0.1245
      2  CA       -22.7660    9.4030   -6.5080 C.3     3  ILE3        0.1561
      3  C        -22.6770   10.8620   -6.0670 C.2     3  ILE3        0.2260
      4  O        -23.0380   11.7650   -6.8160 O.2     3  ILE3       -0.2867
      5  CB       -21.5120    8.9830   -7.3210 C.3     3  ILE3        0.0252
      6  CG1      -20.2310    9.2530   -6.5260 C.3     3  ILE3        0.0019
      7  CG2      -21.4810    9.6850   -8.6590 C.3     3  ILE3        0.0019
      8  CD1      -19.0430    8.4190   -6.9700 C.3     3  ILE3        0.0001
      9  N        -19.8320   13.5880   -4.4540 N.3     5  HIS5       -0.1241
     10  CA       -18.3960   13.7870   -4.2830 C.3     5  HIS5        0.1621
     11  C        -18.1100   14.7410   -3.1420 C.2     5  HIS5        0.2264
     12  O        -18.6380   15.8450   -3.1180 O.2     5  HIS5       -0.2867
     13  CB       -17.7920   14.3210   -5.5740 C.3     5  HIS5        0.0745
     14  CG       -17.8960   13.3630   -6.7130 C.ar    5  HIS5        0.0817
     15  ND1      -16.9970   12.3340   -6.8960 N.ar    5  HIS5       -0.2268
     16  CD2      -18.7950   13.2670   -7.7220 C.ar    5  HIS5        0.1154
     17  CE1      -17.3360   11.6460   -7.9740 C.ar    5  HIS5        0.1986
     18  NE2      -18.4200   12.1920   -8.4940 N.ar    5  HIS5       -0.2212
     19  N        -16.1720    5.1850   -2.0300 N.3   109  PHE109     -0.1227
     20  CA       -14.9870    4.8570   -2.8220 C.3   109  PHE109      0.1736
     21  C        -13.9900    5.9990   -2.7060 C.2   109  PHE109      0.2596
     22  O        -14.3890    7.1490   -2.4980 O.2   109  PHE109     -0.2718
     23  CB       -15.3170    4.7980   -4.3230 C.3   109  PHE109      0.0547
     24  CG       -15.9880    3.5360   -4.8030 C.ar  109  PHE109     -0.0202
     25  CD1      -17.3350    3.3160   -4.5660 C.ar  109  PHE109     -0.0042
     26  CD2      -15.2950    2.6230   -5.5870 C.ar  109  PHE109     -0.0042
     27  CE1      -17.9590    2.1760   -5.0600 C.ar  109  PHE109     -0.0003
     28  CE2      -15.9200    1.4920   -6.0760 C.ar  109  PHE109     -0.0003
     29  CZ       -17.2480    1.2730   -5.8150 C.ar  109  PHE109     -0.0000
     30  N        -12.7080    5.6970   -2.9060 N.am  110  THR110     -0.1939
     31  CA       -11.7260    6.7070   -3.2940 C.3   110  THR110      0.2028
     32  C        -11.6060    6.7100   -4.8180 C.2   110  THR110      0.2642
     33  O        -12.2410    5.9110   -5.5020 O.2   110  THR110     -0.2714
     34  CB       -10.3390    6.4280   -2.7150 C.3   110  THR110      0.1808
     35  OG1       -9.7520    5.3470   -3.4550 O.3   110  THR110     -0.2208
     36  CG2      -10.4140    6.0590   -1.2420 C.3   110  THR110      0.0379
     37  N        -10.7760    7.6050   -5.3520 N.am  111  SER111     -0.1949
     38  CA       -10.6010    7.7040   -6.8000 C.3   111  SER111      0.1924
     39  C         -9.7640    6.5710   -7.3740 C.2   111  SER111      0.2314
     40  O         -9.6730    6.4240   -8.5970 O.2   111  SER111     -0.2863
     41  CB        -9.9190    9.0180   -7.1600 C.3   111  SER111      0.2116
     42  OG        -8.5650    8.9480   -6.7740 O.3   111  SER111     -0.2180
     43  N         -8.7640    9.9010  -17.4490 N.3   122  GLU122     -0.1245
     44  CA       -10.1060   10.1270  -17.9650 C.3   122  GLU122      0.1567
     45  C        -10.8250    8.8000  -18.2080 C.2   122  GLU122      0.2260
     46  O        -12.0120    8.6600  -17.9100 O.2   122  GLU122     -0.2867
     47  CB       -10.0470   10.9700  -19.2420 C.3   122  GLU122      0.0388
     48  CG       -11.3960   11.2580  -19.8900 C.3   122  GLU122      0.1160
     49  CD       -11.2830   12.1510  -21.1170 C.2   122  GLU122      0.3649
     50  OE1      -10.2010   12.7400  -21.3340 O.co2 122  GLU122     -0.2457
     51  OE2      -12.2760   12.2640  -21.8680 O.co2 122  GLU122     -0.2457
     52  N        -11.8330    7.1810  -14.8460 N.3   125  HIS125     -0.1226
     53  CA       -13.0270    7.8660  -14.3430 C.3   125  HIS125      0.1752
     54  C        -14.2760    7.3890  -15.0510 C.2   125  HIS125      0.2595
     55  O        -15.2950    7.1060  -14.4030 O.2   125  HIS125     -0.2718
     56  CB       -12.8920    9.3770  -14.5320 C.3   125  HIS125      0.0759
     57  CG       -11.7520    9.9720  -13.7720 C.ar  125  HIS125      0.0818
     58  ND1      -11.1690   11.1710  -14.1280 N.ar  125  HIS125     -0.2268
     59  CD2      -11.0840    9.5340  -12.6800 C.ar  125  HIS125      0.1154
     60  CE1      -10.1880   11.4430  -13.2880 C.ar  125  HIS125      0.1986
     61  NE2      -10.1130   10.4670  -12.4020 N.ar  125  HIS125     -0.2212
     62  N        -14.2040    7.3080  -16.3760 N.am  126  ARG126     -0.1980
     63  CA       -15.3290    6.8470  -17.1790 C.3   126  ARG126      0.1597
     64  C        -15.7410    5.4360  -16.7940 C.2   126  ARG126      0.2287
     65  O        -16.9180    5.1750  -16.5440 O.2   126  ARG126     -0.2864
     66  CB       -15.0010    6.8910  -18.6730 C.3   126  ARG126      0.0334
     67  CG       -15.0910    8.2700  -19.3060 C.3   126  ARG126      0.0492
     68  CD       -15.3070    8.1670  -20.8100 C.3   126  ARG126      0.2205
     69  NE       -14.2970    7.3330  -21.4570 N.pl3 126  ARG126     -0.0865
     70  CZ       -13.1580    7.7970  -21.9590 C.cat 126  ARG126      0.5346
     71  NH1      -12.8820    9.0900  -21.8890 N.pl3 126  ARG126      0.1354
     72  NH2      -12.2950    6.9680  -22.5340 N.pl3 126  ARG126      0.1354
     73  N        -15.1430    3.5700  -14.0700 N.3   128  MET128     -0.1230
     74  CA       -15.7090    3.4730  -12.7240 C.3   128  MET128      0.1702
     75  C        -17.0740    4.1490  -12.6500 C.2   128  MET128      0.2592
     76  O        -18.0170    3.6070  -12.0590 O.2   128  MET128     -0.2718
     77  CB       -14.7630    4.0590  -11.6690 C.3   128  MET128      0.0401
     78  CG       -13.4740    3.2800  -11.5080 C.3   128  MET128      0.0596
     79  SD       -12.3610    3.9680  -10.2650 S.3   128  MET128     -0.1393
     80  CE       -13.2150    3.5580   -8.7450 C.3   128  MET128      0.0692
     81  N        -17.1900    5.3180  -13.2680 N.am  129  GLY129     -0.1957
     82  CA       -18.4510    6.0390  -13.2970 C.3   129  GLY129      0.1869
     83  C        -19.5510    5.2360  -13.9680 C.2   129  GLY129      0.2309
     84  O        -20.7040    5.2510  -13.5240 O.2   129  GLY129     -0.2863
     85  N        -20.6870    2.4150  -11.5880 N.3   132  ILE132     -0.1245
     86  CA       -21.4770    2.9840  -10.5060 C.3   132  ILE132      0.1561
     87  C        -22.8660    3.3980  -11.0010 C.2   132  ILE132      0.2260
     88  O        -23.8700    3.1200  -10.3400 O.2   132  ILE132     -0.2867
     89  CB       -20.7320    4.1440   -9.8350 C.3   132  ILE132      0.0252
     90  CG1      -19.5300    3.5880   -9.0680 C.3   132  ILE132      0.0019
     91  CG2      -21.6640    4.9140   -8.8980 C.3   132  ILE132      0.0019
     92  CD1      -18.4720    4.6320   -8.7250 C.3   132  ILE132      0.0001
     93  N        -18.1050    9.4460   -3.3330 N.3   143  GLY143     -0.1210
     94  CA       -16.7250    9.5440   -3.7620 C.3   143  GLY143      0.1956
     95  C        -15.9840   10.4680   -2.8260 C.2   143  GLY143      0.2612
     96  O        -16.3380   11.6420   -2.7260 O.2   143  GLY143     -0.2717
     97  N        -14.9850    9.9450   -2.1250 N.am  144  VAL144     -0.1965
     98  CA       -14.2220   10.7130   -1.1500 C.3   144  VAL144      0.1727
     99  C        -12.8780   11.1140   -1.7430 C.2   144  VAL144      0.2616
    100  O        -12.1150   10.2620   -2.1960 O.2   144  VAL144     -0.2715
    101  CB       -13.9760    9.8800    0.1180 C.3   144  VAL144      0.0290
    102  CG1      -13.2390   10.6920    1.1700 C.3   144  VAL144      0.0023
    103  CG2      -15.2860    9.3530    0.6650 C.3   144  VAL144      0.0023
    104  N        -12.5820   12.4070   -1.7130 N.am  145  HIS145     -0.1973
    105  CA       -11.3990   12.9840   -2.3540 C.3   145  HIS145      0.1656
    106  C        -10.5160   13.6800   -1.3360 C.2   145  HIS145      0.2291
    107  O        -10.9930   14.1990   -0.3360 O.2   145  HIS145     -0.2864
    108  CB       -11.8110   13.9640   -3.4530 C.3   145  HIS145      0.0771
    109  CG       -12.7410   13.3680   -4.4530 C.ar  145  HIS145      0.0820
    110  ND1      -12.2980   12.7060   -5.5770 N.ar  145  HIS145     -0.2267
    111  CD2      -14.0920   13.2980   -4.4780 C.ar  145  HIS145      0.1154
    112  CE1      -13.3420   12.2600   -6.2580 C.ar  145  HIS145      0.1986
    113  NE2      -14.4400   12.6070   -5.6100 N.ar  145  HIS145     -0.2212
    114  N         -8.7440   16.5040   -1.5660 N.3   147  THR147     -0.1218
    115  CA        -8.8270   17.9630   -1.4780 C.3   147  THR147      0.1862
    116  C        -10.1880   18.4940   -1.8820 C.2   147  THR147      0.2287
    117  O        -10.8980   17.8830   -2.6850 O.2   147  THR147     -0.2866
    118  CB        -7.7730   18.6850   -2.3440 C.3   147  THR147      0.1770
    119  OG1       -8.0500   18.4570   -3.7310 O.3   147  THR147     -0.2211
    120  CG2       -6.3610   18.2110   -2.0060 C.3   147  THR147      0.0375
    121  N        -10.6290   21.2010   -3.6390 N.3   149  LYS149     -0.1231
    122  CA       -10.5270   21.6310   -5.0300 C.3   149  LYS149      0.1693
    123  C        -10.9060   20.4980   -5.9720 C.2   149  LYS149      0.2592
    124  O        -11.6710   20.6870   -6.9200 O.2   149  LYS149     -0.2718
    125  CB        -9.1070   22.1080   -5.3470 C.3   149  LYS149      0.0285
    126  CG        -8.8310   22.2840   -6.8360 C.3   149  LYS149      0.0035
    127  CD        -7.4590   22.9000   -7.0840 C.3   149  LYS149      0.0206
    128  CE        -7.5360   24.4220   -7.1990 C.3   149  LYS149      0.1093
    129  NZ        -7.8720   25.1170   -5.9210 N.3   149  LYS149     -0.1314
    130  N        -10.3630   19.3220   -5.7010 N.am  150  SER150     -0.1952
    131  CA       -10.6140   18.1780   -6.5400 C.3   150  SER150      0.1924
    132  C        -12.0750   17.6630   -6.3190 C.2   150  SER150      0.2314
    133  O        -12.7290   17.3550   -7.2840 O.2   150  SER150     -0.2863
    134  CB        -9.6160   17.0220   -6.2770 C.3   150  SER150      0.2116
    135  OG        -9.3380   16.2780   -7.4270 O.3   150  SER150     -0.2180
    136  N        -14.2010   19.7950   -8.3260 N.3   153  ALA153     -0.1231
    137  CA       -14.0000   19.5580   -9.7560 C.3   153  ALA153      0.1694
    138  C        -14.8170   18.3540  -10.2400 C.2   153  ALA153      0.2592
    139  O        -15.4020   18.3960  -11.3200 O.2   153  ALA153     -0.2718
    140  CB       -12.5220   19.3690  -10.0690 C.3   153  ALA153      0.0304
    141  N        -14.8940   17.3160   -9.4180 N.am  154  TYR154     -0.1976
    142  CA       -15.7220   16.1530   -9.7460 C.3   154  TYR154      0.1639
    143  C        -17.2040   16.5420   -9.7780 C.2   154  TYR154      0.2290
    144  O        -17.9520   16.1100  -10.6540 O.2   154  TYR154     -0.2864
    145  CB       -15.4970   15.0160   -8.7540 C.3   154  TYR154      0.0560
    146  CG       -14.3000   14.1420   -9.0480 C.ar  154  TYR154     -0.0198
    147  CD1      -14.4470   12.9470   -9.7290 C.ar  154  TYR154     -0.0009
    148  CD2      -13.0360   14.4810   -8.5880 C.ar  154  TYR154     -0.0009
    149  CE1      -13.3640   12.1370   -9.9800 C.ar  154  TYR154      0.0417
    150  CE2      -11.9380   13.6830   -8.8430 C.ar  154  TYR154      0.0417
    151  CZ       -12.1170   12.5030   -9.5270 C.ar  154  TYR154      0.1957
    152  OH       -11.0390   11.6820   -9.7710 O.3   154  TYR154     -0.2866
    153  N        -17.9720   18.5470  -12.9780 N.3   157  ALA157     -0.1245
    154  CA       -18.0120   17.6720  -14.1460 C.3   157  ALA157      0.1562
    155  C        -19.3210   16.8950  -14.2160 C.2   157  ALA157      0.2260
    156  O        -19.8070   16.5830  -15.3010 O.2   157  ALA157     -0.2867
    157  CB       -16.8430   16.7260  -14.1360 C.3   157  ALA157      0.0290
@<TRIPOS>BOND
     1    72    70    1
     2    70    71    1
     3    70    69    2
     4    51    49   ar
     5    69    68    1
     6    50    49   ar
     7    49    48    1
     8    68    67    1
     9    48    47    1
    10    67    66    1
    11    47    44    1
    12    66    63    1
    13    45    44    1
    14    45    46    2
    15    44    43    1
    16    63    64    1
    17    63    62    1
    18    64    65    2
    19    62    54   am
    20   156   155    2
    21    54    55    2
    22    54    53    1
    23    52    53    1
    24    56    53    1
    25    56    57    1
    26   155   154    1
    27   154   157    1
    28   154   153    1
    29    58    57   ar
    30    58    60   ar
    31    73    74    1
    32    83    84    2
    33    83    82    1
    34    57    59   ar
    35    82    81    1
    36    60    61   ar
    37    81    75   am
    38    74    75    1
    39    74    77    1
    40    59    61   ar
    41    75    76    2
    42    77    78    1
    43    85    86    1
    44    78    79    1
    45   139   138    2
    46    87    86    1
    47    87    88    2
    48   144   143    2
    49    86    89    1
    50    79    80    1
    51   138   137    1
    52   138   141   am
    53   140   137    1
    54   149   147   ar
    55   149   151   ar
    56    89    90    1
    57    89    91    1
    58   143   142    1
    59   152   151    1
    60   137   136    1
    61   142   141    1
    62   142   145    1
    63   147   146   ar
    64   151   150   ar
    65    90    92    1
    66   146   145    1
    67   146   148   ar
    68   150   148   ar
    69     7     5    1
    70    40    39    2
    71    18    17   ar
    72    18    16   ar
    73    17    15   ar
    74    16    14   ar
    75   135   134    1
    76    39    38    1
    77     5     6    1
    78     5     2    1
    79   133   132    2
    80     1     2    1
    81   128   127    1
    82   128   129    1
    83    41    38    1
    84    41    42    1
    85   127   126    1
    86     8     6    1
    87   124   123    2
    88    15    14   ar
    89   126   125    1
    90     4     3    2
    91    38    37    1
    92    14    13    1
    93   131   132    1
    94   131   134    1
    95   131   130    1
    96     2     3    1
    97   112   113   ar
    98   112   110   ar
    99    28    29   ar
   100    28    26   ar
   101   123   130   am
   102   123   122    1
   103    29    27   ar
   104   113   111   ar
   105    26    24   ar
   106   110   109   ar
   107    13    10    1
   108    33    32    2
   109    37    32   am
   110   125   122    1
   111    27    25   ar
   112   122   121    1
   113    32    31    1
   114    24    25   ar
   115    24    23    1
   116   111   109   ar
   117     9    10    1
   118   109   108    1
   119    23    20    1
   120    10    11    1
   121    94    93    1
   122    94    95    1
   123   119   118    1
   124    35    34    1
   125   108   105    1
   126    31    30    1
   127    31    34    1
   128    11    12    2
   129    30    21   am
   130    95    96    2
   131    95    97   am
   132    20    21    1
   133    20    19    1
   134    34    36    1
   135    21    22    2
   136   117   116    2
   137   105   104    1
   138   105   106    1
   139   118   120    1
   140   118   115    1
   141   100    99    2
   142    97    98    1
   143   116   115    1
   144    99   104   am
   145    99    98    1
   146   114   115    1
   147   106   107    2
   148    98   101    1
   149   101   103    1
   150   101   102    1
