@<TRIPOS>MOLECULE
tmp/4jlnA00.pdb
 218 202 0 0 0
SMALL
GASTEIGER

@<TRIPOS>ATOM
      1  N        -26.8300   17.7640    2.4840 N.3    11  ILE11      -0.1245
      2  CA       -27.2330   18.6840    1.4350 C.3    11  ILE11       0.1561
      3  C        -27.3660   20.0870    2.0390 C.2    11  ILE11       0.2260
      4  O        -27.8070   20.2420    3.1880 O.2    11  ILE11      -0.2867
      5  CB       -28.5560   18.2340    0.7720 C.3    11  ILE11       0.0252
      6  CG1      -28.4060   16.8100    0.2010 C.3    11  ILE11       0.0019
      7  CG2      -29.0020   19.2160   -0.3160 C.3    11  ILE11       0.0019
      8  CD1      -29.7070   16.1440   -0.2080 C.3    11  ILE11       0.0001
      9  N        -18.0700   17.8510   -6.4950 N.3    34  GLU34      -0.1245
     10  CA       -18.8640   16.6230   -6.7090 C.3    34  GLU34       0.1567
     11  C        -19.6980   16.7410   -7.9910 C.2    34  GLU34       0.2260
     12  O        -20.3910   17.7330   -8.1740 O.2    34  GLU34      -0.2867
     13  CB       -19.7890   16.3740   -5.5210 C.3    34  GLU34       0.0388
     14  CG       -20.9820   15.4780   -5.8330 C.3    34  GLU34       0.1160
     15  CD       -21.9280   15.3450   -4.6620 C.2    34  GLU34       0.3649
     16  OE1      -21.6230   14.5620   -3.7520 O.co2  34  GLU34      -0.2457
     17  OE2      -22.9830   16.0160   -4.6600 O.co2  34  GLU34      -0.2457
     18  N        -22.5290   15.2040   -8.9830 N.3    36  VAL36      -0.1245
     19  CA       -23.9740   15.3410   -8.7630 C.3    36  VAL36       0.1561
     20  C        -24.3490   16.8230   -8.6280 C.2    36  VAL36       0.2260
     21  O        -25.3950   17.2630   -9.1250 O.2    36  VAL36      -0.2867
     22  CB       -24.4730   14.5730   -7.5130 C.3    36  VAL36       0.0252
     23  CG1      -25.9650   14.8170   -7.3030 C.3    36  VAL36       0.0019
     24  CG2      -24.1890   13.0930   -7.6460 C.3    36  VAL36       0.0019
     25  N        -26.6790   19.2070  -10.7150 N.3    40  SER40      -0.1217
     26  CA       -27.7830   19.8330   -9.9570 C.3    40  SER40       0.1889
     27  C        -28.1850   21.2280  -10.4520 C.2    40  SER40       0.2288
     28  O        -29.0800   21.8750   -9.8850 O.2    40  SER40      -0.2866
     29  CB       -27.4810   19.8670   -8.4520 C.3    40  SER40       0.2089
     30  OG       -27.3740   18.5620   -7.9050 O.3    40  SER40      -0.2183
     31  N        -30.6910   12.4470  -12.8720 N.3    54  LEU54      -0.1245
     32  CA       -31.0750   13.1220  -11.6240 C.3    54  LEU54       0.1561
     33  C        -32.5690   13.4330  -11.6350 C.2    54  LEU54       0.2260
     34  O        -33.2510   13.2430  -10.6390 O.2    54  LEU54      -0.2867
     35  CB       -30.2650   14.4080  -11.4070 C.3    54  LEU54       0.0270
     36  CG       -30.4810   15.1470  -10.0870 C.3    54  LEU54       0.0019
     37  CD1      -30.4080   14.1950   -8.8940 C.3    54  LEU54       0.0001
     38  CD2      -29.4560   16.2520   -9.9420 C.3    54  LEU54       0.0001
     39  N        -34.3460   10.1890  -11.1320 N.3    57  MET57      -0.1230
     40  CA       -34.1850    9.9390   -9.6940 C.3    57  MET57       0.1702
     41  C        -35.1940   10.7020   -8.8160 C.2    57  MET57       0.2592
     42  O        -35.7460   10.1340   -7.8670 O.2    57  MET57      -0.2718
     43  CB       -32.7420   10.2600   -9.2700 C.3    57  MET57       0.0401
     44  CG       -32.4420   10.1230   -7.7850 C.3    57  MET57       0.0596
     45  SD       -32.5090    8.4160   -7.2040 S.3    57  MET57      -0.1393
     46  CE       -32.3910    8.7160   -5.4510 C.3    57  MET57       0.0692
     47  N        -35.4220   11.9830   -9.1160 N.am   58  TYR58      -0.1962
     48  CA       -36.4260   12.7800   -8.3890 C.3    58  TYR58       0.1771
     49  C        -37.8730   12.3060   -8.5830 C.2    58  TYR58       0.2619
     50  O        -38.7000   12.4520   -7.6870 O.2    58  TYR58      -0.2715
     51  CB       -36.3370   14.2670   -8.7650 C.3    58  TYR58       0.0574
     52  CG       -35.4110   15.0890   -7.8980 C.ar   58  TYR58      -0.0198
     53  CD1      -35.7020   15.3140   -6.5470 C.ar   58  TYR58      -0.0009
     54  CD2      -34.2680   15.6670   -8.4300 C.ar   58  TYR58      -0.0009
     55  CE1      -34.8640   16.0790   -5.7490 C.ar   58  TYR58       0.0417
     56  CE2      -33.4200   16.4360   -7.6420 C.ar   58  TYR58       0.0417
     57  CZ       -33.7270   16.6320   -6.3020 C.ar   58  TYR58       0.1957
     58  OH       -32.8920   17.3790   -5.5250 O.3    58  TYR58      -0.2866
     59  N        -38.1840   11.7520   -9.7490 N.am   59  GLU59      -0.1977
     60  CA       -39.5630   11.3400  -10.0280 C.3    59  GLU59       0.1602
     61  C        -39.8480    9.9530   -9.5070 C.2    59  GLU59       0.2287
     62  O        -40.9330    9.7030   -8.9960 O.2    59  GLU59      -0.2864
     63  CB       -39.8820   11.4170  -11.5270 C.3    59  GLU59       0.0415
     64  CG       -39.4540   12.7100  -12.1820 C.3    59  GLU59       0.1163
     65  CD       -40.3880   13.8720  -11.8840 C.2    59  GLU59       0.3649
     66  OE1      -39.8860   15.0220  -11.8220 O.co2  59  GLU59      -0.2457
     67  OE2      -41.6090   13.6360  -11.7240 O.co2  59  GLU59      -0.2457
     68  N        -37.4300    7.4020   -7.4110 N.3    61  PRO61      -0.2116
     69  CA       -36.1830    6.8770   -6.8430 C.3    61  PRO61       0.1372
     70  C        -36.1120    5.3490   -6.8500 C.2    61  PRO61       0.2244
     71  O        -35.0400    4.7940   -7.0820 O.2    61  PRO61      -0.2868
     72  CB       -36.2030    7.4000   -5.3940 C.3    61  PRO61       0.0268
     73  CG       -37.6410    7.7780   -5.1320 C.3    61  PRO61       0.0207
     74  CD       -38.1110    8.2970   -6.4550 C.3    61  PRO61       0.0892
     75  N        -28.3370    5.5640  -10.7980 N.3    68  PHE68      -0.1227
     76  CA       -27.9010    6.8740  -10.3280 C.3    68  PHE68       0.1736
     77  C        -26.6710    6.7560   -9.4220 C.2    68  PHE68       0.2595
     78  O        -25.7050    7.5200   -9.5740 O.2    68  PHE68      -0.2718
     79  CB       -29.0880    7.6060   -9.6480 C.3    68  PHE68       0.0547
     80  CG       -28.7380    8.9300   -9.0260 C.ar   68  PHE68      -0.0202
     81  CD1      -28.5920   10.0740   -9.8100 C.ar   68  PHE68      -0.0042
     82  CD2      -28.5900    9.0430   -7.6510 C.ar   68  PHE68      -0.0042
     83  CE1      -28.2590   11.2900   -9.2240 C.ar   68  PHE68      -0.0003
     84  CE2      -28.2680   10.2650   -7.0550 C.ar   68  PHE68      -0.0003
     85  CZ       -28.1050   11.3820   -7.8430 C.ar   68  PHE68      -0.0000
     86  N        -26.6730    5.7710   -8.5260 N.am   69  GLN69      -0.1979
     87  CA       -25.5590    5.5820   -7.6020 C.3    69  GLN69       0.1601
     88  C        -24.3070    5.0380   -8.2820 C.2    69  GLN69       0.2287
     89  O        -23.1730    5.4190   -7.9230 O.2    69  GLN69      -0.2864
     90  CB       -25.9570    4.7030   -6.4130 C.3    69  GLN69       0.0394
     91  CG       -26.8890    5.3790   -5.4160 C.3    69  GLN69       0.0908
     92  CD       -26.3040    6.6210   -4.7550 C.2    69  GLN69       0.2608
     93  OE1      -25.1450    6.6390   -4.3500 O.2    69  GLN69      -0.2717
     94  NE2      -27.1180    7.6550   -4.6200 N.am   69  GLN69      -0.0878
     95  N        -23.0210    8.2370  -10.3060 N.3    72  ALA72      -0.1245
     96  CA       -22.5240    9.3270   -9.4590 C.3    72  ALA72       0.1562
     97  C        -21.1110    9.0340   -8.9860 C.2    72  ALA72       0.2260
     98  O        -20.2800    9.9400   -8.8590 O.2    72  ALA72      -0.2867
     99  CB       -23.4430    9.5230   -8.2550 C.3    72  ALA72       0.0290
    100  N        -17.4850   10.4640  -10.0880 N.3    76  ARG76      -0.1245
    101  CA       -16.6150   11.0030   -9.0490 C.3    76  ARG76       0.1563
    102  C        -15.2050   10.4340   -9.1410 C.2    76  ARG76       0.2260
    103  O        -14.2300   11.1860   -9.0740 O.2    76  ARG76      -0.2867
    104  CB       -17.1800   10.7390   -7.6490 C.3    76  ARG76       0.0307
    105  CG       -16.2870   11.2570   -6.5410 C.3    76  ARG76       0.0489
    106  CD       -16.7160   10.7770   -5.1590 C.3    76  ARG76       0.2205
    107  NE       -18.1330   11.0090   -4.9070 N.pl3  76  ARG76      -0.0865
    108  CZ       -18.6760   12.1900   -4.6140 C.cat  76  ARG76       0.5346
    109  NH1      -19.9920   12.2760   -4.4170 N.pl3  76  ARG76       0.1354
    110  NH2      -17.9210   13.2820   -4.5110 N.pl3  76  ARG76       0.1354
    111  N        -17.0560   15.7600   -1.1050 N.3   100  ARG100     -0.1245
    112  CA       -17.4850   14.3680   -0.8040 C.3   100  ARG100      0.1563
    113  C        -16.5380   13.2850   -1.3210 C.2   100  ARG100      0.2260
    114  O        -15.4490   13.5820   -1.8080 O.2   100  ARG100     -0.2867
    115  CB       -18.9480   14.0930   -1.1990 C.3   100  ARG100      0.0307
    116  CG       -19.9520   14.7790   -0.2970 C.3   100  ARG100      0.0489
    117  CD       -21.3350   14.1710   -0.4110 C.3   100  ARG100      0.2205
    118  NE       -22.3100   14.9420    0.3650 N.pl3 100  ARG100     -0.0865
    119  CZ       -23.4020   15.5150   -0.1290 C.cat 100  ARG100      0.5346
    120  NH1      -23.7160   15.4190   -1.4230 N.pl3 100  ARG100      0.1354
    121  NH2      -24.2070   16.1720    0.6880 N.pl3 100  ARG100      0.1354
    122  N        -20.6050    8.2890   -0.9550 N.3   105  ASP105     -0.1239
    123  CA       -21.4250    7.7000   -2.0230 C.3   105  ASP105      0.1674
    124  C        -22.0560    6.3810   -1.5440 C.2   105  ASP105      0.2266
    125  O        -23.2570    6.1580   -1.6920 O.2   105  ASP105     -0.2867
    126  CB       -20.5620    7.3710   -3.2620 C.3   105  ASP105      0.1410
    127  CG       -20.2260    8.5790   -4.1160 C.2   105  ASP105      0.3668
    128  OD1      -21.0400    9.5160   -4.2230 O.co2 105  ASP105     -0.2456
    129  OD2      -19.1400    8.5610   -4.7430 O.co2 105  ASP105     -0.2456
    130  N        -25.3770    7.7010    1.0780 N.3   109  PHE109     -0.1241
    131  CA       -26.5060    7.8710    0.1770 C.3   109  PHE109      0.1605
    132  C        -27.0370    6.5400   -0.3880 C.2   109  PHE109      0.2264
    133  O        -28.2520    6.3500   -0.4580 O.2   109  PHE109     -0.2867
    134  CB       -26.1520    8.8700   -0.9300 C.3   109  PHE109      0.0534
    135  CG       -25.7810   10.2460   -0.4080 C.ar  109  PHE109     -0.0203
    136  CD1      -24.4640   10.5460   -0.0460 C.ar  109  PHE109     -0.0042
    137  CD2      -26.7410   11.2380   -0.2800 C.ar  109  PHE109     -0.0042
    138  CE1      -24.1190   11.8060    0.4380 C.ar  109  PHE109     -0.0003
    139  CE2      -26.4050   12.5050    0.1950 C.ar  109  PHE109     -0.0003
    140  CZ       -25.0940   12.7870    0.5640 C.ar  109  PHE109     -0.0000
    141  N        -30.5800    5.0630    0.6960 N.3   113  LEU113     -0.1245
    142  CA       -31.5740    4.6650   -0.3210 C.3   113  LEU113      0.1561
    143  C        -32.0520    3.2080   -0.1810 C.2   113  LEU113      0.2260
    144  O        -33.2490    2.9320   -0.3490 O.2   113  LEU113     -0.2867
    145  CB       -31.0700    4.9470   -1.7490 C.3   113  LEU113      0.0270
    146  CG       -31.0800    6.4310   -2.1540 C.3   113  LEU113      0.0019
    147  CD1      -30.1450    6.7370   -3.3170 C.3   113  LEU113      0.0001
    148  CD2      -32.4950    6.8830   -2.4650 C.3   113  LEU113      0.0001
    149  N        -34.3110    3.0480    2.8460 N.3   116  SER116     -0.1217
    150  CA       -35.5830    3.6610    2.4900 C.3   116  SER116      0.1889
    151  C        -36.2440    2.8980    1.3340 C.2   116  SER116      0.2288
    152  O        -37.1790    3.3950    0.6900 O.2   116  SER116     -0.2866
    153  CB       -35.3640    5.1320    2.1380 C.3   116  SER116      0.2089
    154  OG       -34.4080    5.7070    3.0180 O.3   116  SER116     -0.2183
    155  N        -35.4350    2.0690   -1.6980 N.3   118  SER118     -0.1217
    156  CA       -35.2650    2.4620   -3.1020 C.3   118  SER118      0.1889
    157  C        -34.3730    1.5010   -3.8870 C.2   118  SER118      0.2288
    158  O        -34.3890    1.5070   -5.1020 O.2   118  SER118     -0.2866
    159  CB       -34.6750    3.8700   -3.2160 C.3   118  SER118      0.2089
    160  OG       -35.6180    4.8500   -2.8670 O.3   118  SER118     -0.2183
    161  N        -32.7770   26.3240   -6.1360 N.3   166  ARG166     -0.1245
    162  CA       -32.9810   25.2240   -7.0780 C.3   166  ARG166      0.1563
    163  C        -34.4080   24.7120   -6.9020 C.2   166  ARG166      0.2260
    164  O        -34.7400   24.1610   -5.8580 O.2   166  ARG166     -0.2867
    165  CB       -31.9640   24.0970   -6.8330 C.3   166  ARG166      0.0307
    166  CG       -30.5260   24.4770   -7.1670 C.3   166  ARG166      0.0489
    167  CD       -29.5490   23.3590   -6.8390 C.3   166  ARG166      0.2205
    168  NE       -28.1580   23.7890   -6.9870 N.pl3 166  ARG166     -0.0865
    169  CZ       -27.1100   23.1190   -6.5130 C.cat 166  ARG166      0.5346
    170  NH1      -27.2950   21.9780   -5.8600 N.pl3 166  ARG166      0.1354
    171  NH2      -25.8740   23.5870   -6.6860 N.pl3 166  ARG166      0.1354
    172  N        -35.1100   21.0470   -6.1550 N.3   169  GLU169     -0.1245
    173  CA       -34.8070   20.6970   -4.7710 C.3   169  GLU169      0.1567
    174  C        -35.8470   21.2210   -3.7790 C.2   169  GLU169      0.2260
    175  O        -35.8830   20.7840   -2.6260 O.2   169  GLU169     -0.2867
    176  CB       -33.4210   21.2430   -4.3840 C.3   169  GLU169      0.0388
    177  CG       -32.2610   20.5000   -5.0350 C.3   169  GLU169      0.1160
    178  CD       -30.8880   20.9630   -4.5690 C.2   169  GLU169      0.3649
    179  OE1      -30.7880   21.7200   -3.5770 O.co2 169  GLU169     -0.2457
    180  OE2      -29.8920   20.5490   -5.2030 O.co2 169  GLU169     -0.2457
    181  N        -37.7670   18.7860   -1.5750 N.3   172  ILE172     -0.1245
    182  CA       -37.1020   17.8620   -0.6520 C.3   172  ILE172      0.1561
    183  C        -37.5770   18.1160    0.7870 C.2   172  ILE172      0.2260
    184  O        -37.3830   19.2130    1.3340 O.2   172  ILE172     -0.2867
    185  CB       -35.5580   17.8920   -0.7650 C.3   172  ILE172      0.0252
    186  CG1      -35.1160   17.5510   -2.1920 C.3   172  ILE172      0.0019
    187  CG2      -34.9350   16.9030    0.2140 C.3   172  ILE172      0.0019
    188  CD1      -33.7040   17.9770   -2.5350 C.3   172  ILE172      0.0001
    189  N        -37.8710   15.5830    6.4460 N.3   175  GLU175     -0.1231
    190  CA       -37.6910   14.1620    6.7970 C.3   175  GLU175      0.1699
    191  C        -36.4520   13.5110    6.1710 C.2   175  GLU175      0.2592
    192  O        -35.6890   12.8150    6.8530 O.2   175  GLU175     -0.2718
    193  CB       -38.9780   13.3900    6.4230 C.3   175  GLU175      0.0402
    194  CG       -38.8650   11.8780    6.1930 C.3   175  GLU175      0.1161
    195  CD       -38.6310   11.4920    4.7330 C.2   175  GLU175      0.3649
    196  OE1      -39.1170   12.2000    3.8200 O.co2 175  GLU175     -0.2457
    197  OE2      -37.9520   10.4690    4.4900 O.co2 175  GLU175     -0.2457
    198  N        -36.2750   13.7330    4.8710 N.am  176  TYR176     -0.1976
    199  CA       -35.1320   13.1970    4.1410 C.3   176  TYR176      0.1639
    200  C        -33.8270   13.7400    4.7260 C.2   176  TYR176      0.2290
    201  O        -32.9490   12.9650    5.0850 O.2   176  TYR176     -0.2864
    202  CB       -35.2530   13.4950    2.6390 C.3   176  TYR176      0.0560
    203  CG       -34.2810   12.7320    1.7520 C.ar  176  TYR176     -0.0198
    204  CD1      -33.9420   11.3980    2.0220 C.ar  176  TYR176     -0.0009
    205  CD2      -33.7220   13.3350    0.6240 C.ar  176  TYR176     -0.0009
    206  CE1      -33.0670   10.7000    1.2040 C.ar  176  TYR176      0.0417
    207  CE2      -32.8400   12.6460   -0.1950 C.ar  176  TYR176      0.0417
    208  CZ       -32.5180   11.3300    0.0930 C.ar  176  TYR176      0.1957
    209  OH       -31.6450   10.6430   -0.7280 O.3   176  TYR176     -0.2866
    210  N        -32.7940   12.1240    7.8300 N.3   179  LYS179     -0.1245
    211  CA       -32.2000   10.7840    7.6180 C.3   179  LYS179      0.1561
    212  C        -30.6970   10.8540    7.3660 C.2   179  LYS179      0.2260
    213  O        -29.9130   10.1580    8.0160 O.2   179  LYS179     -0.2867
    214  CB       -32.8750   10.0590    6.4440 C.3   179  LYS179      0.0271
    215  CG       -33.8460    8.9550    6.8350 C.3   179  LYS179      0.0035
    216  CD       -34.7450    8.5610    5.6690 C.3   179  LYS179      0.0206
    217  CE       -35.3940    7.1990    5.8910 C.3   179  LYS179      0.1093
    218  NZ       -36.5350    6.9580    4.9550 N.3   179  LYS179     -0.1314
@<TRIPOS>BOND
     1    31    32    1
     2    64    65    1
     3    64    63    1
     4    65    66   ar
     5    65    67   ar
     6    33    32    1
     7    33    34    2
     8    32    35    1
     9    63    60    1
    10    35    36    1
    11    39    40    1
    12    75    76    1
    13    25    26    1
    14    27    26    1
    15    27    28    2
    16    76    79    1
    17    76    77    1
    18    95    96    1
    19   100   101    1
    20    36    38    1
    21    36    37    1
    22    60    59    1
    23    60    61    1
    24    26    29    1
    25    81    83   ar
    26    81    80   ar
    27    59    49   am
    28    40    43    1
    29    40    41    1
    30    79    80    1
    31    78    77    2
    32    61    62    2
    33    96    97    1
    34    96    99    1
    35    77    86   am
    36    43    44    1
    37    83    85   ar
    38   102   103    2
    39   102   101    1
    40    21    20    2
    41    47    41   am
    42    47    48    1
    43   101   104    1
    44    80    82   ar
    45    97    98    2
    46    18    19    1
    47    41    42    2
    48    51    48    1
    49    51    52    1
    50    19    20    1
    51    19    22    1
    52    49    48    1
    53    49    50    2
    54    86    87    1
    55    29    30    1
    56    54    52   ar
    57    54    56   ar
    58    88    89    2
    59    88    87    1
    60    12    11    2
    61    11    10    1
    62    52    53   ar
    63    85    84   ar
    64    44    45    1
    65    82    84   ar
    66   104   105    1
    67    24    22    1
    68    56    57   ar
    69    87    90    1
    70    22    23    1
    71    68    69    1
    72    68    74    1
    73    45    46    1
    74   166   167    1
    75   166   165    1
    76    71    70    2
    77   162   163    1
    78   162   165    1
    79   162   161    1
    80   168   167    1
    81   168   169    2
    82   163   164    2
    83    70    69    1
    84    69    72    1
    85    10     9    1
    86    10    13    1
    87   171   169    1
    88    53    55   ar
    89   105   106    1
    90   169   170    1
    91    74    73    1
    92    90    91    1
    93    57    55   ar
    94    57    58    1
    95   172   173    1
    96    14    13    1
    97    14    15    1
    98    91    92    1
    99    72    73    1
   100   180   178   ar
   101   106   107    1
   102   158   157    2
   103   177   178    1
   104   177   176    1
   105   107   108    2
   106   173   176    1
   107   173   174    1
   108    92    94   am
   109    92    93    2
   110   129   127   ar
   111    15    17   ar
   112    15    16   ar
   113   108   110    1
   114   108   109    1
   115   178   179   ar
   116   128   127   ar
   117   127   126    1
   118   157   156    1
   119   174   175    2
   120   147   146    1
   121   126   123    1
   122   159   156    1
   123   159   160    1
   124   156   155    1
   125   188   186    1
   126   148   146    1
   127   186   185    1
   128   146   145    1
   129   123   124    1
   130   123   122    1
   131   114   113    2
   132   145   142    1
   133   125   124    2
   134   181   182    1
   135   120   119    1
   136   113   112    1
   137   115   112    1
   138   115   116    1
   139   111   112    1
   140   134   135    1
   141   134   131    1
   142   185   182    1
   143   185   187    1
   144   209   208    1
   145   182   183    1
   146   133   132    2
   147   117   116    1
   148   117   118    1
   149   135   137   ar
   150   135   136   ar
   151   132   131    1
   152   144   143    2
   153   142   143    1
   154   142   141    1
   155     7     5    1
   156   137   139   ar
   157     8     6    1
   158   207   208   ar
   159   207   205   ar
   160   119   118    2
   161   119   121    1
   162   136   138   ar
   163   208   206   ar
   164   131   130    1
   165   139   140   ar
   166     6     5    1
   167   138   140   ar
   168   205   203   ar
   169   152   151    2
   170     5     2    1
   171   183   184    2
   172   206   204   ar
   173   151   150    1
   174     2     3    1
   175     2     1    1
   176   203   204   ar
   177   203   202    1
   178     3     4    2
   179   153   150    1
   180   153   154    1
   181   150   149    1
   182   202   199    1
   183   196   195   ar
   184   199   200    1
   185   199   198    1
   186   197   195   ar
   187   200   201    2
   188   195   194    1
   189   198   191   am
   190   218   217    1
   191   216   217    1
   192   216   215    1
   193   191   190    1
   194   191   192    2
   195   194   193    1
   196   193   190    1
   197   214   215    1
   198   214   211    1
   199   189   190    1
   200   212   211    1
   201   212   213    2
   202   211   210    1
