@<TRIPOS>MOLECULE
tmp/4jlqA00.pdb
 195 182 0 0 0
SMALL
GASTEIGER

@<TRIPOS>ATOM
      1  N        -35.7210   24.0640   -1.6620 N.3   322  ASP322     -0.1225
      2  CA       -35.8780   25.5160   -1.4800 C.3   322  ASP322      0.1805
      3  C        -36.8950   26.1250   -2.4310 C.2   322  ASP322      0.2597
      4  O        -37.2980   27.2620   -2.2280 O.2   322  ASP322     -0.2718
      5  CB       -34.5450   26.2390   -1.5320 C.3   322  ASP322      0.1424
      6  CG       -33.6480   25.8440   -0.3560 C.2   322  ASP322      0.3668
      7  OD1      -34.0200   26.0820    0.8270 O.co2 322  ASP322     -0.2456
      8  OD2      -32.5760   25.2570   -0.6120 O.co2 322  ASP322     -0.2456
      9  N        -37.3320   25.3570   -3.4330 N.am  323  TRP323     -0.1976
     10  CA       -38.3940   25.7760   -4.3340 C.3   323  TRP323      0.1640
     11  C        -39.3640   24.6480   -4.6250 C.2   323  TRP323      0.2290
     12  O        -38.9490   23.5490   -4.9820 O.2   323  TRP323     -0.2864
     13  CB       -37.7990   26.2400   -5.6360 C.3   323  TRP323      0.0576
     14  CG       -38.7460   26.9670   -6.4730 C.ar  323  TRP323      0.0006
     15  CD1      -39.2190   26.5900   -7.6750 C.ar  323  TRP323      0.0946
     16  CD2      -39.3570   28.2210   -6.1710 C.ar  323  TRP323      0.0152
     17  NE1      -40.0910   27.5380   -8.1630 N.ar  323  TRP323     -0.2442
     18  CE2      -40.1830   28.5540   -7.2550 C.ar  323  TRP323      0.0810
     19  CE3      -39.2840   29.0980   -5.0830 C.ar  323  TRP323      0.0012
     20  CZ2      -40.9350   29.7000   -7.2810 C.ar  323  TRP323      0.0191
     21  CZ3      -40.0160   30.2620   -5.1200 C.ar  323  TRP323      0.0001
     22  CH2      -40.8350   30.5500   -6.2070 C.ar  323  TRP323      0.0015
     23  N        -45.7110   24.8930   -3.0080 N.3   326  ARG326     -0.1231
     24  CA       -46.1060   25.7760   -1.9130 C.3   326  ARG326      0.1694
     25  C        -45.4700   27.1560   -2.0480 C.2   326  ARG326      0.2591
     26  O        -46.1880   28.1570   -2.1130 O.2   326  ARG326     -0.2718
     27  CB       -45.7320   25.1570   -0.5900 C.3   326  ARG326      0.0321
     28  CG       -46.1960   25.9290    0.6220 C.3   326  ARG326      0.0489
     29  CD       -45.9430   25.1170    1.9000 C.3   326  ARG326      0.2205
     30  NE       -45.6420   25.9700    3.0580 N.pl3 326  ARG326     -0.0865
     31  CZ       -46.5460   26.5110    3.8660 C.cat 326  ARG326      0.5346
     32  NH1      -47.8440   26.3180    3.6940 N.pl3 326  ARG326      0.1354
     33  NH2      -46.1480   27.2650    4.8620 N.pl3 326  ARG326      0.1354
     34  N        -44.1420   27.2250   -2.1310 N.am  327  LYS327     -0.1980
     35  CA       -43.5000   28.5430   -2.2310 C.3   327  LYS327      0.1596
     36  C        -43.9230   29.2540   -3.4830 C.2   327  LYS327      0.2287
     37  O        -44.0560   30.4590   -3.4910 O.2   327  LYS327     -0.2864
     38  CB       -41.9870   28.4800   -2.2400 C.3   327  LYS327      0.0298
     39  CG       -41.3900   27.9090   -0.9770 C.3   327  LYS327      0.0038
     40  CD       -39.8790   28.0510   -0.9640 C.3   327  LYS327      0.0206
     41  CE       -39.4670   29.5090   -0.8320 C.3   327  LYS327      0.1093
     42  NZ       -38.2520   29.6470    0.0190 N.3   327  LYS327     -0.1314
     43  N        -47.5090   30.5160   -3.2520 N.3   330  ALA330     -0.1231
     44  CA       -47.5110   31.5600   -2.2600 C.3   330  ALA330      0.1694
     45  C        -46.9030   32.8280   -2.7950 C.2   330  ALA330      0.2591
     46  O        -47.3810   33.9150   -2.4820 O.2   330  ALA330     -0.2718
     47  CB       -46.7700   31.1080   -1.0310 C.3   330  ALA330      0.0304
     48  N        -45.8520   32.6960   -3.5950 N.am  331  ALA331     -0.1980
     49  CA       -45.1270   33.8750   -4.1110 C.3   331  ALA331      0.1597
     50  C        -45.9310   34.5610   -5.1710 C.2   331  ALA331      0.2287
     51  O        -45.8170   35.7700   -5.3380 O.2   331  ALA331     -0.2864
     52  CB       -43.7810   33.4870   -4.6830 C.3   331  ALA331      0.0319
     53  N        -48.4690   36.7260   -3.5720 N.3   334  ASP334     -0.1239
     54  CA       -47.9820   38.0350   -3.1330 C.3   334  ASP334      0.1674
     55  C        -47.9860   39.0100   -4.2960 C.2   334  ASP334      0.2266
     56  O        -48.5200   40.1020   -4.1530 O.2   334  ASP334     -0.2867
     57  CB       -46.5920   38.0200   -2.4790 C.3   334  ASP334      0.1410
     58  CG       -46.1800   39.4160   -1.9590 C.2   334  ASP334      0.3668
     59  OD1      -47.0320   40.1710   -1.4110 O.co2 334  ASP334     -0.2456
     60  OD2      -45.0100   39.7770   -2.1070 O.co2 334  ASP334     -0.2456
     61  N        -50.4910   31.5080    6.1050 N.3   369  LEU369     -0.1245
     62  CA       -49.5610   31.8660    5.0520 C.3   369  LEU369      0.1561
     63  C        -50.2210   32.8180    4.0730 C.2   369  LEU369      0.2260
     64  O        -49.6590   33.8710    3.7520 O.2   369  LEU369     -0.2867
     65  CB       -49.0900   30.6170    4.3370 C.3   369  LEU369      0.0270
     66  CG       -48.1460   30.7650    3.1450 C.3   369  LEU369      0.0019
     67  CD1      -46.9300   31.5880    3.5030 C.3   369  LEU369      0.0001
     68  CD2      -47.7520   29.3700    2.6470 C.3   369  LEU369      0.0001
     69  N        -49.1780   36.4030    2.8390 N.3   373  ALA373     -0.1245
     70  CA       -48.8650   36.6850    1.4350 C.3   373  ALA373      0.1562
     71  C        -49.5940   37.9030    0.8450 C.2   373  ALA373      0.2260
     72  O        -49.0050   38.7750    0.1590 O.2   373  ALA373     -0.2867
     73  CB       -49.2010   35.4540    0.6180 C.3   373  ALA373      0.0290
     74  N        -44.4170   29.0820   13.7720 N.3   406  SER406     -0.1202
     75  CA       -43.4420   29.8580   13.0070 C.3   406  SER406      0.2020
     76  C        -44.0430   30.6900   11.9100 C.2   406  SER406      0.2618
     77  O        -43.6480   31.8440   11.7270 O.2   406  SER406     -0.2717
     78  CB       -42.4210   28.9550   12.3790 C.3   406  SER406      0.2103
     79  OG       -43.0610   27.7780   12.0460 O.3   406  SER406     -0.2182
     80  N        -44.9800   30.1250   11.1580 N.am  407  ILE407     -0.1979
     81  CA       -45.5940   30.9160   10.0980 C.3   407  ILE407      0.1595
     82  C        -46.3690   32.0620   10.7200 C.2   407  ILE407      0.2287
     83  O        -46.3910   33.1670   10.2030 O.2   407  ILE407     -0.2864
     84  CB       -46.4610   30.0700    9.1700 C.3   407  ILE407      0.0276
     85  CG1      -46.8060   30.8390    7.9020 C.3   407  ILE407      0.0022
     86  CG2      -47.7200   29.6300    9.8660 C.3   407  ILE407      0.0022
     87  CD1      -45.6050   31.2320    7.0580 C.3   407  ILE407      0.0001
     88  N        -44.3220   35.0110   11.2540 N.3   410  TRP410     -0.1241
     89  CA       -44.0360   35.6930    9.9840 C.3   410  TRP410      0.1605
     90  C        -45.1850   36.5440    9.5860 C.2   410  TRP410      0.2264
     91  O        -45.0100   37.7110    9.2530 O.2   410  TRP410     -0.2867
     92  CB       -43.7820   34.7210    8.8270 C.3   410  TRP410      0.0550
     93  CG       -43.5660   35.4430    7.5600 C.ar  410  TRP410      0.0003
     94  CD1      -42.5180   36.2280    7.2540 C.ar  410  TRP410      0.0946
     95  CD2      -44.4240   35.4710    6.4390 C.ar  410  TRP410      0.0152
     96  NE1      -42.6580   36.7480    6.0000 N.ar  410  TRP410     -0.2442
     97  CE2      -43.8340   36.3050    5.4820 C.ar  410  TRP410      0.0810
     98  CE3      -45.6340   34.8600    6.1370 C.ar  410  TRP410      0.0012
     99  CZ2      -44.4110   36.5580    4.2600 C.ar  410  TRP410      0.0191
    100  CZ3      -46.2020   35.1050    4.8940 C.ar  410  TRP410      0.0001
    101  CH2      -45.5940   35.9500    3.9830 C.ar  410  TRP410      0.0015
    102  N        -45.8940   40.8720    9.0030 N.3   414  ARG414     -0.1245
    103  CA       -46.3500   41.5530    7.7930 C.3   414  ARG414      0.1563
    104  C        -47.4080   42.6510    8.0850 C.2   414  ARG414      0.2260
    105  O        -47.6840   43.5150    7.2500 O.2   414  ARG414     -0.2867
    106  CB       -46.8270   40.5070    6.8140 C.3   414  ARG414      0.0307
    107  CG       -45.7090   39.5590    6.4430 C.3   414  ARG414      0.0489
    108  CD       -45.0900   39.9500    5.1180 C.3   414  ARG414      0.2205
    109  NE       -46.0060   39.6330    4.0220 N.pl3 414  ARG414     -0.0865
    110  CZ       -45.9270   40.0920    2.7740 C.cat 414  ARG414      0.5346
    111  NH1      -44.9540   40.8960    2.3830 N.pl3 414  ARG414      0.1354
    112  NH2      -46.8570   39.7440    1.9000 N.pl3 414  ARG414      0.1354
    113  N        -36.8010   26.2200   13.7310 N.3   445  ARG445     -0.1245
    114  CA       -37.6610   26.9400   12.7830 C.3   445  ARG445      0.1563
    115  C        -38.3970   28.0810   13.4300 C.2   445  ARG445      0.2260
    116  O        -38.5010   29.1680   12.8710 O.2   445  ARG445     -0.2867
    117  CB       -38.7210   26.0350   12.1610 C.3   445  ARG445      0.0307
    118  CG       -38.1440   24.8730   11.3900 C.3   445  ARG445      0.0489
    119  CD       -38.7630   24.6940   10.0180 C.3   445  ARG445      0.2205
    120  NE       -37.8880   23.8060    9.2690 N.pl3 445  ARG445     -0.0865
    121  CZ       -37.7990   22.4900    9.4600 C.cat 445  ARG445      0.5346
    122  NH1      -38.5780   21.8760   10.3560 N.pl3 445  ARG445      0.1354
    123  NH2      -36.9390   21.7770    8.7290 N.pl3 445  ARG445      0.1354
    124  N        -36.0200   30.9660   14.2550 N.3   448  GLU448     -0.1231
    125  CA       -35.6680   31.8080   13.1060 C.3   448  GLU448      0.1699
    126  C        -36.8720   32.6920   12.7780 C.2   448  GLU448      0.2592
    127  O        -36.7390   33.8790   12.6160 O.2   448  GLU448     -0.2718
    128  CB       -35.1030   31.0200   11.9040 C.3   448  GLU448      0.0402
    129  CG       -36.1130   30.4120   10.9300 C.3   448  GLU448      0.1161
    130  CD       -35.4690   29.8000    9.6640 C.2   448  GLU448      0.3649
    131  OE1      -34.9690   30.5880    8.8320 O.co2 448  GLU448     -0.2457
    132  OE2      -35.4750   28.5430    9.4750 O.co2 448  GLU448     -0.2457
    133  N        -38.0590   32.1300   12.7900 N.am  449  ALA449     -0.1980
    134  CA       -39.2490   32.8860   12.4220 C.3   449  ALA449      0.1597
    135  C        -39.4850   34.0190   13.3590 C.2   449  ALA449      0.2287
    136  O        -39.8130   35.1400   12.9380 O.2   449  ALA449     -0.2864
    137  CB       -40.4580   31.9830   12.4400 C.3   449  ALA449      0.0319
    138  N        -36.6090   36.8420   13.3750 N.3   452  SER452     -0.1217
    139  CA       -36.8410   37.6660   12.1890 C.3   452  SER452      0.1889
    140  C        -38.0530   38.5360   12.3170 C.2   452  SER452      0.2288
    141  O        -38.0110   39.7070   11.9770 O.2   452  SER452     -0.2866
    142  CB       -37.0450   36.7830   10.9840 C.3   452  SER452      0.2089
    143  OG       -35.9030   35.9710   10.8080 O.3   452  SER452     -0.2183
    144  N        -37.1380   41.3220   14.6600 N.3   455  ALA455     -0.1231
    145  CA       -36.3050   42.3300   14.0600 C.3   455  ALA455      0.1694
    146  C        -37.1480   43.2190   13.1390 C.2   455  ALA455      0.2592
    147  O        -37.0060   44.4260   13.1340 O.2   455  ALA455     -0.2718
    148  CB       -35.1730   41.6730   13.3180 C.3   455  ALA455      0.0304
    149  N        -38.0800   42.6190   12.4140 N.am  456  THR456     -0.1953
    150  CA       -38.9600   43.3780   11.5550 C.3   456  THR456      0.1897
    151  C        -39.7900   44.3010   12.3570 C.2   456  THR456      0.2313
    152  O        -39.9400   45.4650   12.0030 O.2   456  THR456     -0.2863
    153  CB       -39.9470   42.4960   10.7950 C.3   456  THR456      0.1794
    154  OG1      -39.2260   41.6660    9.8730 O.3   456  THR456     -0.2208
    155  CG2      -40.9400   43.3760   10.0290 C.3   456  THR456      0.0378
    156  N        -38.0540   47.5350   13.7110 N.3   459  GLU459     -0.1245
    157  CA       -37.9010   48.6200   12.7360 C.3   459  GLU459      0.1567
    158  C        -39.1380   49.4800   12.6830 C.2   459  GLU459      0.2260
    159  O        -39.0200   50.6780   12.5500 O.2   459  GLU459     -0.2867
    160  CB       -37.6720   48.0980   11.3110 C.3   459  GLU459      0.0388
    161  CG       -36.3860   47.3150   11.1020 C.3   459  GLU459      0.1160
    162  CD       -36.1550   46.8960    9.6520 C.2   459  GLU459      0.3649
    163  OE1      -36.0210   47.7880    8.7800 O.co2 459  GLU459     -0.2457
    164  OE2      -36.0830   45.6720    9.3860 O.co2 459  GLU459     -0.2457
    165  N        -27.1140   34.3890   13.1330 N.3   489  LEU489     -0.1231
    166  CA       -27.0130   35.4960   12.1840 C.3   489  LEU489      0.1693
    167  C        -28.2100   36.4050   12.2580 C.2   489  LEU489      0.2591
    168  O        -28.0280   37.6070   12.3480 O.2   489  LEU489     -0.2718
    169  CB       -26.8390   34.9750   10.7590 C.3   489  LEU489      0.0284
    170  CG       -25.3980   34.9590   10.2780 C.3   489  LEU489      0.0019
    171  CD1      -24.5520   34.0000   11.0910 C.3   489  LEU489      0.0001
    172  CD2      -25.3700   34.6020    8.8110 C.3   489  LEU489      0.0001
    173  N        -29.4200   35.8210   12.2260 N.am  490  ILE490     -0.1980
    174  CA       -30.6890   36.5670   12.4000 C.3   490  ILE490      0.1595
    175  C        -30.6590   37.3540   13.7080 C.2   490  ILE490      0.2287
    176  O        -31.2070   38.4530   13.7990 O.2   490  ILE490     -0.2864
    177  CB       -31.9510   35.6810   12.5270 C.3   490  ILE490      0.0276
    178  CG1      -32.0080   34.4970   11.5610 C.3   490  ILE490      0.0022
    179  CG2      -33.1910   36.5240   12.3240 C.3   490  ILE490      0.0022
    180  CD1      -32.1360   34.8910   10.1140 C.3   490  ILE490      0.0001
    181  N        -28.7370   40.5590   13.5170 N.3   493  ASP493     -0.1239
    182  CA       -29.6620   41.4800   12.8550 C.3   493  ASP493      0.1674
    183  C        -30.6130   42.0690   13.9090 C.2   493  ASP493      0.2266
    184  O        -30.8170   43.2830   13.9750 O.2   493  ASP493     -0.2867
    185  CB       -30.4310   40.7610   11.7160 C.3   493  ASP493      0.1410
    186  CG       -31.4730   41.6650   10.9930 C.2   493  ASP493      0.3668
    187  OD1      -31.3830   42.9120   11.1150 O.co2 493  ASP493     -0.2456
    188  OD2      -32.3830   41.1110   10.3010 O.co2 493  ASP493     -0.2456
    189  N        -30.6960   45.9400   14.8300 N.3   497  THR497     -0.1218
    190  CA       -31.8790   46.6690   14.4520 C.3   497  THR497      0.1862
    191  C        -32.4750   47.3170   15.6830 C.2   497  THR497      0.2287
    192  O        -33.0980   48.3810   15.5820 O.2   497  THR497     -0.2866
    193  CB       -32.8960   45.7340   13.7800 C.3   497  THR497      0.1770
    194  OG1      -32.3570   45.2430   12.5350 O.3   497  THR497     -0.2211
    195  CG2      -34.2270   46.4580   13.5370 C.3   497  THR497      0.0375
@<TRIPOS>BOND
     1    17    15   ar
     2    17    18   ar
     3    15    14   ar
     4    20    18   ar
     5    20    22   ar
     6    18    16   ar
     7    14    16   ar
     8    14    13    1
     9    22    21   ar
    10    16    19   ar
    11    13    10    1
    12    51    50    2
    13    50    49    1
    14    21    19   ar
    15    12    11    2
    16    52    49    1
    17    11    10    1
    18    10     9    1
    19    55    56    2
    20    55    54    1
    21    49    48    1
    22    48    45   am
    23    53    54    1
    24    37    36    2
    25    36    35    1
    26     9     3   am
    27    43    44    1
    28    54    57    1
    29    23    24    1
    30    45    46    2
    31    45    44    1
    32    57    58    1
    33     3     4    2
    34     3     2    1
    35    44    47    1
    36    38    35    1
    37    38    39    1
    38    35    34    1
    39    34    25   am
    40    26    25    2
    41    60    58   ar
    42    25    24    1
    43    58    59   ar
    44    24    27    1
    45     1     2    1
    46     5     2    1
    47     5     6    1
    48    39    40    1
    49    40    41    1
    50    41    42    1
    51     8     6   ar
    52    27    28    1
    53     6     7   ar
    54    72    71    2
    55    73    70    1
    56    28    29    1
    57    71    70    1
    58    70    69    1
    59    29    30    1
    60   112   110    1
    61   111   110    1
    62    68    66    1
    63   110   109    2
    64    30    31    2
    65    66    67    1
    66    66    65    1
    67    32    31    1
    68    64    63    2
    69    31    33    1
    70   101    99   ar
    71   101   100   ar
    72   109   108    1
    73    63    62    1
    74    99    97   ar
    75    65    62    1
    76   100    98   ar
    77    62    61    1
    78   108   107    1
    79    97    96   ar
    80    97    95   ar
    81    96    94   ar
    82    98    95   ar
    83    95    93   ar
    84   107   106    1
    85   106   103    1
    86    87    85    1
    87   105   104    2
    88    94    93   ar
    89    93    92    1
    90   103   104    1
    91   103   102    1
    92    85    84    1
    93   123   121    1
    94   163   162   ar
    95   172   170    1
    96    92    89    1
    97   131   130   ar
    98    84    86    1
    99    84    81    1
   100    91    90    2
   101   120   121    2
   102   120   119    1
   103   164   162   ar
   104   121   122    1
   105   132   130   ar
   106    90    89    1
   107   162   161    1
   108   130   129    1
   109   154   153    1
   110    89    88    1
   111   119   118    1
   112   155   153    1
   113    81    82    1
   114    81    80    1
   115   180   178    1
   116    83    82    2
   117   170   169    1
   118   170   171    1
   119   188   186   ar
   120   169   166    1
   121   153   150    1
   122   143   142    1
   123   129   128    1
   124   142   139    1
   125   186   187   ar
   126   186   185    1
   127   161   160    1
   128    80    76   am
   129   160   157    1
   130   118   117    1
   131   150   151    1
   132   150   149    1
   133   178   177    1
   134   185   182    1
   135    77    76    2
   136   128   125    1
   137    76    75    1
   138   141   140    2
   139   152   151    2
   140    79    78    1
   141   117   114    1
   142   166   167    1
   143   166   165    1
   144   139   140    1
   145   139   138    1
   146   173   167   am
   147   173   174    1
   148   167   168    2
   149   179   177    1
   150    78    75    1
   151   174   177    1
   152   174   175    1
   153   149   146   am
   154   134   137    1
   155   134   133    1
   156   134   135    1
   157   194   193    1
   158   159   158    2
   159   127   126    2
   160   158   157    1
   161   157   156    1
   162   126   133   am
   163   126   125    1
   164   114   115    1
   165   114   113    1
   166   182   181    1
   167   182   183    1
   168   116   115    2
   169   136   135    2
   170    75    74    1
   171   125   124    1
   172   147   146    2
   173   146   145    1
   174   148   145    1
   175   195   193    1
   176   175   176    2
   177   193   190    1
   178   183   184    2
   179   145   144    1
   180   190   189    1
   181   190   191    1
   182   192   191    2
