@<TRIPOS>MOLECULE
tmp/4jlrD00.pdb
 80 77 0 0 0
SMALL
GASTEIGER

@<TRIPOS>ATOM
      1  N         32.9810   34.2010   14.6350 N.3    14  PRO14      -0.2116
      2  CA        32.9270   33.3230   13.4650 C.3    14  PRO14       0.1372
      3  C         31.7540   32.3370   13.5420 C.2    14  PRO14       0.2244
      4  O         31.4290   31.8680   14.6280 O.2    14  PRO14      -0.2868
      5  CB        34.2730   32.5700   13.5030 C.3    14  PRO14       0.0268
      6  CG        35.1020   33.2270   14.5450 C.3    14  PRO14       0.0207
      7  CD        34.1750   33.9610   15.4620 C.3    14  PRO14       0.0892
      8  N         36.6950   34.8320    9.3660 N.3    89  PRO89      -0.2116
      9  CA        37.7110   35.8870    9.3800 C.3    89  PRO89       0.1372
     10  C         37.8470   36.6800    8.0820 C.2    89  PRO89       0.2244
     11  O         38.0590   37.8740    8.1440 O.2    89  PRO89      -0.2868
     12  CB        38.9880   35.1220    9.7030 C.3    89  PRO89       0.0268
     13  CG        38.4990   34.0410   10.6150 C.3    89  PRO89       0.0207
     14  CD        37.1790   33.6100   10.0390 C.3    89  PRO89       0.0892
     15  N         34.6440   43.4020   12.4930 N.3   117  THR117     -0.1203
     16  CA        35.6630   42.4200   12.7180 C.3   117  THR117      0.1994
     17  C         35.0310   41.0860   13.1060 C.2   117  THR117      0.2618
     18  O         34.0990   41.0380   13.9050 O.2   117  THR117     -0.2717
     19  CB        36.6480   42.9140   13.7980 C.3   117  THR117      0.1784
     20  OG1       37.4180   44.0010   13.2770 O.3   117  THR117     -0.2211
     21  CG2       37.6140   41.8060   14.2240 C.3   117  THR117      0.0376
     22  N         35.5370   39.9990   12.5340 N.am  118  VAL118     -0.1965
     23  CA        35.0720   38.6800   12.9090 C.3   118  VAL118      0.1727
     24  C         36.1030   38.0400   13.8130 C.2   118  VAL118      0.2617
     25  O         37.2330   37.8040   13.4040 O.2   118  VAL118     -0.2715
     26  CB        34.8260   37.7910   11.6850 C.3   118  VAL118      0.0290
     27  CG1       34.2330   36.4540   12.1120 C.3   118  VAL118      0.0023
     28  CG2       33.8750   38.4790   10.7190 C.3   118  VAL118      0.0023
     29  N         35.7110   37.7590   15.0470 N.am  119  SER119     -0.1936
     30  CA        36.6430   37.2790   16.0360 C.3   119  SER119      0.2055
     31  C         35.9540   36.7140   17.2490 C.2   119  SER119      0.2644
     32  O         34.8500   37.1340   17.5940 O.2   119  SER119     -0.2714
     33  CB        37.5520   38.4020   16.5090 C.3   119  SER119      0.2130
     34  OG        38.4120   37.9250   17.5310 O.3   119  SER119     -0.2179
     35  N         36.6310   35.7380   17.8510 N.am  120  SER120     -0.1935
     36  CA        36.3360   35.1620   19.1640 C.3   120  SER120      0.2055
     37  C         36.4310   36.1410   20.3110 C.2   120  SER120      0.2642
     38  O         35.7370   35.9770   21.3070 O.2   120  SER120     -0.2714
     39  CB        37.3910   34.1030   19.4930 C.3   120  SER120      0.2130
     40  OG        37.1040   32.9120   18.8250 O.3   120  SER120     -0.2179
     41  N         37.3430   37.1040   20.1940 N.am  121  ALA121     -0.1977
     42  CA        37.7380   37.9140   21.3280 C.3   121  ALA121      0.1597
     43  C         36.6580   38.8820   21.7500 C.2   121  ALA121      0.2287
     44  O         35.7980   39.2860   20.9630 O.2   121  ALA121     -0.2864
     45  CB        39.0230   38.6480   21.0410 C.3   121  ALA121      0.0319
     46  N         40.0440   46.5290   21.8130 N.3   148  PHE148     -0.1241
     47  CA        39.6070   45.6220   20.7730 C.3   148  PHE148      0.1605
     48  C         38.1130   45.7210   20.6010 C.2   148  PHE148      0.2264
     49  O         37.4030   45.8120   21.5840 O.2   148  PHE148     -0.2867
     50  CB        39.9590   44.1920   21.1470 C.3   148  PHE148      0.0534
     51  CG        39.6960   43.2060   20.0600 C.ar  148  PHE148     -0.0203
     52  CD1       38.5440   42.4370   20.0660 C.ar  148  PHE148     -0.0042
     53  CD2       40.6100   43.0470   19.0310 C.ar  148  PHE148     -0.0042
     54  CE1       38.3070   41.5220   19.0560 C.ar  148  PHE148     -0.0003
     55  CE2       40.3840   42.1340   18.0210 C.ar  148  PHE148     -0.0003
     56  CZ        39.2280   41.3710   18.0280 C.ar  148  PHE148     -0.0000
     57  N         48.5030   45.7190   15.9850 N.3   172  LEU172     -0.1245
     58  CA        47.9820   44.6590   16.7850 C.3   172  LEU172      0.1561
     59  C         49.1700   44.1250   17.5910 C.2   172  LEU172      0.2260
     60  O         50.1150   43.5490   17.0440 O.2   172  LEU172     -0.2867
     61  CB        47.3650   43.5900   15.8810 C.3   172  LEU172      0.0270
     62  CG        46.7710   42.3600   16.5800 C.3   172  LEU172      0.0019
     63  CD1       45.5700   42.7030   17.4500 C.3   172  LEU172      0.0001
     64  CD2       46.3740   41.3180   15.5650 C.3   172  LEU172      0.0001
     65  N         47.1770   40.5630   21.3530 N.3   176  GLY176     -0.1225
     66  CA        45.9230   40.5040   20.6330 C.3   176  GLY176      0.1811
     67  C         45.0900   41.7520   20.7730 C.2   176  GLY176      0.2280
     68  O         43.9450   41.7480   20.3780 O.2   176  GLY176     -0.2866
     69  N         44.8760   46.1840   20.1960 N.3   178  TYR178     -0.1241
     70  CA        45.4540   47.2090   19.3240 C.3   178  TYR178      0.1605
     71  C         46.0210   48.3060   20.1740 C.2   178  TYR178      0.2264
     72  O         45.6750   48.4380   21.3190 O.2   178  TYR178     -0.2867
     73  CB        44.4310   47.8080   18.3500 C.3   178  TYR178      0.0534
     74  CG        43.9570   46.8370   17.3240 C.ar  178  TYR178     -0.0201
     75  CD1       44.6630   46.6420   16.1390 C.ar  178  TYR178     -0.0009
     76  CD2       42.7950   46.1060   17.5270 C.ar  178  TYR178     -0.0009
     77  CE1       44.2300   45.7370   15.1970 C.ar  178  TYR178      0.0417
     78  CE2       42.3490   45.2000   16.5870 C.ar  178  TYR178      0.0417
     79  CZ        43.0710   45.0220   15.4310 C.ar  178  TYR178      0.1957
     80  OH        42.6210   44.1130   14.5170 O.3   178  TYR178     -0.2866
@<TRIPOS>BOND
     1    10    11    2
     2    10     9    1
     3     8     9    1
     4     8    14    1
     5     9    12    1
     6    12    13    1
     7    14    13    1
     8    28    26    1
     9    26    27    1
    10    26    23    1
    11    15    16    1
    12    22    23    1
    13    22    17   am
    14    16    17    1
    15    16    19    1
    16    23    24    1
    17    17    18    2
    18    20    19    1
    19    25    24    2
    20     2     5    1
    21     2     3    1
    22     2     1    1
    23     5     6    1
    24     3     4    2
    25    19    21    1
    26    24    29   am
    27    80    79    1
    28     6     7    1
    29     1     7    1
    30    29    30    1
    31    77    79   ar
    32    77    75   ar
    33    79    78   ar
    34    64    62    1
    35    61    62    1
    36    61    58    1
    37    57    58    1
    38    30    33    1
    39    30    31    1
    40    75    74   ar
    41    33    34    1
    42    62    63    1
    43    78    76   ar
    44    58    59    1
    45    60    59    2
    46    31    32    2
    47    31    35   am
    48    74    76   ar
    49    74    73    1
    50    35    36    1
    51    55    56   ar
    52    55    53   ar
    53    56    54   ar
    54    73    70    1
    55    40    39    1
    56    53    51   ar
    57    54    52   ar
    58    36    39    1
    59    36    37    1
    60    70    71    1
    61    70    69    1
    62    51    52   ar
    63    51    50    1
    64    71    72    2
    65    41    37   am
    66    41    42    1
    67    37    38    2
    68    68    67    2
    69    48    47    1
    70    48    49    2
    71    66    67    1
    72    66    65    1
    73    47    50    1
    74    47    46    1
    75    44    43    2
    76    45    42    1
    77    42    43    1
