@<TRIPOS>MOLECULE
tmp/4jltA03.pdb
 107 102 0 0 0
SMALL
GASTEIGER

@<TRIPOS>ATOM
      1  N        -17.9350    7.4010   30.0610 N.3    16  LEU16      -0.1231
      2  CA       -17.7300    6.1300   30.7530 C.3    16  LEU16       0.1693
      3  C        -17.8640    6.3040   32.2370 C.2    16  LEU16       0.2591
      4  O        -18.6370    5.5970   32.8600 O.2    16  LEU16      -0.2718
      5  CB       -16.3650    5.4890   30.4160 C.3    16  LEU16       0.0284
      6  CG       -16.1160    4.1320   31.1170 C.3    16  LEU16       0.0019
      7  CD1      -17.2620    3.1130   30.8190 C.3    16  LEU16       0.0001
      8  CD2      -14.7390    3.5220   30.8020 C.3    16  LEU16       0.0001
      9  N        -17.1450    7.2700   32.8160 N.am   17  LEU17      -0.1980
     10  CA       -17.1290    7.3700   34.2670 C.3    17  LEU17       0.1596
     11  C        -18.4450    7.8680   34.8350 C.2    17  LEU17       0.2287
     12  O        -18.7070    7.6930   36.0290 O.2    17  LEU17      -0.2864
     13  CB       -15.9180    8.1650   34.7860 C.3    17  LEU17       0.0297
     14  CG       -14.5600    7.6240   34.2550 C.3    17  LEU17       0.0022
     15  CD1      -13.3480    8.3930   34.8580 C.3    17  LEU17       0.0001
     16  CD2      -14.4160    6.0930   34.4500 C.3    17  LEU17       0.0001
     17  N        -21.3540    6.7310   33.6960 N.3    19  MET19      -0.1230
     18  CA       -22.2860    5.6210   33.4800 C.3    19  MET19       0.1702
     19  C        -22.5070    4.8100   34.7870 C.2    19  MET19       0.2592
     20  O        -21.7120    4.8780   35.7450 O.2    19  MET19      -0.2718
     21  CB       -21.7970    4.6730   32.3600 C.3    19  MET19       0.0401
     22  CG       -21.5190    5.3160   30.9970 C.3    19  MET19       0.0596
     23  SD       -22.9700    6.0520   30.1890 S.3    19  MET19      -0.1393
     24  CE       -23.6650    4.6530   29.2740 C.3    19  MET19       0.0692
     25  N        -23.6010    4.0590   34.8000 N.am   20  ASP20      -0.1960
     26  CA       -23.9860    3.1990   35.9060 C.3    20  ASP20       0.1840
     27  C        -23.8090    1.7640   35.4360 C.2    20  ASP20       0.2621
     28  O        -24.2520    1.4130   34.3360 O.2    20  ASP20      -0.2715
     29  CB       -25.4580    3.4350   36.2840 C.3    20  ASP20       0.1450
     30  CG       -25.8850    2.6360   37.5200 C.2    20  ASP20       0.3671
     31  OD1      -25.7540    1.3990   37.5120 O.co2  20  ASP20      -0.2456
     32  OD2      -26.3710    3.2440   38.5010 O.co2  20  ASP20      -0.2456
     33  N        -23.2280    0.9290   36.2700 N.am   21  ARG21      -0.1977
     34  CA       -22.8670   -0.4190   35.8960 C.3    21  ARG21       0.1597
     35  C        -24.0280   -1.3770   35.6370 C.2    21  ARG21       0.2287
     36  O        -23.8320   -2.4540   35.1510 O.2    21  ARG21      -0.2864
     37  CB       -21.9130   -0.9880   36.9390 C.3    21  ARG21       0.0334
     38  CG       -20.5460   -0.3290   36.9690 C.3    21  ARG21       0.0492
     39  CD       -19.8020   -0.6340   35.6900 C.3    21  ARG21       0.2205
     40  NE       -18.5620    0.1200   35.6240 N.pl3  21  ARG21      -0.0865
     41  CZ       -18.3780    1.3940   35.2920 C.cat  21  ARG21       0.5346
     42  NH1      -19.3380    2.2030   34.8410 N.pl3  21  ARG21       0.1354
     43  NH2      -17.1360    1.8960   35.4370 N.pl3  21  ARG21       0.1354
     44  N        -26.1560   -0.8890   33.4350 N.3    23  GLY23      -0.1210
     45  CA       -26.4080   -0.8410   32.0130 C.3    23  GLY23       0.1956
     46  C        -26.9110    0.4730   31.4500 C.2    23  GLY23       0.2611
     47  O        -27.0920    1.4220   32.1520 O.2    23  GLY23      -0.2717
     48  N        -27.1390    0.4940   30.1550 N.am   24  LEU24      -0.1979
     49  CA       -27.5490    1.7190   29.4320 C.3    24  LEU24       0.1596
     50  C        -28.8100    2.4140   30.0070 C.2    24  LEU24       0.2287
     51  O        -28.7480    3.6060   30.3640 O.2    24  LEU24      -0.2864
     52  CB       -27.6560    1.4660   27.9140 C.3    24  LEU24       0.0297
     53  CG       -26.3150    1.1980   27.2160 C.3    24  LEU24       0.0022
     54  CD1      -26.5140    0.5000   25.8780 C.3    24  LEU24       0.0001
     55  CD2      -25.4870    2.4560   27.0180 C.3    24  LEU24       0.0001
     56  N        -28.1290    3.9500   33.2480 N.3    27  SER27      -0.1217
     57  CA       -27.2470    5.0900   32.9540 C.3    27  SER27       0.1889
     58  C        -28.0490    6.3280   32.5000 C.2    27  SER27       0.2288
     59  O        -27.8480    7.4380   32.9980 O.2    27  SER27      -0.2866
     60  CB       -26.2590    4.6760   31.8730 C.3    27  SER27       0.2089
     61  OG       -25.3460    3.6820   32.3450 O.3    27  SER27      -0.2183
     62  N        -24.7990   -7.3280   29.0860 N.3   180  PHE180     -0.1241
     63  CA       -23.8170   -6.3010   29.4380 C.3   180  PHE180      0.1605
     64  C        -22.6200   -6.2900   28.4620 C.2   180  PHE180      0.2264
     65  O        -22.1240   -5.2270   28.0640 O.2   180  PHE180     -0.2867
     66  CB       -23.3570   -6.5270   30.8790 C.3   180  PHE180      0.0534
     67  CG       -22.3200   -5.5510   31.3650 C.ar  180  PHE180     -0.0203
     68  CD1      -20.9630   -5.9160   31.4010 C.ar  180  PHE180     -0.0042
     69  CD2      -22.6970   -4.2920   31.8230 C.ar  180  PHE180     -0.0042
     70  CE1      -19.9800   -5.0330   31.8830 C.ar  180  PHE180     -0.0003
     71  CE2      -21.7260   -3.3900   32.3050 C.ar  180  PHE180     -0.0003
     72  CZ       -20.3730   -3.7570   32.3380 C.ar  180  PHE180     -0.0000
     73  N        -23.4980   -4.3680   25.4210 N.3   183  GLN183     -0.1231
     74  CA       -23.5940   -2.9900   25.7900 C.3   183  GLN183      0.1698
     75  C        -22.2130   -2.3570   25.8650 C.2   183  GLN183      0.2592
     76  O        -22.0320   -1.2550   25.4550 O.2   183  GLN183     -0.2718
     77  CB       -24.3780   -2.8300   27.0840 C.3   183  GLN183      0.0381
     78  CG       -25.8540   -3.0450   26.9320 C.3   183  GLN183      0.0905
     79  CD       -26.6320   -2.8700   28.2240 C.2   183  GLN183      0.2608
     80  OE1      -26.7350   -1.7940   28.7470 O.2   183  GLN183     -0.2717
     81  NE2      -27.1730   -3.9430   28.7280 N.am  183  GLN183     -0.0878
     82  N        -21.2310   -3.0720   26.3550 N.am  184  VAL184     -0.1980
     83  CA       -19.8630   -2.5520   26.3290 C.3   184  VAL184      0.1595
     84  C        -19.3770   -2.4150   24.8850 C.2   184  VAL184      0.2287
     85  O        -18.6660   -1.4500   24.5530 O.2   184  VAL184     -0.2864
     86  CB       -18.8620   -3.3910   27.2590 C.3   184  VAL184      0.0276
     87  CG1      -17.4690   -2.8500   27.1900 C.3   184  VAL184      0.0022
     88  CG2      -19.3420   -3.2950   28.7060 C.3   184  VAL184      0.0022
     89  N        -20.3570    0.7850   23.1860 N.3   187  LEU187     -0.1231
     90  CA       -19.4490    1.9120   23.4430 C.3   187  LEU187      0.1693
     91  C        -18.0560    1.8320   22.7550 C.2   187  LEU187      0.2592
     92  O        -17.5700    2.8460   22.2330 O.2   187  LEU187     -0.2718
     93  CB       -19.2770    2.1170   24.9430 C.3   187  LEU187      0.0284
     94  CG       -20.3290    2.9090   25.7150 C.3   187  LEU187      0.0019
     95  CD1      -21.7360    2.3960   25.4780 C.3   187  LEU187      0.0001
     96  CD2      -20.0020    2.7720   27.1600 C.3   187  LEU187      0.0001
     97  N        -17.4430    0.6410   22.7410 N.am  188  PHE188     -0.1976
     98  CA       -16.0300    0.4860   22.3440 C.3   188  PHE188      0.1639
     99  C        -15.7460   -0.5320   21.2520 C.2   188  PHE188      0.2290
    100  O        -14.6440   -1.1340   21.2360 O.2   188  PHE188     -0.2864
    101  CB       -15.1470    0.1500   23.5670 C.3   188  PHE188      0.0560
    102  CG       -15.2080    1.1940   24.6250 C.ar  188  PHE188     -0.0200
    103  CD1      -14.7440    2.4840   24.3570 C.ar  188  PHE188     -0.0042
    104  CD2      -15.7770    0.9170   25.8790 C.ar  188  PHE188     -0.0042
    105  CE1      -14.8570    3.4940   25.3130 C.ar  188  PHE188     -0.0003
    106  CE2      -15.8720    1.9140   26.8640 C.ar  188  PHE188     -0.0003
    107  CZ       -15.4130    3.2100   26.5780 C.ar  188  PHE188     -0.0000
@<TRIPOS>BOND
     1   100    99    2
     2    99    98    1
     3    92    91    2
     4    98    97    1
     5    98   101    1
     6    97    91   am
     7    91    90    1
     8    89    90    1
     9    90    93    1
    10   101   102    1
    11   103   102   ar
    12   103   105   ar
    13    85    84    2
    14   102   104   ar
    15    84    83    1
    16    93    94    1
    17   105   107   ar
    18    73    74    1
    19    76    75    2
    20    95    94    1
    21    94    96    1
    22    74    75    1
    23    74    77    1
    24    75    82   am
    25    54    53    1
    26   104   106   ar
    27    83    82    1
    28    83    86    1
    29   107   106   ar
    30    78    77    1
    31    78    79    1
    32    55    53    1
    33    87    86    1
    34    53    52    1
    35    86    88    1
    36    52    49    1
    37    65    64    2
    38    79    81   am
    39    79    80    2
    40    64    63    1
    41    62    63    1
    42    24    23    1
    43    49    50    1
    44    49    48    1
    45    63    66    1
    46    50    51    2
    47     1     2    1
    48    48    46   am
    49    23    22    1
    50     5     2    1
    51     5     6    1
    52     2     3    1
    53     8     6    1
    54     7     6    1
    55    66    67    1
    56    22    21    1
    57    67    68   ar
    58    67    69   ar
    59    68    70   ar
    60    46    45    1
    61    46    47    2
    62    69    71   ar
    63    60    61    1
    64    60    57    1
    65    70    72   ar
    66    45    44    1
    67     3     9   am
    68     3     4    2
    69    71    72   ar
    70    21    18    1
    71    58    57    1
    72    58    59    2
    73     9    10    1
    74    57    56    1
    75    18    17    1
    76    18    19    1
    77    14    16    1
    78    14    13    1
    79    14    15    1
    80    10    13    1
    81    10    11    1
    82    28    27    2
    83    19    25   am
    84    19    20    2
    85    25    26    1
    86    11    12    2
    87    42    41    1
    88    36    35    2
    89    41    43    1
    90    41    40    2
    91    27    26    1
    92    27    33   am
    93    40    39    1
    94    35    34    1
    95    39    38    1
    96    34    33    1
    97    34    37    1
    98    26    29    1
    99    29    30    1
   100    37    38    1
   101    31    30   ar
   102    30    32   ar
