@<TRIPOS>MOLECULE
tmp/4jltA04.pdb
 184 174 0 0 0
SMALL
GASTEIGER

@<TRIPOS>ATOM
      1  N        -27.1390    0.4940   30.1550 N.3    24  LEU24      -0.1245
      2  CA       -27.5490    1.7190   29.4320 C.3    24  LEU24       0.1561
      3  C        -28.8100    2.4140   30.0070 C.2    24  LEU24       0.2260
      4  O        -28.7480    3.6060   30.3640 O.2    24  LEU24      -0.2867
      5  CB       -27.6560    1.4660   27.9140 C.3    24  LEU24       0.0270
      6  CG       -26.3150    1.1980   27.2160 C.3    24  LEU24       0.0019
      7  CD1      -26.5140    0.5000   25.8780 C.3    24  LEU24       0.0001
      8  CD2      -25.4870    2.4560   27.0180 C.3    24  LEU24       0.0001
      9  N        -32.1210    6.2460   11.1470 N.3    71  ARG71      -0.1245
     10  CA       -31.8510    5.0140   11.9160 C.3    71  ARG71       0.1563
     11  C        -30.3920    5.0200   12.3130 C.2    71  ARG71       0.2260
     12  O        -29.5080    5.2650   11.4600 O.2    71  ARG71      -0.2867
     13  CB       -32.2000    3.7820   11.0600 C.3    71  ARG71       0.0307
     14  CG       -31.6900    2.4270   11.6140 C.3    71  ARG71       0.0489
     15  CD       -32.3660    2.1000   12.9530 C.3    71  ARG71       0.2205
     16  NE       -33.7640    1.7600   12.7790 N.pl3  71  ARG71      -0.0865
     17  CZ       -34.7280    2.1580   13.6180 C.cat  71  ARG71       0.5346
     18  NH1      -34.4610    2.9460   14.6660 N.pl3  71  ARG71       0.1354
     19  NH2      -35.9280    1.7610   13.4010 N.pl3  71  ARG71       0.1354
     20  N        -26.6110   -0.5120   15.3250 N.3    74  ILE74      -0.1245
     21  CA       -26.4450   -1.2100   16.6020 C.3    74  ILE74       0.1561
     22  C        -25.1270   -1.9660   16.5380 C.2    74  ILE74       0.2260
     23  O        -25.0170   -2.9230   15.7710 O.2    74  ILE74      -0.2867
     24  CB       -27.5930   -2.1990   16.8640 C.3    74  ILE74       0.0252
     25  CG1      -28.8640   -1.4470   17.2620 C.3    74  ILE74       0.0019
     26  CG2      -27.2000   -3.1970   17.9430 C.3    74  ILE74       0.0019
     27  CD1      -30.1020   -2.3160   17.2980 C.3    74  ILE74       0.0001
     28  N        -23.2940   -4.3840   17.6820 N.3    76  VAL76      -0.1245
     29  CA       -23.1880   -5.8780   17.5580 C.3    76  VAL76       0.1561
     30  C        -23.8660   -6.4910   16.3470 C.2    76  VAL76       0.2260
     31  O        -23.5530   -7.6450   15.9810 O.2    76  VAL76      -0.2867
     32  CB       -23.6560   -6.7420   18.8150 C.3    76  VAL76       0.0252
     33  CG1      -22.6190   -6.7300   19.8970 C.3    76  VAL76       0.0019
     34  CG2      -25.0900   -6.3580   19.3330 C.3    76  VAL76       0.0019
     35  N        -34.9140   -2.3580    8.5060 N.3    87  ILE87      -0.1245
     36  CA       -34.5810   -1.7970    9.7930 C.3    87  ILE87       0.1561
     37  C        -33.4220   -0.8510    9.7560 C.2    87  ILE87       0.2260
     38  O        -33.4900    0.2030   10.2820 O.2    87  ILE87      -0.2867
     39  CB       -34.2060   -2.8790   10.8350 C.3    87  ILE87       0.0252
     40  CG1      -35.3520   -3.7730   11.1980 C.3    87  ILE87       0.0019
     41  CG2      -33.8070   -2.2290   12.0560 C.3    87  ILE87       0.0019
     42  CD1      -34.9190   -4.9180   11.9660 C.3    87  ILE87       0.0001
     43  N        -30.4710  -13.0880   20.5230 N.3   174  PHE174     -0.1241
     44  CA       -31.1310  -12.0290   21.3670 C.3   174  PHE174      0.1605
     45  C        -30.5870  -11.8490   22.7820 C.2   174  PHE174      0.2264
     46  O        -30.2860  -10.7290   23.1520 O.2   174  PHE174     -0.2867
     47  CB       -32.6010  -12.3010   21.4360 C.3   174  PHE174      0.0534
     48  CG       -33.2630  -12.2260   20.0910 C.ar  174  PHE174     -0.0203
     49  CD1      -33.1370  -11.0740   19.3150 C.ar  174  PHE174     -0.0042
     50  CD2      -34.0400  -13.2530   19.6330 C.ar  174  PHE174     -0.0042
     51  CE1      -33.7780  -10.9850   18.0790 C.ar  174  PHE174     -0.0003
     52  CE2      -34.7020  -13.1890   18.3820 C.ar  174  PHE174     -0.0003
     53  CZ       -34.5650  -12.0530   17.6060 C.ar  174  PHE174     -0.0000
     54  N        -27.2820  -10.3310   22.4560 N.3   177  ILE177     -0.1231
     55  CA       -27.3700   -8.9330   22.0140 C.3   177  ILE177      0.1692
     56  C        -27.7410   -8.0730   23.2260 C.2   177  ILE177      0.2592
     57  O        -27.2160   -6.9790   23.3710 O.2   177  ILE177     -0.2718
     58  CB       -28.4020   -8.7550   20.8740 C.3   177  ILE177      0.0266
     59  CG1      -27.7810   -9.1620   19.5210 C.3   177  ILE177      0.0019
     60  CG2      -28.8790   -7.2790   20.7940 C.3   177  ILE177      0.0020
     61  CD1      -28.8560   -9.7090   18.4210 C.3   177  ILE177      0.0001
     62  N        -28.5650   -8.6300   24.1360 N.am  178  SER178     -0.1952
     63  CA       -28.9770   -7.9110   25.3460 C.3   178  SER178      0.1924
     64  C        -27.9600   -7.8670   26.4640 C.2   178  SER178      0.2314
     65  O        -28.1260   -7.1220   27.4110 O.2   178  SER178     -0.2863
     66  CB       -30.2960   -8.4720   25.8780 C.3   178  SER178      0.2116
     67  OG       -31.3110   -7.8730   25.0990 O.3   178  SER178     -0.2180
     68  N        -23.4980   -4.3680   25.4210 N.3   183  GLN183     -0.1245
     69  CA       -23.5940   -2.9900   25.7900 C.3   183  GLN183      0.1566
     70  C        -22.2130   -2.3570   25.8650 C.2   183  GLN183      0.2260
     71  O        -22.0320   -1.2550   25.4550 O.2   183  GLN183     -0.2867
     72  CB       -24.3780   -2.8300   27.0840 C.3   183  GLN183      0.0367
     73  CG       -25.8540   -3.0450   26.9320 C.3   183  GLN183      0.0905
     74  CD       -26.6320   -2.8700   28.2240 C.2   183  GLN183      0.2608
     75  OE1      -26.7350   -1.7940   28.7470 O.2   183  GLN183     -0.2717
     76  NE2      -27.1730   -3.9430   28.7280 N.am  183  GLN183     -0.0878
     77  N        -21.2550   -1.7250   22.3190 N.3   186  GLU186     -0.1245
     78  CA       -21.9000   -0.5500   21.7820 C.3   186  GLU186      0.1567
     79  C        -20.9760    0.6780   22.0200 C.2   186  GLU186      0.2260
     80  O        -20.8030    1.4820   21.1500 O.2   186  GLU186     -0.2867
     81  CB       -23.2520   -0.3580   22.4530 C.3   186  GLU186      0.0388
     82  CG       -24.0420    0.8320   21.9050 C.3   186  GLU186      0.1160
     83  CD       -24.3260    0.7060   20.4080 C.2   186  GLU186      0.3649
     84  OE1      -24.6690   -0.4090   19.9170 O.co2 186  GLU186     -0.2457
     85  OE2      -24.1480    1.7260   19.7250 O.co2 186  GLU186     -0.2457
     86  N        -35.8160  -10.6730   12.9620 N.3   265  PHE265     -0.1227
     87  CA       -35.0560  -10.0040   14.0010 C.3   265  PHE265      0.1736
     88  C        -35.9500   -9.0960   14.9270 C.2   265  PHE265      0.2595
     89  O        -35.7990   -9.1010   16.1500 O.2   265  PHE265     -0.2718
     90  CB       -33.9910   -9.1490   13.3560 C.3   265  PHE265      0.0547
     91  CG       -33.0130   -8.5490   14.3400 C.ar  265  PHE265     -0.0202
     92  CD1      -32.1000   -9.3660   15.0340 C.ar  265  PHE265     -0.0042
     93  CD2      -32.9760   -7.1730   14.5570 C.ar  265  PHE265     -0.0042
     94  CE1      -31.1890   -8.7990   15.9270 C.ar  265  PHE265     -0.0003
     95  CE2      -32.0740   -6.6030   15.4340 C.ar  265  PHE265     -0.0003
     96  CZ       -31.1640   -7.4090   16.1250 C.ar  265  PHE265     -0.0000
     97  N        -36.8360   -8.3140   14.3100 N.am  266  ALA266     -0.1980
     98  CA       -37.7260   -7.3670   14.9940 C.3   266  ALA266      0.1597
     99  C        -39.0020   -8.0560   15.4100 C.2   266  ALA266      0.2287
    100  O        -39.5400   -7.7140   16.4120 O.2   266  ALA266     -0.2864
    101  CB       -38.0540   -6.1270   14.0520 C.3   266  ALA266      0.0319
    102  N        -38.9070  -11.9550   18.9220 N.3   269  GLU269     -0.1231
    103  CA       -38.5510  -11.9700   20.3080 C.3   269  GLU269      0.1699
    104  C        -39.4010  -11.0070   21.1130 C.2   269  GLU269      0.2592
    105  O        -39.8740  -11.3680   22.1450 O.2   269  GLU269     -0.2718
    106  CB       -37.1150  -11.6420   20.5310 C.3   269  GLU269      0.0402
    107  CG       -36.6470  -12.0920   21.8220 C.3   269  GLU269      0.1161
    108  CD       -36.3030  -10.9670   22.7070 C.2   269  GLU269      0.3649
    109  OE1      -35.1760  -10.4540   22.6430 O.co2 269  GLU269     -0.2457
    110  OE2      -37.1560  -10.5840   23.4930 O.co2 269  GLU269     -0.2457
    111  N        -39.5630   -9.7810   20.6470 N.am  270  THR270     -0.1953
    112  CA       -40.4320   -8.8380   21.3640 C.3   270  THR270      0.1897
    113  C        -41.8330   -9.4310   21.5670 C.2   270  THR270      0.2313
    114  O        -42.3120   -9.4690   22.6780 O.2   270  THR270     -0.2863
    115  CB       -40.4680   -7.4330   20.7010 C.3   270  THR270      0.1794
    116  OG1      -39.1390   -7.0950   20.2610 O.3   270  THR270     -0.2208
    117  CG2      -40.8830   -6.3730   21.7660 C.3   270  THR270      0.0378
    118  N        -40.4990   -3.7700   26.8380 N.3   330  LEU330     -0.1231
    119  CA       -39.5360   -4.7280   26.2930 C.3   330  LEU330      0.1693
    120  C        -38.4030   -4.0760   25.5150 C.2   330  LEU330      0.2591
    121  O        -37.4050   -4.7400   25.1870 O.2   330  LEU330     -0.2718
    122  CB       -40.2410   -5.7290   25.3900 C.3   330  LEU330      0.0284
    123  CG       -41.0930   -6.7790   26.1180 C.3   330  LEU330      0.0019
    124  CD1      -41.2830   -7.8870   25.1440 C.3   330  LEU330      0.0001
    125  CD2      -40.3870   -7.3330   27.3750 C.3   330  LEU330      0.0001
    126  N        -38.5750   -2.7950   25.1540 N.am  331  ILE331     -0.1980
    127  CA       -37.4930   -2.1100   24.4070 C.3   331  ILE331      0.1595
    128  C        -37.3170   -0.7960   25.1360 C.2   331  ILE331      0.2287
    129  O        -37.7810    0.2420   24.6740 O.2   331  ILE331     -0.2864
    130  CB       -37.8050   -1.9600   22.8630 C.3   331  ILE331      0.0276
    131  CG1      -37.8870   -3.3380   22.1910 C.3   331  ILE331      0.0022
    132  CG2      -36.6590   -1.2570   22.0960 C.3   331  ILE331      0.0022
    133  CD1      -38.5250   -3.2800   20.8570 C.3   331  ILE331      0.0001
    134  N        -34.9680    1.4760   26.0630 N.3   333  PHE333     -0.1227
    135  CA       -34.3750    2.7140   25.6260 C.3   333  PHE333      0.1736
    136  C        -34.5100    2.9120   24.1560 C.2   333  PHE333      0.2596
    137  O        -33.7330    3.5830   23.5840 O.2   333  PHE333     -0.2718
    138  CB       -32.9520    2.9700   26.2360 C.3   333  PHE333      0.0547
    139  CG       -31.9900    1.8370   26.0560 C.ar  333  PHE333     -0.0202
    140  CD1      -31.2350    1.7390   24.8960 C.ar  333  PHE333     -0.0042
    141  CD2      -31.8540    0.8560   27.0420 C.ar  333  PHE333     -0.0042
    142  CE1      -30.3190    0.6870   24.7160 C.ar  333  PHE333     -0.0003
    143  CE2      -30.9700   -0.2220   26.8810 C.ar  333  PHE333     -0.0003
    144  CZ       -30.1900   -0.3150   25.7080 C.ar  333  PHE333     -0.0000
    145  N        -35.5510    2.3520   23.5520 N.am  334  GLY334     -0.1942
    146  CA       -35.7840    2.4390   22.1330 C.3   334  GLY334      0.2014
    147  C        -34.7470    1.7490   21.2330 C.2   334  GLY334      0.2639
    148  O        -33.8220    1.0360   21.7190 O.2   334  GLY334     -0.2714
    149  N        -34.9240    1.9460   19.9330 N.am  335  VAL335     -0.1963
    150  CA       -33.9630    1.5990   18.9040 C.3   335  VAL335      0.1712
    151  C        -33.3560    2.9510   18.3920 C.2   335  VAL335      0.2458
    152  O        -34.0820    3.9040   18.1450 O.2   335  VAL335     -0.2730
    153  CB       -34.6620    0.8350   17.7700 C.3   335  VAL335      0.0289
    154  CG1      -33.6800    0.5010   16.5940 C.3   335  VAL335      0.0023
    155  CG2      -35.4010   -0.4740   18.2700 C.3   335  VAL335      0.0023
    156  N        -32.0190    3.0520   18.2920 N.am  336  PRO336     -0.2727
    157  CA       -31.3990    4.3510   17.9820 C.3   336  PRO336      0.1402
    158  C        -31.9570    4.9470   16.7090 C.2   336  PRO336      0.2269
    159  O        -32.1860    4.2270   15.7190 O.2   336  PRO336     -0.2865
    160  CB       -29.9340    3.9880   17.6950 C.3   336  PRO336      0.0296
    161  CG       -29.7320    2.6770   18.4670 C.3   336  PRO336      0.0237
    162  CD       -31.0310    1.9560   18.3440 C.3   336  PRO336      0.0939
    163  N        -31.5720    8.5440   21.1980 N.3   357  PHE357     -0.1241
    164  CA       -32.3310    7.4410   21.7820 C.3   357  PHE357      0.1605
    165  C        -33.6350    7.9620   22.3820 C.2   357  PHE357      0.2264
    166  O        -33.5680    8.7430   23.3450 O.2   357  PHE357     -0.2867
    167  CB       -31.5060    6.7790   22.8990 C.3   357  PHE357      0.0534
    168  CG       -30.3540    5.9000   22.4150 C.ar  357  PHE357     -0.0203
    169  CD1      -29.2760    6.4220   21.7230 C.ar  357  PHE357     -0.0042
    170  CD2      -30.3200    4.5530   22.7170 C.ar  357  PHE357     -0.0042
    171  CE1      -28.1570    5.5960   21.3140 C.ar  357  PHE357     -0.0003
    172  CE2      -29.2110    3.7250   22.3050 C.ar  357  PHE357     -0.0003
    173  CZ       -28.1240    4.2870   21.6210 C.ar  357  PHE357     -0.0000
    174  N        -31.2630   -4.1570   27.2750 N.3   443  VAL443     -0.1231
    175  CA       -31.4190   -3.4690   26.0030 C.3   443  VAL443      0.1692
    176  C        -32.7810   -3.9490   25.5520 C.2   443  VAL443      0.2592
    177  O        -33.3540   -3.4880   24.5650 O.2   443  VAL443     -0.2718
    178  CB       -30.3530   -3.8960   24.9860 C.3   443  VAL443      0.0266
    179  CG1      -29.2480   -4.6830   25.6750 C.3   443  VAL443      0.0020
    180  CG2      -30.9840   -4.7150   23.8700 C.3   443  VAL443      0.0020
    181  N        -33.2730   -4.9020   26.3320 N.am  444  GLY444     -0.1957
    182  CA       -34.5790   -5.5180   26.1910 C.3   444  GLY444      0.1869
    183  C        -34.8210   -6.3100   27.4680 C.2   444  GLY444      0.2309
    184  O        -34.0440   -7.2030   27.8060 O.2   444  GLY444     -0.2863
@<TRIPOS>BOND
     1    35    36    1
     2    37    36    1
     3    37    38    2
     4    36    39    1
     5    39    40    1
     6    39    41    1
     7    13    14    1
     8    13    10    1
     9     9    10    1
    10    40    42    1
    11    12    11    2
    12    14    15    1
    13    10    11    1
    14    16    15    1
    15    16    17    2
    16    86    87    1
    17    90    87    1
    18    90    91    1
    19    19    17    1
    20    17    18    1
    21    87    88    1
    22   101    98    1
    23    97    88   am
    24    97    98    1
    25    91    93   ar
    26    91    92   ar
    27    93    95   ar
    28    88    89    2
    29    98    99    1
    30    92    94   ar
    31    20    21    1
    32    99   100    2
    33    95    96   ar
    34   159   158    2
    35    23    22    2
    36    94    96   ar
    37    31    30    2
    38    30    29    1
    39    22    21    1
    40   154   153    1
    41    21    24    1
    42   158   157    1
    43    24    25    1
    44    24    26    1
    45    25    27    1
    46    29    28    1
    47    29    32    1
    48    53    51   ar
    49    53    52   ar
    50   160   157    1
    51   160   161    1
    52   153   155    1
    53   153   150    1
    54   157   156    1
    55    51    49   ar
    56   152   151    2
    57   156   162    1
    58   156   151   am
    59   162   161    1
    60    52    50   ar
    61   151   150    1
    62    61    59    1
    63    32    34    1
    64    32    33    1
    65   150   149    1
    66   102   103    1
    67    49    48   ar
    68    59    58    1
    69    50    48   ar
    70    85    83   ar
    71    84    83   ar
    72   149   147   am
    73    48    47    1
    74   116   115    1
    75   103   106    1
    76   103   104    1
    77    83    82    1
    78    43    44    1
    79   106   107    1
    80   111   104   am
    81   111   112    1
    82   115   112    1
    83   115   117    1
    84    60    58    1
    85   133   131    1
    86    58    55    1
    87   104   105    2
    88    80    79    2
    89   163   164    1
    90   147   148    2
    91   147   146    1
    92   171   173   ar
    93   171   169   ar
    94   112   113    1
    95    44    47    1
    96    44    45    1
    97   113   114    2
    98   173   172   ar
    99   169   168   ar
   100    78    79    1
   101    78    77    1
   102    78    81    1
   103   164   165    1
   104   164   167    1
   105   107   108    1
   106    82    81    1
   107    55    54    1
   108    55    56    1
   109   132   130    1
   110   146   145    1
   111   131   130    1
   112   172   170   ar
   113   165   166    2
   114   168   170   ar
   115   168   167    1
   116   109   108   ar
   117   108   110   ar
   118    45    46    2
   119   130   127    1
   120    56    57    2
   121    56    62   am
   122   145   136   am
   123   137   136    2
   124   180   178    1
   125    62    63    1
   126   136   135    1
   127   127   128    1
   128   127   126    1
   129   177   176    2
   130   129   128    2
   131   142   140   ar
   132   142   144   ar
   133   140   139   ar
   134   178   179    1
   135   178   175    1
   136    67    66    1
   137   124   123    1
   138   126   120   am
   139   121   120    2
   140    63    66    1
   141    63    64    1
   142   122   123    1
   143   122   119    1
   144    68    69    1
   145    71    70    2
   146   120   119    1
   147   176   175    1
   148   176   181   am
   149   135   134    1
   150   135   138    1
   151   144   143   ar
   152    69    70    1
   153    69    72    1
   154     7     6    1
   155   175   174    1
   156   139   138    1
   157   139   141   ar
   158   123   125    1
   159   182   181    1
   160   182   183    1
   161   119   118    1
   162    64    65    2
   163   143   141   ar
   164    73    72    1
   165    73    74    1
   166     8     6    1
   167     6     5    1
   168   183   184    2
   169     5     2    1
   170    74    76   am
   171    74    75    2
   172     2     3    1
   173     2     1    1
   174     3     4    2
