@<TRIPOS>MOLECULE
tmp/4jltA02.pdb
 85 80 0 0 0
SMALL
GASTEIGER

@<TRIPOS>ATOM
      1  N        -34.5410  -18.4830   -0.7410 N.3   217  VAL217     -0.1231
      2  CA       -34.5770  -17.6100   -1.9030 C.3   217  VAL217      0.1692
      3  C        -34.3220  -18.3580   -3.2470 C.2   217  VAL217      0.2591
      4  O        -35.1690  -18.2850   -4.1610 O.2   217  VAL217     -0.2718
      5  CB       -33.6770  -16.3600   -1.7660 C.3   217  VAL217      0.0266
      6  CG1      -33.5820  -15.6270   -3.1300 C.3   217  VAL217      0.0020
      7  CG2      -34.2930  -15.3800   -0.6840 C.3   217  VAL217      0.0020
      8  N        -33.2300  -19.1130   -3.3400 N.am  218  GLU218     -0.1979
      9  CA       -32.9410  -19.9780   -4.5090 C.3   218  GLU218      0.1602
     10  C        -34.1030  -20.8880   -4.8090 C.2   218  GLU218      0.2287
     11  O        -34.5170  -21.0260   -5.9420 O.2   218  GLU218     -0.2864
     12  CB       -31.6880  -20.8590   -4.2590 C.3   218  GLU218      0.0415
     13  CG       -30.4290  -20.0000   -4.3300 C.3   218  GLU218      0.1163
     14  CD       -29.2080  -20.5810   -3.5310 C.2   218  GLU218      0.3649
     15  OE1      -28.1490  -19.8680   -3.4220 O.co2 218  GLU218     -0.2457
     16  OE2      -29.2960  -21.7140   -2.9930 O.co2 218  GLU218     -0.2457
     17  N        -37.0760  -18.8800   -6.2460 N.3   221  ARG221     -0.1245
     18  CA       -36.7660  -18.4950   -7.6100 C.3   221  ARG221      0.1563
     19  C        -36.9340  -19.7020   -8.5450 C.2   221  ARG221      0.2260
     20  O        -37.5760  -19.5740   -9.6110 O.2   221  ARG221     -0.2867
     21  CB       -35.3770  -17.8230   -7.7100 C.3   221  ARG221      0.0307
     22  CG       -34.7540  -17.7130   -9.1330 C.3   221  ARG221      0.0489
     23  CD       -35.6750  -17.0160  -10.2350 C.3   221  ARG221      0.2205
     24  NE       -35.1000  -17.1900  -11.6110 N.pl3 221  ARG221     -0.0865
     25  CZ       -35.4780  -18.1230  -12.5190 C.cat 221  ARG221      0.5346
     26  NH1      -36.4870  -19.0020  -12.2930 N.pl3 221  ARG221      0.1354
     27  NH2      -34.8310  -18.1720  -13.6770 N.pl3 221  ARG221      0.1354
     28  N        -40.8200  -20.4790   -8.9660 N.3   224  LEU224     -0.1245
     29  CA       -41.6480  -19.2910   -8.9750 C.3   224  LEU224      0.1561
     30  C        -42.7120  -19.3680  -10.0480 C.2   224  LEU224      0.2260
     31  O        -42.4180  -19.7780  -11.1810 O.2   224  LEU224     -0.2867
     32  CB       -40.7810  -18.0640   -9.2290 C.3   224  LEU224      0.0270
     33  CG       -41.3980  -16.6770   -9.4330 C.3   224  LEU224      0.0019
     34  CD1      -41.9220  -16.0810   -8.1120 C.3   224  LEU224      0.0001
     35  CD2      -40.3460  -15.7760  -10.0330 C.3   224  LEU224      0.0001
     36  N        -44.8160  -16.3780  -11.6530 N.3   226  PRO226     -0.2116
     37  CA       -44.9460  -14.9170  -11.5970 C.3   226  PRO226      0.1372
     38  C        -46.4090  -14.4450  -11.5400 C.2   226  PRO226      0.2244
     39  O        -46.6510  -13.2870  -11.1740 O.2   226  PRO226     -0.2868
     40  CB       -44.2450  -14.4190  -12.8920 C.3   226  PRO226      0.0268
     41  CG       -43.3230  -15.5580  -13.2680 C.3   226  PRO226      0.0207
     42  CD       -44.0740  -16.8120  -12.8590 C.3   226  PRO226      0.0892
     43  N        -39.1010  -10.9310   -5.4910 N.3   237  LEU237     -0.1231
     44  CA       -38.3370  -11.4110   -6.6860 C.3   237  LEU237      0.1693
     45  C        -38.9340  -10.7880   -7.9580 C.2   237  LEU237      0.2591
     46  O        -38.2180  -10.4200   -8.8830 O.2   237  LEU237     -0.2718
     47  CB       -38.4380  -12.9270   -6.7730 C.3   237  LEU237      0.0284
     48  CG       -37.6180  -13.7120   -5.7200 C.3   237  LEU237      0.0019
     49  CD1      -37.9970  -15.2200   -5.7790 C.3   237  LEU237      0.0001
     50  CD2      -36.1400  -13.5100   -5.9200 C.3   237  LEU237      0.0001
     51  N        -40.2480  -10.6120   -7.9530 N.am  238  LEU238     -0.1980
     52  CA       -40.9590   -9.9310   -9.0490 C.3   238  LEU238      0.1596
     53  C        -40.6300   -8.4430   -9.1220 C.2   238  LEU238      0.2287
     54  O        -40.4890   -7.8870  -10.1980 O.2   238  LEU238     -0.2864
     55  CB       -42.4530  -10.1880   -8.9140 C.3   238  LEU238      0.0297
     56  CG       -42.8580  -11.6680   -8.8460 C.3   238  LEU238      0.0022
     57  CD1      -44.3660  -11.7170   -8.6920 C.3   238  LEU238      0.0001
     58  CD2      -42.4550  -12.4630  -10.0580 C.3   238  LEU238      0.0001
     59  N        -37.5840   -7.2310   -8.1460 N.3   240  MET240     -0.1230
     60  CA       -36.2350   -7.2750   -8.6900 C.3   240  MET240      0.1702
     61  C        -36.2710   -7.3090  -10.2220 C.2   240  MET240      0.2592
     62  O        -35.5480   -6.5540  -10.8580 O.2   240  MET240     -0.2718
     63  CB       -35.4540   -8.5050   -8.1920 C.3   240  MET240      0.0401
     64  CG       -35.0670   -8.4830   -6.7200 C.3   240  MET240      0.0596
     65  SD       -34.0960   -9.9580   -6.2120 S.3   240  MET240     -0.1393
     66  CE       -32.6120   -9.7620   -7.2200 C.3   240  MET240      0.0692
     67  N        -37.0880   -8.1970  -10.7850 N.am  241  GLU241     -0.1979
     68  CA       -37.2420   -8.3030  -12.2230 C.3   241  GLU241      0.1602
     69  C        -37.7970   -6.9830  -12.8360 C.2   241  GLU241      0.2287
     70  O        -37.2650   -6.4610  -13.8070 O.2   241  GLU241     -0.2864
     71  CB       -38.1490   -9.4900  -12.5540 C.3   241  GLU241      0.0415
     72  CG       -38.6950   -9.4450  -13.9880 C.3   241  GLU241      0.1163
     73  CD       -37.5750   -9.6630  -15.0340 C.2   241  GLU241      0.3649
     74  OE1      -36.5280  -10.2430  -14.6620 O.co2 241  GLU241     -0.2457
     75  OE2      -37.7450   -9.2480  -16.2150 O.co2 241  GLU241     -0.2457
     76  N        -30.3340   -8.4690   -4.2050 N.3   253  HIS253     -0.1241
     77  CA       -30.2330   -9.6290   -3.3980 C.3   253  HIS253      0.1621
     78  C        -29.8700   -9.3180   -1.9360 C.2   253  HIS253      0.2264
     79  O        -30.4390   -9.9020   -1.0420 O.2   253  HIS253     -0.2867
     80  CB       -29.1770  -10.5650   -4.0290 C.3   253  HIS253      0.0745
     81  CG       -29.0680  -11.8830   -3.3310 C.ar  253  HIS253      0.0817
     82  ND1      -30.0130  -12.8770   -3.4750 N.ar  253  HIS253     -0.2268
     83  CD2      -28.1580  -12.3460   -2.4360 C.ar  253  HIS253      0.1154
     84  CE1      -29.6770  -13.9110   -2.7150 C.ar  253  HIS253      0.1986
     85  NE2      -28.5450  -13.6190   -2.0900 N.ar  253  HIS253     -0.2212
@<TRIPOS>BOND
     1    75    73   ar
     2    73    74   ar
     3    73    72    1
     4    72    71    1
     5    70    69    2
     6    27    25    1
     7    41    40    1
     8    41    42    1
     9    40    37    1
    10    42    36    1
    11    69    68    1
    12    71    68    1
    13    25    26    1
    14    25    24    2
    15    68    67    1
    16    36    37    1
    17    24    23    1
    18    37    38    1
    19    38    39    2
    20    31    30    2
    21    62    61    2
    22    67    61   am
    23    23    22    1
    24    61    60    1
    25    54    53    2
    26    58    56    1
    27    30    29    1
    28    35    33    1
    29    20    19    2
    30    33    32    1
    31    33    34    1
    32    32    29    1
    33    22    21    1
    34    53    52    1
    35    52    55    1
    36    52    51    1
    37    29    28    1
    38    55    56    1
    39    46    45    2
    40    56    57    1
    41    60    63    1
    42    60    59    1
    43    19    18    1
    44    63    64    1
    45    45    51   am
    46    45    44    1
    47    21    18    1
    48    18    17    1
    49    66    65    1
    50    47    44    1
    51    47    48    1
    52    64    65    1
    53    44    43    1
    54    11    10    2
    55    50    48    1
    56    49    48    1
    57    10     9    1
    58     9    12    1
    59     9     8    1
    60    13    12    1
    61    13    14    1
    62    76    77    1
    63     4     3    2
    64    80    77    1
    65    80    81    1
    66    14    15   ar
    67    14    16   ar
    68    82    81   ar
    69    82    84   ar
    70    77    78    1
    71     8     3   am
    72    81    83   ar
    73     3     2    1
    74     6     5    1
    75    84    85   ar
    76    83    85   ar
    77    78    79    2
    78     2     5    1
    79     2     1    1
    80     5     7    1
