@<TRIPOS>MOLECULE
tmp/4jlvA00.pdb
 125 121 0 0 0
SMALL
GASTEIGER

@<TRIPOS>ATOM
      1  N        -14.2390   -3.8860  -18.6120 N.3    22  ILE22      -0.1231
      2  CA       -13.6570   -3.0760  -19.6740 C.3    22  ILE22       0.1692
      3  C        -13.5170   -3.9350  -20.9200 C.2    22  ILE22       0.2592
      4  O        -12.9070   -5.0070  -20.8750 O.2    22  ILE22      -0.2718
      5  CB       -12.2440   -2.5570  -19.3060 C.3    22  ILE22       0.0266
      6  CG1      -12.2610   -1.7660  -17.9890 C.3    22  ILE22       0.0019
      7  CG2      -11.6920   -1.7330  -20.4390 C.3    22  ILE22       0.0020
      8  CD1      -13.3450   -0.6860  -17.9070 C.3    22  ILE22       0.0001
      9  N        -14.0730   -3.4700  -22.0320 N.am   23  GLN23      -0.1966
     10  CA       -14.0080   -4.2380  -23.2700 C.3    23  GLN23       0.1733
     11  C        -12.6100   -4.1690  -23.8920 C.2    23  GLN23       0.2616
     12  O        -11.8370   -3.2610  -23.5870 O.2    23  GLN23      -0.2715
     13  CB       -15.0580   -3.7410  -24.2680 C.3    23  GLN23       0.0408
     14  CG       -14.6990   -2.4220  -24.9670 C.3    23  GLN23       0.0908
     15  CD       -15.4040   -1.2140  -24.3640 C.2    23  GLN23       0.2608
     16  OE1      -15.3600   -0.9970  -23.1490 O.2    23  GLN23      -0.2717
     17  NE2      -16.0650   -0.4230  -25.2140 N.am   23  GLN23      -0.0878
     18  N        -12.2960   -5.1330  -24.7600 N.am   24  LYS24      -0.1963
     19  CA       -11.0200   -5.1530  -25.4780 C.3    24  LYS24       0.1728
     20  C        -11.0250   -4.0890  -26.5830 C.2    24  LYS24       0.2616
     21  O        -12.0850   -3.5720  -26.9300 O.2    24  LYS24      -0.2715
     22  CB       -10.7500   -6.5440  -26.0640 C.3    24  LYS24       0.0311
     23  CG        -9.2700   -6.9000  -26.1900 C.3    24  LYS24       0.0038
     24  CD        -9.0650   -8.1200  -27.0790 C.3    24  LYS24       0.0206
     25  CE        -7.6080   -8.5850  -27.0970 C.3    24  LYS24       0.1093
     26  NZ        -7.2290   -9.3180  -25.8490 N.3    24  LYS24      -0.1314
     27  N         -9.8540   -3.7510  -27.1270 N.am   25  PHE25      -0.1974
     28  CA        -9.7860   -2.7590  -28.2100 C.3    25  PHE25       0.1639
     29  C         -8.5310   -2.8750  -29.0840 C.2    25  PHE25       0.2290
     30  O         -8.1750   -1.9370  -29.8070 O.2    25  PHE25      -0.2864
     31  CB        -9.9310   -1.3350  -27.6560 C.3    25  PHE25       0.0560
     32  CG        -9.0210   -1.0350  -26.4960 C.ar   25  PHE25      -0.0200
     33  CD1       -7.6550   -0.8930  -26.6840 C.ar   25  PHE25      -0.0042
     34  CD2       -9.5340   -0.8850  -25.2160 C.ar   25  PHE25      -0.0042
     35  CE1       -6.8100   -0.6140  -25.6150 C.ar   25  PHE25      -0.0003
     36  CE2       -8.6970   -0.6000  -24.1400 C.ar   25  PHE25      -0.0003
     37  CZ        -7.3380   -0.4680  -24.3400 C.ar   25  PHE25      -0.0000
     38  N         -4.4040    5.5960  -24.8480 N.3    27  THR27      -0.1218
     39  CA        -4.5320    4.7510  -23.6670 C.3    27  THR27       0.1862
     40  C         -5.2740    5.4470  -22.5140 C.2    27  THR27       0.2287
     41  O         -5.9860    4.7940  -21.7500 O.2    27  THR27      -0.2866
     42  CB        -3.1600    4.2870  -23.1900 C.3    27  THR27       0.1770
     43  OG1       -3.2660    3.7780  -21.8570 O.3    27  THR27      -0.2211
     44  CG2       -2.1780    5.4560  -23.2070 C.3    27  THR27       0.0375
     45  N          0.9450  -11.0630  -14.9610 N.3    66  PRO66      -0.2102
     46  CA         1.2640   -9.9080  -15.8190 C.3    66  PRO66       0.1504
     47  C          0.2620   -9.6940  -16.9580 C.2    66  PRO66       0.2576
     48  O         -0.3670  -10.6460  -17.4080 O.2    66  PRO66      -0.2718
     49  CB         2.6490  -10.2660  -16.4040 C.3    66  PRO66       0.0282
     50  CG         3.2650  -11.1930  -15.4000 C.3    66  PRO66       0.0208
     51  CD         2.1090  -11.9490  -14.7530 C.3    66  PRO66       0.0893
     52  N          0.1190   -8.4490  -17.4060 N.am   67  GLY67      -0.1943
     53  CA        -0.6620   -8.1380  -18.5900 C.3    67  GLY67       0.2014
     54  C         -2.1690   -8.0220  -18.3940 C.2    67  GLY67       0.2639
     55  O         -2.8960   -7.7470  -19.3520 O.2    67  GLY67      -0.2714
     56  N         -2.6440   -8.2250  -17.1650 N.am   68  ALA68      -0.1963
     57  CA        -4.0800   -8.1820  -16.8690 C.3    68  ALA68       0.1728
     58  C         -4.7260   -6.8380  -17.2000 C.2    68  ALA68       0.2617
     59  O         -5.8960   -6.7810  -17.5630 O.2    68  ALA68      -0.2715
     60  CB        -4.3310   -8.5330  -15.4210 C.3    68  ALA68       0.0334
     61  N         -3.9670   -5.7550  -17.0680 N.am   69  GLY69      -0.1940
     62  CA        -4.5060   -4.4350  -17.3260 C.3    69  GLY69       0.2014
     63  C         -4.5560   -3.5740  -16.0730 C.2    69  GLY69       0.2639
     64  O         -5.3050   -2.5910  -16.0210 O.2    69  GLY69      -0.2714
     65  N         -3.7690   -3.9570  -15.0640 N.am   70  LYS70      -0.1963
     66  CA        -3.6050   -3.1800  -13.8380 C.3    70  LYS70       0.1728
     67  C         -3.3580   -1.7190  -14.1550 C.2    70  LYS70       0.2617
     68  O         -4.0990   -0.8390  -13.7260 O.2    70  LYS70      -0.2715
     69  CB        -2.3870   -3.6780  -13.0410 C.3    70  LYS70       0.0311
     70  CG        -2.6060   -4.8960  -12.1940 C.3    70  LYS70       0.0038
     71  CD        -1.3220   -5.3150  -11.5190 C.3    70  LYS70       0.0206
     72  CE        -0.2130   -5.5600  -12.5490 C.3    70  LYS70       0.1093
     73  NZ        -0.5480   -6.7390  -13.4210 N.3    70  LYS70      -0.1314
     74  N         -2.2870   -1.4770  -14.8980 N.am   71  SER71      -0.1936
     75  CA        -1.8350   -0.1350  -15.1630 C.3    71  SER71       0.2055
     76  C         -2.8910    0.6880  -15.9020 C.2    71  SER71       0.2643
     77  O         -3.1140    1.8520  -15.5740 O.2    71  SER71      -0.2714
     78  CB        -0.5200   -0.1830  -15.9280 C.3    71  SER71       0.2130
     79  OG         0.5190   -0.6980  -15.0900 O.3    71  SER71      -0.2179
     80  N         -3.5680    0.0780  -16.8680 N.am   72  THR72      -0.1950
     81  CA        -4.6060    0.7810  -17.6170 C.3    72  THR72       0.1897
     82  C         -5.7480    1.1630  -16.6880 C.2    72  THR72       0.2313
     83  O         -6.3080    2.2490  -16.7980 O.2    72  THR72      -0.2863
     84  CB        -5.1440   -0.0760  -18.7690 C.3    72  THR72       0.1794
     85  OG1       -4.0590   -0.4800  -19.6100 O.3    72  THR72      -0.2208
     86  CG2       -6.1540    0.7100  -19.5970 C.3    72  THR72       0.0378
     87  N          5.4740    1.6070  -15.3910 N.3    99  THR99      -0.1218
     88  CA         4.7820    1.8880  -16.6370 C.3    99  THR99       0.1862
     89  C          3.9350    3.1690  -16.6290 C.2    99  THR99       0.2287
     90  O          3.6510    3.7140  -17.6960 O.2    99  THR99      -0.2866
     91  CB         3.9740    0.6580  -17.1150 C.3    99  THR99       0.1770
     92  OG1        3.7160    0.7560  -18.5170 O.3    99  THR99      -0.2211
     93  CG2        2.7040    0.5990  -16.4360 C.3    99  THR99       0.0375
     94  N          2.6820    5.8260  -19.6320 N.3   103  ILE103     -0.1245
     95  CA         1.2670    6.0990  -19.8610 C.3   103  ILE103      0.1561
     96  C          0.9390    7.5950  -19.8460 C.2   103  ILE103      0.2260
     97  O          0.1610    8.0760  -20.6680 O.2   103  ILE103     -0.2867
     98  CB         0.3960    5.3530  -18.8400 C.3   103  ILE103      0.0252
     99  CG1        0.5280    3.8440  -19.0420 C.3   103  ILE103      0.0019
    100  CG2       -1.0620    5.7810  -18.9490 C.3   103  ILE103      0.0019
    101  CD1       -0.2300    3.0350  -18.0250 C.3   103  ILE103      0.0001
    102  N          2.1950   -7.9370  -10.4710 N.3   175  PRO175     -0.2116
    103  CA         1.2480   -9.0470  -10.2390 C.3   175  PRO175      0.1372
    104  C          1.5440   -9.7970   -8.9410 C.2   175  PRO175      0.2244
    105  O          2.7000   -9.9140   -8.5210 O.2   175  PRO175     -0.2868
    106  CB         1.4850   -9.9840  -11.4320 C.3   175  PRO175      0.0268
    107  CG         2.2440   -9.1810  -12.4310 C.3   175  PRO175      0.0207
    108  CD         3.0050   -8.1330  -11.6830 C.3   175  PRO175      0.0892
    109  N        -11.3950   -7.4660  -17.3160 N.3   226  ASN226     -0.1225
    110  CA       -10.7880   -6.6900  -18.3820 C.3   226  ASN226      0.1785
    111  C        -10.7460   -7.4840  -19.6830 C.2   226  ASN226      0.2597
    112  O        -10.7380   -8.7140  -19.6500 O.2   226  ASN226     -0.2718
    113  CB        -9.3690   -6.2830  -17.9740 C.3   226  ASN226      0.1169
    114  CG        -8.7410   -5.2980  -18.9400 C.2   226  ASN226      0.2627
    115  OD1       -9.3900   -4.3580  -19.3990 O.2   226  ASN226     -0.2716
    116  ND2       -7.4700   -5.5120  -19.2570 N.am  226  ASN226     -0.0877
    117  N        -10.7110   -6.7780  -20.8170 N.am  227  LYS227     -0.1980
    118  CA       -10.6060   -7.3940  -22.1500 C.3   227  LYS227      0.1596
    119  C        -11.7960   -8.2980  -22.4760 C.2   227  LYS227      0.2287
    120  O        -11.6690   -9.2550  -23.2450 O.2   227  LYS227     -0.2864
    121  CB        -9.2930   -8.1860  -22.3020 C.3   227  LYS227      0.0298
    122  CG        -8.0460   -7.3840  -21.9790 C.3   227  LYS227      0.0038
    123  CD        -6.8410   -8.2760  -21.7670 C.3   227  LYS227      0.0206
    124  CE        -5.6280   -7.4490  -21.3470 C.3   227  LYS227      0.1093
    125  NZ        -4.3330   -8.1020  -21.7080 N.3   227  LYS227     -0.1314
@<TRIPOS>BOND
     1    30    29    2
     2    29    28    1
     3    28    31    1
     4    28    27    1
     5    31    32    1
     6    27    20   am
     7    25    24    1
     8    25    26    1
     9    24    23    1
    10    21    20    2
    11    33    32   ar
    12    33    35   ar
    13    20    19    1
    14    32    34   ar
    15    23    22    1
    16    22    19    1
    17    35    37   ar
    18    19    18    1
    19    34    36   ar
    20    17    15   am
    21    14    15    1
    22    14    13    1
    23    38    39    1
    24    18    11   am
    25    15    16    2
    26    37    36   ar
    27    13    10    1
    28    11    12    2
    29    11    10    1
    30    39    42    1
    31    39    40    1
    32    10     9    1
    33   120   119    2
    34    44    42    1
    35    42    43    1
    36    40    41    2
    37   119   118    1
    38   121   118    1
    39   121   122    1
    40   118   117    1
    41     9     3   am
    42   122   123    1
    43   123   124    1
    44   125   124    1
    45     3     4    2
    46     3     2    1
    47   117   111   am
    48    97    96    2
    49     7     5    1
    50    95    96    1
    51    95    94    1
    52    95    98    1
    53   111   112    2
    54   111   110    1
    55     2     5    1
    56     2     1    1
    57    85    84    1
    58    86    84    1
    59   115   114    2
    60    55    54    2
    61     5     6    1
    62   116   114   am
    63    99    98    1
    64    99   101    1
    65   100    98    1
    66   114   113    1
    67    84    81    1
    68    53    54    1
    69    53    52    1
    70    92    91    1
    71    54    56   am
    72   110   113    1
    73   110   109    1
    74     6     8    1
    75    90    89    2
    76    81    80    1
    77    81    82    1
    78    59    58    2
    79    48    47    2
    80    52    47   am
    81    62    61    1
    82    62    63    1
    83    58    61   am
    84    58    57    1
    85    56    57    1
    86    91    88    1
    87    91    93    1
    88    47    46    1
    89    57    60    1
    90    80    76   am
    91    83    82    2
    92    88    89    1
    93    88    87    1
    94    49    46    1
    95    49    50    1
    96    63    64    2
    97    63    65   am
    98    78    75    1
    99    78    79    1
   100    76    77    2
   101    76    75    1
   102    46    45    1
   103    50    51    1
   104    75    74    1
   105    65    66    1
   106    45    51    1
   107    74    67   am
   108    67    66    1
   109    67    68    2
   110    66    69    1
   111    73    72    1
   112    69    70    1
   113    72    71    1
   114   107   108    1
   115   107   106    1
   116    70    71    1
   117   108   102    1
   118   106   103    1
   119   102   103    1
   120   103   104    1
   121   104   105    2
