@<TRIPOS>MOLECULE
tmp/4jlxA00.pdb
 87 88 0 0 0
SMALL
GASTEIGER

@<TRIPOS>ATOM
      1  N         -4.6900    4.2390  -11.8910 N.3    72  LEU72      -0.1231
      2  CA        -3.7650    5.0210  -11.0850 C.3    72  LEU72       0.1693
      3  C         -4.3970    5.3590   -9.7630 C.2    72  LEU72       0.2592
      4  O         -5.5630    5.7460   -9.7110 O.2    72  LEU72      -0.2718
      5  CB        -3.4060    6.3220  -11.7960 C.3    72  LEU72       0.0284
      6  CG        -2.6800    6.1370  -13.1140 C.3    72  LEU72       0.0019
      7  CD1       -2.4170    7.4870  -13.7480 C.3    72  LEU72       0.0001
      8  CD2       -1.4000    5.4080  -12.8440 C.3    72  LEU72       0.0001
      9  N         -3.6260    5.2060   -8.6950 N.am   73  GLU73      -0.1966
     10  CA        -4.0640    5.6830   -7.4030 C.3    73  GLU73       0.1733
     11  C         -3.0650    6.7100   -6.9160 C.2    73  GLU73       0.2616
     12  O         -1.8780    6.4160   -6.7970 O.2    73  GLU73      -0.2715
     13  CB        -4.1690    4.5400   -6.4030 C.3    73  GLU73       0.0429
     14  CG        -4.6090    4.9960   -5.0280 C.3    73  GLU73       0.1163
     15  CD        -4.4400    3.9130   -3.9860 C.2    73  GLU73       0.3649
     16  OE1       -4.7020    2.7320   -4.3130 O.co2  73  GLU73      -0.2457
     17  OE2       -4.0340    4.2410   -2.8480 O.co2  73  GLU73      -0.2457
     18  N         -3.5540    7.9170   -6.6520 N.am   74  GLU74      -0.1977
     19  CA        -2.7200    9.0110   -6.1700 C.3    74  GLU74       0.1602
     20  C         -2.0270    8.6470   -4.8690 C.2    74  GLU74       0.2287
     21  O         -2.6760    8.2110   -3.9190 O.2    74  GLU74      -0.2864
     22  CB        -3.5870   10.2420   -5.9240 C.3    74  GLU74       0.0415
     23  CG        -3.1440   11.4810   -6.6650 C.3    74  GLU74       0.1163
     24  CD        -3.8130   12.7270   -6.1270 C.2    74  GLU74       0.3649
     25  OE1       -5.0540   12.7420   -6.0240 O.co2  74  GLU74      -0.2457
     26  OE2       -3.0920   13.6850   -5.7890 O.co2  74  GLU74      -0.2457
     27  N          2.0230    8.2730   -8.1100 N.3    82  TYR82      -0.1241
     28  CA         0.8880    7.3750   -8.2570 C.3    82  TYR82       0.1605
     29  C          1.3060    5.9280   -8.0620 C.2    82  TYR82       0.2264
     30  O          2.4220    5.5350   -8.4280 O.2    82  TYR82      -0.2867
     31  CB         0.2930    7.5030   -9.6600 C.3    82  TYR82       0.0534
     32  CG        -0.4270    8.7960   -9.9300 C.ar   82  TYR82      -0.0201
     33  CD1       -1.7820    8.9230   -9.6510 C.ar   82  TYR82      -0.0009
     34  CD2        0.2420    9.8930  -10.4660 C.ar   82  TYR82      -0.0009
     35  CE1       -2.4550   10.1040   -9.8970 C.ar   82  TYR82       0.0417
     36  CE2       -0.4260   11.0820  -10.7210 C.ar   82  TYR82       0.0417
     37  CZ        -1.7770   11.1790  -10.4330 C.ar   82  TYR82       0.1957
     38  OH        -2.4720   12.3450  -10.6690 O.3    82  TYR82      -0.2866
     39  N         -7.0550    8.9200  -20.9310 N.3   160  SER160     -0.1202
     40  CA        -7.0860   10.3520  -20.6410 C.3   160  SER160      0.2020
     41  C         -6.1120   10.6800  -19.5120 C.2   160  SER160      0.2619
     42  O         -5.8470    9.8400  -18.6510 O.2   160  SER160     -0.2717
     43  CB        -8.4970   10.8090  -20.2620 C.3   160  SER160      0.2103
     44  OG        -9.2350   11.1970  -21.4110 O.3   160  SER160     -0.2182
     45  N         -5.5660   11.8910  -19.5330 N.am  161  TRP161     -0.1962
     46  CA        -4.5940   12.3020  -18.5190 C.3   161  TRP161      0.1756
     47  C         -5.2730   12.2930  -17.1600 C.2   161  TRP161      0.2461
     48  O         -6.4820   12.5260  -17.0820 O.2   161  TRP161     -0.2730
     49  CB        -4.0880   13.7120  -18.8180 C.3   161  TRP161      0.0590
     50  CG        -3.2060   13.8340  -20.0550 C.ar  161  TRP161      0.0006
     51  CD1       -2.9920   12.8890  -21.0250 C.ar  161  TRP161      0.0946
     52  CD2       -2.4310   14.9840  -20.4340 C.ar  161  TRP161      0.0152
     53  NE1       -2.1260   13.3860  -21.9860 N.ar  161  TRP161     -0.2442
     54  CE2       -1.7770   14.6650  -21.6500 C.ar  161  TRP161      0.0810
     55  CE3       -2.2320   16.2480  -19.8640 C.ar  161  TRP161      0.0012
     56  CZ2       -0.9300   15.5700  -22.2970 C.ar  161  TRP161      0.0191
     57  CZ3       -1.3890   17.1440  -20.5120 C.ar  161  TRP161      0.0001
     58  CH2       -0.7500   16.7980  -21.7180 C.ar  161  TRP161      0.0015
     59  N         -4.5030   12.0430  -16.0840 N.am  162  PRO162     -0.2716
     60  CA        -5.0720   11.9800  -14.7240 C.3   162  PRO162      0.1536
     61  C         -5.7150   13.3030  -14.2950 C.2   162  PRO162      0.2598
     62  O         -5.3230   14.3720  -14.7910 O.2   162  PRO162     -0.2715
     63  CB        -3.8560   11.6950  -13.8340 C.3   162  PRO162      0.0310
     64  CG        -2.7730   11.2180  -14.7620 C.3   162  PRO162      0.0237
     65  CD        -3.0390   11.8670  -16.0850 C.3   162  PRO162      0.0939
     66  N         -6.6800   13.2210  -13.3770 N.am  163  ALA163     -0.1964
     67  CA        -7.4470   14.3770  -12.9040 C.3   163  ALA163      0.1728
     68  C         -6.5790   15.5380  -12.4350 C.2   163  ALA163      0.2616
     69  O         -6.9700   16.7010  -12.5660 O.2   163  ALA163     -0.2715
     70  CB        -8.3980   13.9560  -11.7730 C.3   163  ALA163      0.0334
     71  N         -5.4180   15.2200  -11.8700 N.am  164  SER164     -0.1950
     72  CA        -4.5400   16.2410  -11.2890 C.3   164  SER164      0.1924
     73  C         -4.0360   17.1990  -12.3700 C.2   164  SER164      0.2314
     74  O         -3.5930   18.3150  -12.0730 O.2   164  SER164     -0.2863
     75  CB        -3.3410   15.5830  -10.6230 C.3   164  SER164      0.2116
     76  OG        -2.4970   15.0040  -11.6130 O.3   164  SER164     -0.2180
     77  N          0.2580    9.6950  -22.0130 N.3   188  PHE188     -0.1241
     78  CA         1.1630   10.2010  -20.9880 C.3   188  PHE188      0.1605
     79  C          2.0640    9.0830  -20.5120 C.2   188  PHE188      0.2264
     80  O          1.7990    7.9130  -20.7790 O.2   188  PHE188     -0.2867
     81  CB         0.4010   10.8370  -19.8240 C.3   188  PHE188      0.0534
     82  CG        -0.4520    9.8780  -19.0490 C.ar  188  PHE188     -0.0203
     83  CD1        0.0580    9.2080  -17.9430 C.ar  188  PHE188     -0.0042
     84  CD2       -1.7790    9.6670  -19.4070 C.ar  188  PHE188     -0.0042
     85  CE1       -0.7400    8.3310  -17.2140 C.ar  188  PHE188     -0.0003
     86  CE2       -2.5840    8.7920  -18.6860 C.ar  188  PHE188     -0.0003
     87  CZ        -2.0610    8.1270  -17.5840 C.ar  188  PHE188     -0.0000
@<TRIPOS>BOND
     1    56    58   ar
     2    56    54   ar
     3    77    78    1
     4    53    54   ar
     5    53    51   ar
     6    58    57   ar
     7    54    52   ar
     8    44    43    1
     9    51    50   ar
    10    78    79    1
    11    78    81    1
    12    39    40    1
    13    80    79    2
    14    40    43    1
    15    40    41    1
    16    57    55   ar
    17    52    50   ar
    18    52    55   ar
    19    50    49    1
    20    81    82    1
    21    45    41   am
    22    45    46    1
    23    41    42    2
    24    84    82   ar
    25    84    86   ar
    26    82    83   ar
    27    49    46    1
    28    86    87   ar
    29    46    47    1
    30    83    85   ar
    31    87    85   ar
    32    47    48    2
    33    47    59   am
    34    65    59    1
    35    65    64    1
    36    59    60    1
    37    62    61    2
    38    64    63    1
    39    60    61    1
    40    60    63    1
    41    61    66   am
    42     7     6    1
    43    66    67    1
    44     6     8    1
    45     6     5    1
    46    67    68    1
    47    67    70    1
    48    69    68    2
    49    68    71   am
    50    73    74    2
    51    73    72    1
    52     1     2    1
    53    71    72    1
    54     5     2    1
    55    76    75    1
    56    72    75    1
    57     2     3    1
    58    36    34   ar
    59    36    37   ar
    60    38    37    1
    61    34    32   ar
    62    37    35   ar
    63    32    31    1
    64    32    33   ar
    65    35    33   ar
    66     3     4    2
    67     3     9   am
    68    31    28    1
    69     9    10    1
    70    30    29    2
    71    28    27    1
    72    28    29    1
    73    10    11    1
    74    10    13    1
    75    11    12    2
    76    11    18   am
    77    23    24    1
    78    23    22    1
    79    18    19    1
    80    13    14    1
    81    19    22    1
    82    19    20    1
    83    24    25   ar
    84    24    26   ar
    85    14    15    1
    86    20    21    2
    87    16    15   ar
    88    15    17   ar
