@<TRIPOS>MOLECULE
tmp/4jlxA02.pdb
 93 89 0 0 0
SMALL
GASTEIGER

@<TRIPOS>ATOM
      1  N         -2.1310   12.0370   -1.8070 N.3    77  ASN77      -0.1225
      2  CA        -2.7660   13.2310   -2.3230 C.3    77  ASN77       0.1785
      3  C         -1.8130   14.1120   -3.0980 C.2    77  ASN77       0.2598
      4  O         -2.0670   15.2660   -3.3250 O.2    77  ASN77      -0.2718
      5  CB        -3.4180   14.0030   -1.1840 C.3    77  ASN77       0.1169
      6  CG        -4.3810   13.1560   -0.4020 C.2    77  ASN77       0.2627
      7  OD1       -5.5100   12.9800   -0.8040 O.2    77  ASN77      -0.2716
      8  ND2       -3.9420   12.6360    0.7180 N.am   77  ASN77      -0.0877
      9  N         -0.6920   13.5400   -3.4760 N.am   78  SER78      -0.1938
     10  CA         0.2760   14.2330   -4.3060 C.3    78  SER78       0.2055
     11  C         -0.1490   14.0330   -5.7570 C.2    78  SER78       0.2644
     12  O         -0.3480   12.9000   -6.2130 O.2    78  SER78      -0.2714
     13  CB         1.6850   13.6780   -4.0740 C.3    78  SER78       0.2130
     14  OG         1.9330   12.5200   -4.8620 O.3    78  SER78      -0.2179
     15  N         -0.3150   15.1310   -6.4810 N.am   79  GLY79      -0.1939
     16  CA        -0.7700   15.0510   -7.8480 C.3    79  GLY79       0.2014
     17  C          0.2220   14.3910   -8.7930 C.2    79  GLY79       0.2638
     18  O         -0.1340   14.0300   -9.9180 O.2    79  GLY79      -0.2714
     19  N          1.4660   14.2310   -8.3550 N.am   80  ALA80      -0.1977
     20  CA         2.5080   13.7400   -9.2550 C.3    80  ALA80       0.1597
     21  C          2.8100   12.2540   -9.0820 C.2    80  ALA80       0.2287
     22  O          3.0860   11.5610  -10.0710 O.2    80  ALA80      -0.2864
     23  CB         3.8020   14.5710   -9.1110 C.3    80  ALA80       0.0319
     24  N          8.3560   31.2430   -2.8410 N.3   309  GLU309     -0.1231
     25  CA         8.3510   29.7800   -2.7450 C.3   309  GLU309      0.1699
     26  C          7.1870   29.1700   -3.5200 C.2   309  GLU309      0.2592
     27  O          6.4810   28.2810   -3.0220 O.2   309  GLU309     -0.2718
     28  CB         8.2460   29.3420   -1.2810 C.3   309  GLU309      0.0402
     29  CG         9.4900   29.6380   -0.4800 C.3   309  GLU309      0.1161
     30  CD         9.3630   29.1660    0.9680 C.2   309  GLU309      0.3649
     31  OE1        8.5260   29.7460    1.6850 O.co2 309  GLU309     -0.2457
     32  OE2       10.0850   28.2240    1.3780 O.co2 309  GLU309     -0.2457
     33  N          6.9550   29.6800   -4.7210 N.am  310  GLN310     -0.1979
     34  CA         5.8530   29.1830   -5.5410 C.3   310  GLN310      0.1601
     35  C          6.3280   28.9360   -6.9790 C.2   310  GLN310      0.2287
     36  O          6.7380   29.8740   -7.6780 O.2   310  GLN310     -0.2864
     37  CB         4.6910   30.1760   -5.5120 C.3   310  GLN310      0.0394
     38  CG         3.4180   29.6840   -6.1840 C.3   310  GLN310      0.0908
     39  CD         3.0080   28.3030   -5.7040 C.2   310  GLN310      0.2608
     40  OE1        3.0970   27.9970   -4.5150 O.2   310  GLN310     -0.2717
     41  NE2        2.5730   27.4550   -6.6320 N.am  310  GLN310     -0.0878
     42  N         -1.3710   21.6590   -8.9350 N.3   318  GLY318     -0.1210
     43  CA        -1.3940   21.3780   -7.5050 C.3   318  GLY318      0.1956
     44  C         -0.0180   21.0280   -6.9650 C.2   318  GLY318      0.2612
     45  O          0.1670   20.9690   -5.7490 O.2   318  GLY318     -0.2717
     46  N          0.9510   20.7970   -7.8570 N.am  319  VAL319     -0.1965
     47  CA         2.3060   20.4250   -7.4320 C.3   319  VAL319      0.1727
     48  C          3.2430   21.6370   -7.4350 C.2   319  VAL319      0.2616
     49  O          3.5430   22.2050   -8.4860 O.2   319  VAL319     -0.2715
     50  CB         2.9070   19.2940   -8.2990 C.3   319  VAL319      0.0290
     51  CG1        4.3510   19.0600   -7.9400 C.3   319  VAL319      0.0023
     52  CG2        2.1170   17.9990   -8.1330 C.3   319  VAL319      0.0023
     53  N          3.6920   22.0360   -6.2480 N.am  320  ASN320     -0.1972
     54  CA         4.5620   23.2040   -6.0880 C.3   320  ASN320      0.1688
     55  C          6.0040   22.7560   -5.9920 C.2   320  ASN320      0.2292
     56  O          6.4430   22.2600   -4.9390 O.2   320  ASN320     -0.2864
     57  CB         4.1760   23.9920   -4.8190 C.3   320  ASN320      0.1181
     58  CG         5.0700   25.2060   -4.5730 C.2   320  ASN320      0.2629
     59  OD1        5.8900   25.5850   -5.4280 O.2   320  ASN320     -0.2716
     60  ND2        4.9020   25.8370   -3.4050 N.am  320  ASN320     -0.0877
     61  N          7.9290   24.1840   -2.9950 N.3   323  SER323     -0.1202
     62  CA         7.3830   24.0310   -1.6400 C.3   323  SER323      0.2020
     63  C          8.4820   23.8060   -0.6050 C.2   323  SER323      0.2619
     64  O          9.5030   23.1920   -0.8910 O.2   323  SER323     -0.2717
     65  CB         6.4060   22.8600   -1.5710 C.3   323  SER323      0.2103
     66  OG         7.1080   21.6710   -1.2680 O.3   323  SER323     -0.2182
     67  N          8.2730   24.2850    0.6160 N.am  324  ARG324     -0.1965
     68  CA         9.2950   24.1070    1.6310 C.3   324  ARG324      0.1729
     69  C          9.4800   22.6280    2.0020 C.2   324  ARG324      0.2616
     70  O         10.4970   22.2510    2.5560 O.2   324  ARG324     -0.2715
     71  CB         9.0460   24.9880    2.8620 C.3   324  ARG324      0.0348
     72  CG        10.3570   25.3570    3.5280 C.3   324  ARG324      0.0492
     73  CD        10.1780   26.3880    4.6080 C.3   324  ARG324      0.2205
     74  NE         9.8170   27.7050    4.0980 N.pl3 324  ARG324     -0.0865
     75  CZ         9.3750   28.6830    4.8780 C.cat 324  ARG324      0.5346
     76  NH1        9.2500   28.4670    6.1840 N.pl3 324  ARG324      0.1354
     77  NH2        9.0460   29.8570    4.3600 N.pl3 324  ARG324      0.1354
     78  N          8.5030   21.7950    1.6630 N.am  325  ASP325     -0.1957
     79  CA         8.6930   20.3450    1.7340 C.3   325  ASP325      0.1840
     80  C          9.8930   19.8620    0.9060 C.2   325  ASP325      0.2621
     81  O         10.6130   18.9610    1.3300 O.2   325  ASP325     -0.2715
     82  CB         7.4280   19.6110    1.2630 C.3   325  ASP325      0.1450
     83  CG         6.4060   19.4310    2.3700 C.2   325  ASP325      0.3671
     84  OD1        6.7030   18.7060    3.3430 O.co2 325  ASP325     -0.2456
     85  OD2        5.3000   19.9990    2.2570 O.co2 325  ASP325     -0.2456
     86  N         10.1060   20.4650   -0.2680 N.am  326  LEU326     -0.1977
     87  CA        11.1130   19.9690   -1.2190 C.3   326  LEU326      0.1596
     88  C         12.4600   20.6980   -1.1640 C.2   326  LEU326      0.2287
     89  O         13.5190   20.0920   -1.3310 O.2   326  LEU326     -0.2864
     90  CB        10.5670   20.0470   -2.6570 C.3   326  LEU326      0.0297
     91  CG         9.2720   19.2880   -2.9700 C.3   326  LEU326      0.0022
     92  CD1        8.7200   19.7080   -4.3300 C.3   326  LEU326      0.0001
     93  CD2        9.4980   17.7820   -2.9410 C.3   326  LEU326      0.0001
@<TRIPOS>BOND
     1    22    21    2
     2    18    17    2
     3    20    23    1
     4    20    21    1
     5    20    19    1
     6    42    43    1
     7    17    19   am
     8    17    16    1
     9    49    48    2
    10    50    52    1
    11    50    51    1
    12    50    47    1
    13    46    47    1
    14    46    44   am
    15    16    15    1
    16    36    35    2
    17    43    44    1
    18    48    47    1
    19    48    53   am
    20    35    34    1
    21    44    45    2
    22    41    39   am
    23    15    11   am
    24    53    54    1
    25    12    11    2
    26    38    39    1
    27    38    37    1
    28    54    55    1
    29    54    57    1
    30    55    56    2
    31    11    10    1
    32    39    40    2
    33    34    37    1
    34    34    33    1
    35    59    58    2
    36    14    13    1
    37    57    58    1
    38    33    26   am
    39    58    60   am
    40    92    91    1
    41    10    13    1
    42    10     9    1
    43    26    27    2
    44    26    25    1
    45     9     3   am
    46     4     3    2
    47     3     2    1
    48    61    62    1
    49    91    93    1
    50    91    90    1
    51    24    25    1
    52    25    28    1
    53    90    87    1
    54     2     1    1
    55     2     5    1
    56    62    65    1
    57    62    63    1
    58    65    66    1
    59    89    88    2
    60    28    29    1
    61    87    88    1
    62    87    86    1
    63     5     6    1
    64    64    63    2
    65     7     6    2
    66    63    67   am
    67    29    30    1
    68     6     8   am
    69    86    80   am
    70    67    68    1
    71    80    81    2
    72    80    79    1
    73    30    32   ar
    74    30    31   ar
    75    82    79    1
    76    82    83    1
    77    68    69    1
    78    68    71    1
    79    78    79    1
    80    78    69   am
    81    69    70    2
    82    85    83   ar
    83    83    84   ar
    84    71    72    1
    85    72    73    1
    86    74    73    1
    87    74    75    2
    88    77    75    1
    89    75    76    1
