@<TRIPOS>MOLECULE
tmp/4jlzA00.pdb
 170 158 0 0 0
SMALL
GASTEIGER

@<TRIPOS>ATOM
      1  N        -24.0040  -16.4590    3.7130 N.3    53  GLY53      -0.1210
      2  CA       -24.6050  -15.6670    4.7660 C.3    53  GLY53       0.1956
      3  C        -25.6420  -16.4440    5.5640 C.2    53  GLY53       0.2612
      4  O        -25.9980  -17.5800    5.2210 O.2    53  GLY53      -0.2717
      5  N        -26.1490  -15.8090    6.6170 N.am   54  SER54      -0.1952
      6  CA       -27.0080  -16.4670    7.5920 C.3    54  SER54       0.1924
      7  C        -28.2630  -17.1210    6.9640 C.2    54  SER54       0.2314
      8  O        -28.6390  -18.2450    7.3330 O.2    54  SER54      -0.2863
      9  CB       -27.3720  -15.4810    8.7250 C.3    54  SER54       0.2116
     10  OG       -28.1940  -14.4030    8.2650 O.3    54  SER54      -0.2180
     11  N        -27.1730  -20.3300    5.3190 N.3    57  GLU57      -0.1245
     12  CA       -26.6430  -21.2310    6.3260 C.3    57  GLU57       0.1567
     13  C        -27.7960  -21.8130    7.1390 C.2    57  GLU57       0.2260
     14  O        -27.5900  -22.7080    7.9680 O.2    57  GLU57      -0.2867
     15  CB       -25.6720  -20.4840    7.2660 C.3    57  GLU57       0.0388
     16  CG       -24.3790  -19.9930    6.6320 C.3    57  GLU57       0.1160
     17  CD       -23.6690  -18.9130    7.4680 C.2    57  GLU57       0.3649
     18  OE1      -24.2940  -18.3380    8.3910 O.co2  57  GLU57      -0.2457
     19  OE2      -22.4840  -18.6210    7.1960 O.co2  57  GLU57      -0.2457
     20  N        -30.4550  -17.7050    9.8690 N.3    60  LYS60      -0.1245
     21  CA       -31.0560  -16.3860    9.9880 C.3    60  LYS60       0.1561
     22  C        -32.3520  -16.5420   10.7640 C.2    60  LYS60       0.2260
     23  O        -33.3340  -17.0580   10.2370 O.2    60  LYS60      -0.2867
     24  CB       -31.3500  -15.7540    8.6320 C.3    60  LYS60       0.0271
     25  CG       -31.8330  -14.3200    8.7830 C.3    60  LYS60       0.0035
     26  CD       -32.1100  -13.6670    7.4390 C.3    60  LYS60       0.0206
     27  CE       -32.8570  -12.3330    7.5940 C.3    60  LYS60       0.1093
     28  NZ       -32.0780  -11.2840    8.3630 N.3    60  LYS60      -0.1314
     29  N        -28.7630   -9.1910    3.4240 N.3    68  ASP68      -0.1239
     30  CA       -27.6180   -8.7650    2.6470 C.3    68  ASP68       0.1674
     31  C        -27.3830   -9.8060    1.5760 C.2    68  ASP68       0.2266
     32  O        -27.6650  -10.9940    1.7590 O.2    68  ASP68      -0.2867
     33  CB       -26.3710   -8.5120    3.5050 C.3    68  ASP68       0.1410
     34  CG       -26.0700   -9.6440    4.4630 C.2    68  ASP68       0.3668
     35  OD1      -26.4120  -10.8030    4.1590 O.co2  68  ASP68      -0.2456
     36  OD2      -25.4860   -9.3700    5.5320 O.co2  68  ASP68      -0.2456
     37  N        -24.5750  -10.8890   -1.7130 N.3    70  MET70      -0.1245
     38  CA       -23.2320  -10.7020   -2.2530 C.3    70  MET70       0.1570
     39  C        -23.1600  -10.9540   -3.7690 C.2    70  MET70       0.2261
     40  O        -23.5510  -12.0220   -4.2540 O.2    70  MET70      -0.2867
     41  CB       -22.2470  -11.6010   -1.5050 C.3    70  MET70       0.0387
     42  CG       -22.2070  -11.3420    0.0020 C.3    70  MET70       0.0595
     43  SD       -20.7380  -12.0180    0.8070 S.3    70  MET70      -0.1393
     44  CE       -19.4560  -11.0890   -0.0130 C.3    70  MET70       0.0692
     45  N        -23.6420   -6.1520   -1.6410 N.3   164  ILE164     -0.1245
     46  CA       -22.2160   -6.0660   -1.3680 C.3   164  ILE164      0.1561
     47  C        -21.4520   -6.6610   -2.5400 C.2   164  ILE164      0.2260
     48  O        -21.6440   -7.8170   -2.8970 O.2   164  ILE164     -0.2867
     49  CB       -21.8700   -6.8010   -0.0610 C.3   164  ILE164      0.0252
     50  CG1      -22.5270   -6.0900    1.1300 C.3   164  ILE164      0.0019
     51  CG2      -20.3670   -6.8600    0.1550 C.3   164  ILE164      0.0019
     52  CD1      -22.9700   -7.0290    2.1950 C.3   164  ILE164      0.0001
     53  N        -13.7950   -2.2830    2.4020 N.3   205  LYS205     -0.1245
     54  CA       -13.8550   -1.9300    3.8070 C.3   205  LYS205      0.1561
     55  C        -12.8770   -0.8050    4.1120 C.2   205  LYS205      0.2260
     56  O        -11.6930   -0.9260    3.8290 O.2   205  LYS205     -0.2867
     57  CB       -13.5430   -3.1680    4.6540 C.3   205  LYS205      0.0271
     58  CG       -13.7490   -3.0220    6.1450 C.3   205  LYS205      0.0035
     59  CD       -15.1440   -2.5470    6.4780 C.3   205  LYS205      0.0206
     60  CE       -15.4830   -2.8770    7.9280 C.3   205  LYS205      0.1093
     61  NZ       -14.4410   -2.4310    8.8910 N.3   205  LYS205     -0.1314
     62  N        -11.2480   -5.7970    2.6330 N.3   219  ARG219     -0.1231
     63  CA       -11.0440   -6.8670    3.6230 C.3   219  ARG219      0.1694
     64  C        -11.3170   -8.2320    3.0040 C.2   219  ARG219      0.2592
     65  O        -12.0290   -8.3210    2.0140 O.2   219  ARG219     -0.2718
     66  CB       -11.9110   -6.6580    4.8700 C.3   219  ARG219      0.0321
     67  CG       -13.3770   -7.0330    4.6540 C.3   219  ARG219      0.0489
     68  CD       -14.1490   -7.1400    5.9590 C.3   219  ARG219      0.2205
     69  NE       -15.5930   -7.2240    5.7290 N.pl3 219  ARG219     -0.0865
     70  CZ       -16.2520   -8.3370    5.4180 C.cat 219  ARG219      0.5346
     71  NH1      -15.6150   -9.4930    5.3090 N.pl3 219  ARG219      0.1354
     72  NH2      -17.5550   -8.2940    5.2240 N.pl3 219  ARG219      0.1354
     73  N        -10.7310   -9.2810    3.5790 N.am  220  LEU220     -0.1966
     74  CA       -10.9780  -10.6480    3.1300 C.3   220  LEU220      0.1728
     75  C        -12.3840  -11.0970    3.5400 C.2   220  LEU220      0.2617
     76  O        -12.9140  -10.6780    4.5700 O.2   220  LEU220     -0.2715
     77  CB        -9.9480  -11.6160    3.7210 C.3   220  LEU220      0.0311
     78  CG        -8.4710  -11.3140    3.3980 C.3   220  LEU220      0.0022
     79  CD1       -7.5120  -12.2320    4.1490 C.3   220  LEU220      0.0001
     80  CD2       -8.2260  -11.4000    1.8990 C.3   220  LEU220      0.0001
     81  N        -12.9940  -11.9300    2.7120 N.am  221  SER221     -0.1936
     82  CA       -14.2470  -12.5750    3.0640 C.3   221  SER221      0.2055
     83  C        -14.1530  -14.0710    2.7910 C.2   221  SER221      0.2643
     84  O        -13.7340  -14.5050    1.7040 O.2   221  SER221     -0.2714
     85  CB       -15.4150  -11.9780    2.2780 C.3   221  SER221      0.2130
     86  OG       -16.6210  -12.6780    2.5690 O.3   221  SER221     -0.2179
     87  N        -14.5760  -14.8560    3.7740 N.am  222  PHE222     -0.1959
     88  CA       -14.5800  -16.3170    3.6470 C.3   222  PHE222      0.1771
     89  C        -15.9720  -16.8750    3.9040 C.2   222  PHE222      0.2620
     90  O        -16.1300  -18.0120    4.3350 O.2   222  PHE222     -0.2715
     91  CB       -13.5450  -16.9480    4.6000 C.3   222  PHE222      0.0574
     92  CG       -12.1280  -16.5560    4.2810 C.ar  222  PHE222     -0.0200
     93  CD1      -11.4430  -17.1790    3.2350 C.ar  222  PHE222     -0.0042
     94  CD2      -11.4910  -15.5500    4.9970 C.ar  222  PHE222     -0.0042
     95  CE1      -10.1340  -16.8090    2.9170 C.ar  222  PHE222     -0.0003
     96  CE2      -10.1660  -15.1750    4.6910 C.ar  222  PHE222     -0.0003
     97  CZ        -9.4920  -15.8070    3.6450 C.ar  222  PHE222     -0.0000
     98  N        -16.9800  -16.0690    3.5930 N.am  223  SER223     -0.1950
     99  CA       -18.3780  -16.4190    3.8720 C.3   223  SER223      0.1924
    100  C        -18.8060  -17.7380    3.2040 C.2   223  SER223      0.2314
    101  O        -19.7050  -18.4160    3.6940 O.2   223  SER223     -0.2863
    102  CB       -19.3140  -15.2780    3.4960 C.3   223  SER223      0.2116
    103  OG       -19.4190  -15.1560    2.0960 O.3   223  SER223     -0.2180
    104  N        -17.4130  -20.4150    5.6050 N.3   226  GLU226     -0.1245
    105  CA       -18.2820  -20.4400    6.7790 C.3   226  GLU226      0.1567
    106  C        -19.5620  -21.2150    6.4930 C.2   226  GLU226      0.2260
    107  O        -20.0010  -22.0070    7.3160 O.2   226  GLU226     -0.2867
    108  CB       -18.6020  -19.0240    7.2500 C.3   226  GLU226      0.0388
    109  CG       -17.3680  -18.2340    7.6460 C.3   226  GLU226      0.1160
    110  CD       -17.6790  -16.7590    7.8660 C.2   226  GLU226      0.3649
    111  OE1      -18.8760  -16.4270    8.0060 O.co2 226  GLU226     -0.2457
    112  OE2      -16.7340  -15.9330    7.8710 O.co2 226  GLU226     -0.2457
    113  N        -26.9930  -16.6980   18.9970 N.3   257  LYS257     -0.1245
    114  CA       -27.4790  -15.5050   18.2960 C.3   257  LYS257      0.1561
    115  C        -28.7210  -14.9460   18.9880 C.2   257  LYS257      0.2260
    116  O        -28.8340  -13.7400   19.2080 O.2   257  LYS257     -0.2867
    117  CB       -27.8360  -15.8210   16.8520 C.3   257  LYS257      0.0271
    118  CG       -26.6500  -16.0850   15.9290 C.3   257  LYS257      0.0035
    119  CD       -27.2040  -16.1530   14.5230 C.3   257  LYS257      0.0206
    120  CE       -26.1690  -16.3560   13.4610 C.3   257  LYS257      0.1093
    121  NZ       -26.8280  -16.1040   12.1400 N.3   257  LYS257     -0.1314
    122  N        -22.2750   -8.0550   17.6150 N.3   277  CYS277     -0.1221
    123  CA       -23.1760   -8.5230   16.5640 C.3   277  CYS277      0.1808
    124  C        -23.0800  -10.0360   16.4260 C.2   277  CYS277      0.2602
    125  O        -22.2530  -10.6750   17.0790 O.2   277  CYS277     -0.2717
    126  CB       -22.8760   -7.8230   15.2360 C.3   277  CYS277      0.0970
    127  SG       -21.2140   -8.1640   14.6230 S.3   277  CYS277     -0.0800
    128  N        -23.9170  -10.6060   15.5690 N.am  278  SER278     -0.1938
    129  CA       -23.9700  -12.0570   15.4220 C.3   278  SER278      0.2055
    130  C        -22.6530  -12.6530   14.9160 C.2   278  SER278      0.2643
    131  O        -22.3860  -13.8370   15.1330 O.2   278  SER278     -0.2714
    132  CB       -25.1110  -12.4640   14.4820 C.3   278  SER278      0.2130
    133  OG       -24.8390  -12.0170   13.1610 O.3   278  SER278     -0.2179
    134  N        -21.8430  -11.8440   14.2320 N.am  279  TYR279     -0.1973
    135  CA       -20.5650  -12.3340   13.7300 C.3   279  TYR279      0.1639
    136  C        -19.5720  -12.6370   14.8690 C.2   279  TYR279      0.2290
    137  O        -18.7100  -13.5120   14.7280 O.2   279  TYR279     -0.2864
    138  CB       -19.9530  -11.3880   12.6810 C.3   279  TYR279      0.0560
    139  CG       -18.8450  -12.0690   11.9310 C.ar  279  TYR279     -0.0198
    140  CD1      -19.1260  -13.0360   10.9620 C.ar  279  TYR279     -0.0009
    141  CD2      -17.5100  -11.8160   12.2380 C.ar  279  TYR279     -0.0009
    142  CE1      -18.0940  -13.7120   10.2850 C.ar  279  TYR279      0.0417
    143  CE2      -16.4730  -12.4900   11.5710 C.ar  279  TYR279      0.0417
    144  CZ       -16.7760  -13.4310   10.5930 C.ar  279  TYR279      0.1957
    145  OH       -15.7540  -14.0940    9.9360 O.3   279  TYR279     -0.2866
    146  N        -20.8200  -16.1040   16.1560 N.3   282  LYS282     -0.1245
    147  CA       -20.5140  -17.0880   15.1210 C.3   282  LYS282      0.1561
    148  C        -19.0200  -17.4760   15.2010 C.2   282  LYS282      0.2260
    149  O        -18.6640  -18.6550   15.1630 O.2   282  LYS282     -0.2867
    150  CB       -20.8440  -16.5050   13.7520 C.3   282  LYS282      0.0271
    151  CG       -20.8700  -17.4880   12.5900 C.3   282  LYS282      0.0035
    152  CD       -21.0970  -16.7230   11.2840 C.3   282  LYS282      0.0206
    153  CE       -21.2800  -17.6020   10.0600 C.3   282  LYS282      0.1093
    154  NZ       -21.4770  -16.7360    8.8290 N.3   282  LYS282     -0.1314
    155  N        -10.4040  -13.7280   14.8880 N.3   325  ASN325     -0.1240
    156  CA       -11.0630  -14.0590   13.6340 C.3   325  ASN325      0.1653
    157  C        -10.6440  -15.4850   13.2660 C.2   325  ASN325      0.2266
    158  O         -9.4540  -15.8190   13.3350 O.2   325  ASN325     -0.2867
    159  CB       -10.6170  -13.0730   12.5380 C.3   325  ASN325      0.1155
    160  CG       -11.2850  -13.3350   11.2100 C.2   325  ASN325      0.2627
    161  OD1      -11.0900  -14.3880   10.5980 O.2   325  ASN325     -0.2716
    162  ND2      -12.0350  -12.3620   10.7280 N.am  325  ASN325     -0.0877
    163  N        -11.1830   -9.5570   17.2230 N.3   333  LEU333     -0.1245
    164  CA       -12.4740   -8.8810   17.1210 C.3   333  LEU333      0.1561
    165  C        -12.8120   -8.1570   18.4290 C.2   333  LEU333      0.2260
    166  O        -13.6000   -7.2140   18.4390 O.2   333  LEU333     -0.2867
    167  CB       -13.5910   -9.8630   16.7540 C.3   333  LEU333      0.0270
    168  CG       -13.3830  -10.7940   15.5520 C.3   333  LEU333      0.0019
    169  CD1      -14.6260  -11.6690   15.3490 C.3   333  LEU333      0.0001
    170  CD2      -13.0470  -10.0120   14.2810 C.3   333  LEU333      0.0001
@<TRIPOS>BOND
     1    40    39    2
     2    39    38    1
     3    48    47    2
     4    47    46    1
     5    38    37    1
     6    38    41    1
     7    45    46    1
     8    41    42    1
     9    46    49    1
    10    49    51    1
    11    49    50    1
    12    44    43    1
    13    42    43    1
    14    50    52    1
    15    31    32    2
    16    31    30    1
    17    84    83    2
    18    80    78    1
    19    65    64    2
    20   103   102    1
    21    85    86    1
    22    85    82    1
    23    53    54    1
    24    62    63    1
    25    30    29    1
    26    30    33    1
    27    81    82    1
    28    81    75   am
    29    83    82    1
    30    83    87   am
    31    95    93   ar
    32    95    97   ar
    33    64    73   am
    34    64    63    1
    35    74    75    1
    36    74    73    1
    37    74    77    1
    38   100   101    2
    39   100    99    1
    40    93    92   ar
    41    78    77    1
    42    78    79    1
    43   102    99    1
    44    33    34    1
    45    75    76    2
    46    98    99    1
    47    98    89   am
    48    63    66    1
    49    97    96   ar
    50    88    87    1
    51    88    89    1
    52    88    91    1
    53     1     2    1
    54    54    55    1
    55    54    57    1
    56    56    55    2
    57    89    90    2
    58    35    34   ar
    59    92    91    1
    60    92    94   ar
    61    34    36   ar
    62    57    58    1
    63    67    66    1
    64    67    68    1
    65    96    94   ar
    66     2     3    1
    67     4     3    2
    68    72    70    1
    69    71    70    1
    70    11    12    1
    71    70    69    2
    72     3     5   am
    73   104   105    1
    74    69    68    1
    75    58    59    1
    76    12    13    1
    77    12    15    1
    78    59    60    1
    79   106   105    1
    80   106   107    2
    81     5     6    1
    82    16    15    1
    83    16    17    1
    84   105   108    1
    85     7     8    2
    86     7     6    1
    87    13    14    2
    88    19    17   ar
    89   108   109    1
    90    26    27    1
    91    26    25    1
    92    17    18   ar
    93     6     9    1
    94    27    28    1
    95   109   110    1
    96   110   112   ar
    97   110   111   ar
    98    60    61    1
    99    10     9    1
   100    24    25    1
   101    24    21    1
   102   154   153    1
   103    20    21    1
   104   145   144    1
   105    21    22    1
   106   153   152    1
   107    23    22    2
   108   142   144   ar
   109   142   140   ar
   110   144   143   ar
   111   161   160    2
   112   162   160   am
   113   140   139   ar
   114   160   159    1
   115   152   151    1
   116   143   141   ar
   117   139   141   ar
   118   139   138    1
   119   121   120    1
   120   159   156    1
   121   151   150    1
   122   138   135    1
   123   133   132    1
   124   157   158    2
   125   157   156    1
   126   120   119    1
   127   156   155    1
   128   135   134    1
   129   135   136    1
   130   150   147    1
   131   134   130   am
   132   170   168    1
   133   132   129    1
   134   119   118    1
   135   127   126    1
   136   137   136    2
   137   130   131    2
   138   130   129    1
   139   147   148    1
   140   147   146    1
   141   149   148    2
   142   126   123    1
   143   169   168    1
   144   129   128    1
   145   168   167    1
   146   128   124   am
   147   118   117    1
   148   124   123    1
   149   124   125    2
   150   123   122    1
   151   167   164    1
   152   117   114    1
   153   164   163    1
   154   164   165    1
   155   114   115    1
   156   114   113    1
   157   165   166    2
   158   115   116    2
