@<TRIPOS>MOLECULE
tmp/4jm3B00.pdb
 168 157 0 0 0
SMALL
GASTEIGER

@<TRIPOS>ATOM
      1  N         21.4800   43.1260  -19.6580 N.3    34  PHE34      -0.1241
      2  CA        22.8100   43.6140  -19.3100 C.3    34  PHE34       0.1605
      3  C         23.5260   44.2020  -20.5300 C.2    34  PHE34       0.2264
      4  O         23.5080   43.6340  -21.6280 O.2    34  PHE34      -0.2867
      5  CB        23.6450   42.4810  -18.6900 C.3    34  PHE34       0.0534
      6  CG        23.0740   41.9820  -17.3960 C.ar   34  PHE34      -0.0203
      7  CD1       23.4070   42.5900  -16.2050 C.ar   34  PHE34      -0.0042
      8  CD2       22.1430   40.9490  -17.3870 C.ar   34  PHE34      -0.0042
      9  CE1       22.8280   42.1590  -15.0140 C.ar   34  PHE34      -0.0003
     10  CE2       21.5750   40.5250  -16.2100 C.ar   34  PHE34      -0.0003
     11  CZ        21.9300   41.1190  -15.0250 C.ar   34  PHE34      -0.0000
     12  N         28.8240   47.2480  -15.6040 N.3    74  TRP74      -0.1241
     13  CA        27.5340   46.9420  -16.2160 C.3    74  TRP74       0.1605
     14  C         26.5020   48.0320  -15.9990 C.2    74  TRP74       0.2264
     15  O         26.5110   48.7190  -14.9730 O.2    74  TRP74      -0.2867
     16  CB        26.9620   45.6840  -15.5680 C.3    74  TRP74       0.0550
     17  CG        27.8000   44.4550  -15.7190 C.ar   74  TRP74       0.0003
     18  CD1       28.5980   43.8700  -14.7670 C.ar   74  TRP74       0.0946
     19  CD2       27.9210   43.6560  -16.8960 C.ar   74  TRP74       0.0152
     20  NE1       29.1960   42.7470  -15.2890 N.ar   74  TRP74      -0.2442
     21  CE2       28.7970   42.5940  -16.5930 C.ar   74  TRP74       0.0810
     22  CE3       27.3670   43.7310  -18.1770 C.ar   74  TRP74       0.0012
     23  CZ2       29.1480   41.6230  -17.5400 C.ar   74  TRP74       0.0191
     24  CZ3       27.7110   42.7650  -19.1140 C.ar   74  TRP74       0.0001
     25  CH2       28.5920   41.7180  -18.7800 C.ar   74  TRP74       0.0015
     26  N         26.7570   48.7990  -11.8930 N.3    92  PHE92      -0.1241
     27  CA        27.6920   48.2290  -10.9250 C.3    92  PHE92       0.1605
     28  C         28.9620   47.7630  -11.6080 C.2    92  PHE92       0.2264
     29  O         28.9760   47.5670  -12.8270 O.2    92  PHE92      -0.2867
     30  CB        27.0620   47.0780  -10.1170 C.3    92  PHE92       0.0534
     31  CG        26.7420   45.8510  -10.9150 C.ar   92  PHE92      -0.0203
     32  CD1       25.5870   45.7890  -11.6940 C.ar   92  PHE92      -0.0042
     33  CD2       27.5740   44.7300  -10.8560 C.ar   92  PHE92      -0.0042
     34  CE1       25.2740   44.6260  -12.4110 C.ar   92  PHE92      -0.0003
     35  CE2       27.2650   43.5610  -11.5630 C.ar   92  PHE92      -0.0003
     36  CZ        26.1150   43.5150  -12.3420 C.ar   92  PHE92      -0.0000
     37  N         32.3650   44.8820  -11.2550 N.3    94  GLU94      -0.1245
     38  CA        32.5160   43.5030  -10.8850 C.3    94  GLU94       0.1567
     39  C         33.8970   42.9770  -11.2260 C.2    94  GLU94       0.2260
     40  O         34.5150   43.4160  -12.1950 O.2    94  GLU94      -0.2867
     41  CB        31.4500   42.7130  -11.6750 C.3    94  GLU94       0.0388
     42  CG        31.5190   41.2680  -11.5710 C.3    94  GLU94       0.1160
     43  CD        30.2680   40.6590  -12.1640 C.2    94  GLU94       0.3649
     44  OE1       29.4140   40.2510  -11.3670 O.co2  94  GLU94      -0.2457
     45  OE2       30.1310   40.6350  -13.4140 O.co2  94  GLU94      -0.2457
     46  N         35.5520   38.9050  -11.4140 N.3    96  LEU96      -0.1245
     47  CA        35.2110   37.4800  -11.3830 C.3    96  LEU96       0.1561
     48  C         36.4230   36.6490  -11.7550 C.2    96  LEU96       0.2260
     49  O         37.2200   37.0580  -12.6020 O.2    96  LEU96      -0.2867
     50  CB        34.1700   37.1210  -12.4650 C.3    96  LEU96       0.0270
     51  CG        32.7810   37.7180  -12.5720 C.3    96  LEU96       0.0019
     52  CD1       32.0490   37.1470  -13.7590 C.3    96  LEU96       0.0001
     53  CD2       32.0090   37.4330  -11.3220 C.3    96  LEU96       0.0001
     54  N         22.9140   43.7320   -7.1780 N.3   121  PRO121     -0.2116
     55  CA        23.6260   42.6830   -7.9190 C.3   121  PRO121      0.1372
     56  C         24.2440   41.6120   -7.0330 C.2   121  PRO121      0.2244
     57  O         24.3010   40.4370   -7.4270 O.2   121  PRO121     -0.2868
     58  CB        24.7360   43.4570   -8.6410 C.3   121  PRO121      0.0268
     59  CG        24.1820   44.8460   -8.7770 C.3   121  PRO121      0.0207
     60  CD        23.3650   45.0830   -7.5630 C.3   121  PRO121      0.0892
     61  N         21.2710   39.3490   -6.0630 N.3   124  ARG124     -0.1231
     62  CA        20.7410   38.7260   -7.2790 C.3   124  ARG124      0.1694
     63  C         21.7220   37.6390   -7.7500 C.2   124  ARG124      0.2592
     64  O         21.3320   36.5970   -8.3010 O.2   124  ARG124     -0.2718
     65  CB        20.4950   39.7860   -8.3690 C.3   124  ARG124      0.0321
     66  CG        19.6420   39.2890   -9.5360 C.3   124  ARG124      0.0489
     67  CD        19.1460   40.4280  -10.4380 C.3   124  ARG124      0.2205
     68  NE        20.2830   41.1940  -10.9650 N.pl3 124  ARG124     -0.0865
     69  CZ        20.3060   42.5060  -11.1390 C.cat 124  ARG124      0.5346
     70  NH1       19.2420   43.2430  -10.8540 N.pl3 124  ARG124      0.1354
     71  NH2       21.4070   43.0960  -11.6060 N.pl3 124  ARG124      0.1354
     72  N         23.0010   37.8680   -7.4950 N.am  125  GLY125     -0.1957
     73  CA        24.0090   36.8490   -7.7240 C.3   125  GLY125      0.1869
     74  C         23.7600   35.5820   -6.9040 C.2   125  GLY125      0.2309
     75  O         23.7610   34.4690   -7.4350 O.2   125  GLY125     -0.2863
     76  N         21.0880   33.2760   -8.2100 N.3   128  GLN128     -0.1245
     77  CA        21.4310   32.4070   -9.3440 C.3   128  GLN128      0.1566
     78  C         22.6230   31.4710   -9.0350 C.2   128  GLN128      0.2260
     79  O         23.0860   30.7260   -9.9000 O.2   128  GLN128     -0.2867
     80  CB        21.6670   33.2660  -10.6020 C.3   128  GLN128      0.0367
     81  CG        22.9250   34.0950  -10.5790 C.3   128  GLN128      0.0905
     82  CD        22.8470   35.3320  -11.4930 C.2   128  GLN128      0.2608
     83  OE1       22.1900   36.3340  -11.1770 O.2   128  GLN128     -0.2717
     84  NE2       23.5360   35.2690  -12.6040 N.am  128  GLN128     -0.0878
     85  N         25.6620   32.4700   -8.0390 N.3   130  MET130     -0.1245
     86  CA        26.9300   33.1150   -8.3320 C.3   130  MET130      0.1570
     87  C         27.4460   33.7310   -7.0260 C.2   130  MET130      0.2261
     88  O         26.7610   34.5350   -6.4090 O.2   130  MET130     -0.2867
     89  CB        26.7090   34.1780   -9.4090 C.3   130  MET130      0.0387
     90  CG        27.9590   34.6980  -10.0830 C.3   130  MET130      0.0595
     91  SD        27.4880   35.4340  -11.6770 S.3   130  MET130     -0.1393
     92  CE        29.1200   35.9070  -12.2580 C.3   130  MET130      0.0692
     93  N         28.8150   35.9950   -5.0520 N.3   132  LYS132     -0.1245
     94  CA        29.2940   37.3680   -5.0530 C.3   132  LYS132      0.1561
     95  C         29.4390   37.9150   -3.6390 C.2   132  LYS132      0.2260
     96  O         28.5540   37.7460   -2.7880 O.2   132  LYS132     -0.2867
     97  CB        28.3520   38.2640   -5.8480 C.3   132  LYS132      0.0271
     98  CG        28.1790   37.8340   -7.3250 C.3   132  LYS132      0.0035
     99  CD        27.5370   38.9340   -8.1490 C.3   132  LYS132      0.0206
    100  CE        27.5220   38.5810   -9.6340 C.3   132  LYS132      0.1093
    101  NZ        26.6220   39.4940  -10.3390 N.3   132  LYS132     -0.1314
    102  N         34.1080   33.5800  -21.9020 N.3   187  HIS187     -0.1241
    103  CA        33.0270   34.5610  -21.8870 C.3   187  HIS187      0.1621
    104  C         31.9340   34.2720  -22.9100 C.2   187  HIS187      0.2264
    105  O         31.0900   35.1380  -23.1810 O.2   187  HIS187     -0.2867
    106  CB        33.5510   35.9950  -22.0830 C.3   187  HIS187      0.0745
    107  CG        32.7980   37.0130  -21.2870 C.ar  187  HIS187      0.0817
    108  ND1       31.5010   37.3770  -21.5840 N.ar  187  HIS187     -0.2268
    109  CD2       33.1460   37.7290  -20.1900 C.ar  187  HIS187      0.1154
    110  CE1       31.0890   38.2760  -20.7100 C.ar  187  HIS187      0.1986
    111  NE2       32.0660   38.5060  -19.8500 N.ar  187  HIS187     -0.2212
    112  N         30.3470   30.8660  -23.0100 N.3   189  VAL189     -0.1245
    113  CA        29.8500   29.5460  -22.6360 C.3   189  VAL189      0.1561
    114  C         28.8910   29.6880  -21.4510 C.2   189  VAL189      0.2260
    115  O         28.9520   30.6740  -20.6990 O.2   189  VAL189     -0.2867
    116  CB        30.9930   28.5700  -22.2130 C.3   189  VAL189      0.0252
    117  CG1       31.8650   28.1680  -23.3910 C.3   189  VAL189      0.0019
    118  CG2       31.8350   29.1850  -21.0970 C.3   189  VAL189      0.0019
    119  N         27.3060   29.4620  -17.7900 N.3   191  LEU191     -0.1245
    120  CA        27.8860   29.4220  -16.4460 C.3   191  LEU191      0.1561
    121  C         27.1250   28.3900  -15.6190 C.2   191  LEU191      0.2260
    122  O         25.8900   28.3560  -15.6290 O.2   191  LEU191     -0.2867
    123  CB        27.8040   30.7880  -15.7580 C.3   191  LEU191      0.0270
    124  CG        28.5070   31.9560  -16.4420 C.3   191  LEU191      0.0019
    125  CD1       28.6130   33.1610  -15.4890 C.3   191  LEU191      0.0001
    126  CD2       29.8690   31.5840  -16.9640 C.3   191  LEU191      0.0001
    127  N         22.8750   28.9920  -15.9210 N.3   209  SER209     -0.1217
    128  CA        22.1470   30.2100  -16.2130 C.3   209  SER209      0.1889
    129  C         21.7790   30.2240  -17.6810 C.2   209  SER209      0.2288
    130  O         22.6400   30.0020  -18.5550 O.2   209  SER209     -0.2866
    131  CB        22.9740   31.4320  -15.8290 C.3   209  SER209      0.2089
    132  OG        22.9880   31.5710  -14.4270 O.3   209  SER209     -0.2183
    133  N         20.6680   32.2240  -20.8500 N.3   211  VAL211     -0.1245
    134  CA        20.7530   33.5800  -21.4140 C.3   211  VAL211      0.1561
    135  C         20.3690   33.5800  -22.8900 C.2   211  VAL211      0.2260
    136  O         20.4110   32.5400  -23.5750 O.2   211  VAL211     -0.2867
    137  CB        22.1720   34.1710  -21.3070 C.3   211  VAL211      0.0252
    138  CG1       22.6330   34.2270  -19.8610 C.3   211  VAL211      0.0019
    139  CG2       23.1370   33.3750  -22.1400 C.3   211  VAL211      0.0019
    140  N         29.8320   43.9200  -24.0780 N.3   252  TYR252     -0.1241
    141  CA        29.0540   42.6790  -24.0110 C.3   252  TYR252      0.1605
    142  C         27.6270   42.9550  -23.6060 C.2   252  TYR252      0.2264
    143  O         27.3660   43.7750  -22.7020 O.2   252  TYR252     -0.2867
    144  CB        29.6760   41.7320  -22.9780 C.3   252  TYR252      0.0534
    145  CG        28.9540   40.4080  -22.8290 C.ar  252  TYR252     -0.0201
    146  CD1       27.9180   40.2570  -21.9060 C.ar  252  TYR252     -0.0009
    147  CD2       29.2950   39.3130  -23.6200 C.ar  252  TYR252     -0.0009
    148  CE1       27.2560   39.0410  -21.7530 C.ar  252  TYR252      0.0417
    149  CE2       28.6400   38.1060  -23.4850 C.ar  252  TYR252      0.0417
    150  CZ        27.6140   37.9760  -22.5580 C.ar  252  TYR252      0.1957
    151  OH        26.9590   36.7720  -22.4000 O.3   252  TYR252     -0.2866
    152  N         23.6780   40.7870  -22.9290 N.3   254  GLU254     -0.1245
    153  CA        22.8820   39.5800  -22.9020 C.3   254  GLU254      0.1567
    154  C         21.5960   39.8410  -22.1400 C.2   254  GLU254      0.2260
    155  O         21.4740   40.8330  -21.3950 O.2   254  GLU254     -0.2867
    156  CB        23.6290   38.4280  -22.1950 C.3   254  GLU254      0.0388
    157  CG        23.7170   38.6350  -20.6830 C.3   254  GLU254      0.1160
    158  CD        24.4850   37.5360  -19.9080 C.2   254  GLU254      0.3649
    159  OE1       24.4000   37.5630  -18.6640 O.co2 254  GLU254     -0.2457
    160  OE2       25.1500   36.6730  -20.5410 O.co2 254  GLU254     -0.2457
    161  N         19.3860   37.7010  -19.3180 N.3   256  LEU256     -0.1245
    162  CA        19.4360   36.5820  -18.3720 C.3   256  LEU256      0.1561
    163  C         18.0230   36.2460  -17.9220 C.2   256  LEU256      0.2260
    164  O         17.3220   37.1230  -17.4120 O.2   256  LEU256     -0.2867
    165  CB        20.3020   36.9620  -17.1700 C.3   256  LEU256      0.0270
    166  CG        20.3890   35.9820  -16.0070 C.3   256  LEU256      0.0019
    167  CD1       20.9880   34.6460  -16.4270 C.3   256  LEU256      0.0001
    168  CD2       21.2150   36.6030  -14.8610 C.3   256  LEU256      0.0001
@<TRIPOS>BOND
     1   140   141    1
     2   141   142    1
     3   141   144    1
     4   147   149   ar
     5   147   145   ar
     6   142   143    2
     7   136   135    2
     8   149   150   ar
     9   117   116    1
    10   105   104    2
    11   112   113    1
    12   144   145    1
    13   152   153    1
    14   104   103    1
    15   153   156    1
    16   153   154    1
    17   135   134    1
    18   145   146   ar
    19   113   116    1
    20   113   114    1
    21   150   151    1
    22   150   148   ar
    23   116   118    1
    24   156   157    1
    25   139   137    1
    26   154   155    2
    27   106   103    1
    28   106   107    1
    29   146   148   ar
    30   102   103    1
    31     4     3    2
    32   108   107   ar
    33   108   110   ar
    34   114   115    2
    35   134   137    1
    36   134   133    1
    37   137   138    1
    38   107   109   ar
    39   110   111   ar
    40   157   158    1
    41   160   158   ar
    42     3     2    1
    43   109   111   ar
    44   158   159   ar
    45     1     2    1
    46   161   162    1
    47     2     5    1
    48    24    25   ar
    49    24    22   ar
    50    25    23   ar
    51     5     6    1
    52   130   129    2
    53   162   163    1
    54   162   165    1
    55    22    19   ar
    56   163   164    2
    57   119   120    1
    58   129   128    1
    59    23    21   ar
    60     6     8   ar
    61     6     7   ar
    62     8    10   ar
    63   165   166    1
    64   126   124    1
    65    19    21   ar
    66    19    17   ar
    67    21    20   ar
    68   120   123    1
    69   120   121    1
    70   124   123    1
    71   124   125    1
    72   167   166    1
    73    13    14    1
    74    13    12    1
    75    13    16    1
    76   128   127    1
    77   128   131    1
    78    10    11   ar
    79     7     9   ar
    80   166   168    1
    81    14    15    2
    82   131   132    1
    83    17    16    1
    84    17    18   ar
    85   122   121    2
    86    20    18   ar
    87    11     9   ar
    88    52    51    1
    89    45    43   ar
    90    29    28    2
    91    84    82   am
    92    49    48    2
    93    51    50    1
    94    51    53    1
    95    50    47    1
    96    34    36   ar
    97    34    32   ar
    98    36    35   ar
    99    92    91    1
   100    40    39    2
   101    43    42    1
   102    43    44   ar
   103    26    27    1
   104    48    47    1
   105    32    31   ar
   106    91    90    1
   107    41    42    1
   108    41    38    1
   109    28    27    1
   110    71    69    1
   111    35    33   ar
   112    82    83    2
   113    82    81    1
   114    46    47    1
   115    37    38    1
   116    39    38    1
   117    69    68    2
   118    69    70    1
   119    68    67    1
   120    27    30    1
   121    31    33   ar
   122    31    30    1
   123    80    81    1
   124    80    77    1
   125    67    66    1
   126   101   100    1
   127    90    89    1
   128    79    78    2
   129   100    99    1
   130    66    65    1
   131    89    86    1
   132    77    78    1
   133    77    76    1
   134    59    58    1
   135    59    60    1
   136    58    55    1
   137    65    62    1
   138    86    85    1
   139    86    87    1
   140    64    63    2
   141    99    98    1
   142    55    54    1
   143    55    56    1
   144    63    72   am
   145    63    62    1
   146    73    72    1
   147    73    74    1
   148    60    54    1
   149    75    74    2
   150    57    56    2
   151    98    97    1
   152    62    61    1
   153    87    88    2
   154    97    94    1
   155    94    93    1
   156    94    95    1
   157    95    96    2
