@<TRIPOS>MOLECULE
tmp/4jm6A01.pdb
 83 80 0 0 0
SMALL
GASTEIGER

@<TRIPOS>ATOM
      1  N        -15.0380    7.4980    1.8270 N.3   172  HIS172     -0.1226
      2  CA       -15.6330    6.5780    2.7600 C.3   172  HIS172      0.1752
      3  C        -17.0330    6.9300    3.2340 C.2   172  HIS172      0.2596
      4  O        -17.6150    6.1520    4.0050 O.2   172  HIS172     -0.2718
      5  CB       -14.6570    6.2840    3.9010 C.3   172  HIS172      0.0759
      6  CG       -13.6530    5.2370    3.5470 C.ar  172  HIS172      0.0818
      7  ND1      -12.7190    4.7990    4.4450 N.ar  172  HIS172     -0.2268
      8  CD2      -13.3850    4.5890    2.3790 C.ar  172  HIS172      0.1154
      9  CE1      -11.9820    3.8690    3.8650 C.ar  172  HIS172      0.1986
     10  NE2      -12.3720    3.7090    2.6120 N.ar  172  HIS172     -0.2212
     11  N        -17.5690    8.0270    2.7230 N.am  173  ALA173     -0.1966
     12  CA       -19.0530    8.1930    2.7750 C.3   173  ALA173      0.1728
     13  C        -19.8090    7.2410    1.8830 C.2   173  ALA173      0.2616
     14  O        -21.0270    7.0460    2.0330 O.2   173  ALA173     -0.2715
     15  CB       -19.4070    9.6190    2.3620 C.3   173  ALA173      0.0334
     16  N        -19.1170    6.6300    0.9240 N.am  174  LEU174     -0.1963
     17  CA       -19.7900    5.9090   -0.1590 C.3   174  LEU174      0.1728
     18  C        -19.8450    4.4080    0.1890 C.2   174  LEU174      0.2617
     19  O        -18.9050    3.8290    0.7430 O.2   174  LEU174     -0.2715
     20  CB       -18.9850    6.0220   -1.4370 C.3   174  LEU174      0.0311
     21  CG       -18.7840    7.4500   -2.0260 C.3   174  LEU174      0.0022
     22  CD1      -17.7500    7.3960   -3.1670 C.3   174  LEU174      0.0001
     23  CD2      -20.1260    8.0260   -2.5400 C.3   174  LEU174      0.0001
     24  N        -20.9500    3.7430   -0.2090 N.am  175  GLY175     -0.1940
     25  CA       -20.9860    2.3170   -0.1630 C.3   175  GLY175      0.2014
     26  C        -20.8740    1.7870    1.2760 C.2   175  GLY175      0.2639
     27  O        -21.4200    2.3950    2.2150 O.2   175  GLY175     -0.2714
     28  N        -20.2460    0.6320    1.4090 N.am  176  LYS176     -0.1963
     29  CA       -20.1730   -0.0190    2.6860 C.3   176  LYS176      0.1728
     30  C        -19.0300   -0.9810    2.7360 C.2   176  LYS176      0.2616
     31  O        -18.3920   -1.2970    1.7210 O.2   176  LYS176     -0.2715
     32  CB       -21.4990   -0.7350    3.0090 C.3   176  LYS176      0.0311
     33  CG       -21.8050   -1.9610    2.1160 C.3   176  LYS176      0.0038
     34  CD       -23.1070   -2.6570    2.3860 C.3   176  LYS176      0.0206
     35  CE       -23.0920   -3.3510    3.7470 C.3   176  LYS176      0.1093
     36  NZ       -22.3700   -4.6120    3.7700 N.3   176  LYS176     -0.1314
     37  N        -18.7400   -1.4120    3.9580 N.am  177  THR177     -0.1951
     38  CA       -17.8320   -2.5230    4.2000 C.3   177  THR177      0.1897
     39  C        -18.6220   -3.8280    4.2210 C.2   177  THR177      0.2313
     40  O        -19.8060   -3.8490    4.6260 O.2   177  THR177     -0.2863
     41  CB       -16.9620   -2.3130    5.4610 C.3   177  THR177      0.1794
     42  OG1      -17.7760   -2.4420    6.6260 O.3   177  THR177     -0.2208
     43  CG2      -16.2390   -0.9430    5.4490 C.3   177  THR177      0.0378
     44  N        -20.6200   -3.0510    7.4410 N.3   186  GLY186     -0.1210
     45  CA       -21.5880   -1.9920    7.6490 C.3   186  GLY186      0.1956
     46  C        -21.2590   -0.6720    7.0650 C.2   186  GLY186      0.2612
     47  O        -20.2930   -0.5280    6.2890 O.2   186  GLY186     -0.2717
     48  N        -22.0210    0.3310    7.4270 N.am  187  GLY187     -0.1956
     49  CA       -21.8240    1.6730    6.8570 C.3   187  GLY187      0.1869
     50  C        -23.0270    2.2880    6.1700 C.2   187  GLY187      0.2309
     51  O        -23.0880    3.5160    5.9530 O.2   187  GLY187     -0.2863
     52  N        -20.5500    3.6200   10.2230 N.3   225  MET225     -0.1230
     53  CA       -19.4400    2.8140   10.6490 C.3   225  MET225      0.1702
     54  C        -18.1600    3.4790   10.1910 C.2   225  MET225      0.2592
     55  O        -18.0960    4.0190    9.0800 O.2   225  MET225     -0.2718
     56  CB       -19.5130    1.4240   10.0120 C.3   225  MET225      0.0401
     57  CG       -18.5460    0.4380   10.6940 C.3   225  MET225      0.0596
     58  SD       -16.8290    0.5250   10.2280 S.3   225  MET225     -0.1393
     59  CE       -17.3090    0.0600    8.5820 C.3   225  MET225      0.0692
     60  N        -17.1410    3.4600   11.0450 N.am  226  MET226     -0.1965
     61  CA       -15.8240    3.9460   10.7280 C.3   226  MET226      0.1736
     62  C        -14.8140    2.8460   11.0340 C.2   226  MET226      0.2616
     63  O        -14.8130    2.2020   12.1090 O.2   226  MET226     -0.2715
     64  CB       -15.5200    5.1860   11.5500 C.3   226  MET226      0.0427
     65  CG       -16.4130    6.4030   11.2860 C.3   226  MET226      0.0599
     66  SD       -16.0930    7.0860    9.6380 S.3   226  MET226     -0.1393
     67  CE       -17.5380    8.1860    9.5380 C.3   226  MET226      0.0692
     68  N        -13.8990    2.6580   10.0930 N.am  227  LEU227     -0.1977
     69  CA       -12.7770    1.7630   10.3250 C.3   227  LEU227      0.1596
     70  C        -11.8340    2.4540   11.3630 C.2   227  LEU227      0.2287
     71  O        -11.8330    3.6600   11.5060 O.2   227  LEU227     -0.2864
     72  CB       -11.9650    1.6040    9.0030 C.3   227  LEU227      0.0297
     73  CG       -12.7390    0.9470    7.8510 C.3   227  LEU227      0.0022
     74  CD1      -12.0820    1.2020    6.5060 C.3   227  LEU227      0.0001
     75  CD2      -12.9100   -0.5760    8.1230 C.3   227  LEU227      0.0001
     76  N        -10.2140    5.2860    9.6590 N.3   230  ASP230     -0.1239
     77  CA       -11.1020    6.4220    9.4950 C.3   230  ASP230      0.1674
     78  C        -11.1280    7.2600   10.7950 C.2   230  ASP230      0.2266
     79  O        -11.0160    8.5020   10.7770 O.2   230  ASP230     -0.2867
     80  CB       -12.5320    5.9010    9.2330 C.3   230  ASP230      0.1410
     81  CG       -12.7180    5.2320    7.8770 C.2   230  ASP230      0.3668
     82  OD1      -11.9880    5.6570    6.9210 O.co2 230  ASP230     -0.2456
     83  OD2      -13.5970    4.3390    7.8050 O.co2 230  ASP230     -0.2456
@<TRIPOS>BOND
     1    22    21    1
     2    23    21    1
     3    21    20    1
     4    20    17    1
     5    24    25    1
     6    24    18   am
     7    25    26    1
     8    17    18    1
     9    17    16    1
    10    18    19    2
    11    16    13   am
    12    26    28   am
    13    26    27    2
    14    28    29    1
    15    31    30    2
    16     1     2    1
    17    13    14    2
    18    13    12    1
    19    33    34    1
    20    33    32    1
    21    15    12    1
    22     8    10   ar
    23     8     6   ar
    24    34    35    1
    25    10     9   ar
    26    29    30    1
    27    29    32    1
    28    11    12    1
    29    11     3   am
    30    30    37   am
    31     2     3    1
    32     2     5    1
    33     3     4    2
    34     6     5    1
    35     6     7   ar
    36    35    36    1
    37     9     7   ar
    38    37    38    1
    39    38    39    1
    40    38    41    1
    41    39    40    2
    42    43    41    1
    43    41    42    1
    44    51    50    2
    45    50    49    1
    46    47    46    2
    47    74    73    1
    48    49    48    1
    49    82    81   ar
    50    46    48   am
    51    46    45    1
    52    44    45    1
    53    83    81   ar
    54    73    75    1
    55    73    72    1
    56    81    80    1
    57    59    58    1
    58    72    69    1
    59    55    54    2
    60    80    77    1
    61    77    76    1
    62    77    78    1
    63    67    66    1
    64    66    65    1
    65    56    53    1
    66    56    57    1
    67    68    69    1
    68    68    62   am
    69    54    53    1
    70    54    60   am
    71    52    53    1
    72    58    57    1
    73    69    70    1
    74    61    62    1
    75    61    60    1
    76    61    64    1
    77    79    78    2
    78    62    63    2
    79    65    64    1
    80    70    71    2
