@<TRIPOS>MOLECULE
tmp/4jm8A01.pdb
 83 80 0 0 0
SMALL
GASTEIGER

@<TRIPOS>ATOM
      1  N        -15.1280   -7.3040   -1.6140 N.3   172  HIS172     -0.1226
      2  CA       -15.7640   -6.3900   -2.5270 C.3   172  HIS172      0.1752
      3  C        -17.1600   -6.7940   -2.9580 C.2   172  HIS172      0.2596
      4  O        -17.8440   -6.0500   -3.6550 O.2   172  HIS172     -0.2718
      5  CB       -14.8640   -6.0660   -3.7120 C.3   172  HIS172      0.0759
      6  CG       -13.7870   -5.0970   -3.3590 C.ar  172  HIS172      0.0818
      7  ND1      -12.8250   -4.7350   -4.2610 N.ar  172  HIS172     -0.2268
      8  CD2      -13.5450   -4.3940   -2.2240 C.ar  172  HIS172      0.1154
      9  CE1      -12.0610   -3.7890   -3.7050 C.ar  172  HIS172      0.1986
     10  NE2      -12.4870   -3.5820   -2.4680 N.ar  172  HIS172     -0.2212
     11  N        -17.6720   -7.9060   -2.4020 N.am  173  ALA173     -0.1966
     12  CA       -19.1330   -8.1450   -2.4070 C.3   173  ALA173      0.1728
     13  C        -19.8870   -7.2040   -1.5080 C.2   173  ALA173      0.2616
     14  O        -21.0950   -7.0690   -1.6180 O.2   173  ALA173     -0.2715
     15  CB       -19.4190   -9.5700   -1.9010 C.3   173  ALA173      0.0334
     16  N        -19.1940   -6.5720   -0.5640 N.am  174  LEU174     -0.1963
     17  CA       -19.8230   -5.8060    0.5030 C.3   174  LEU174      0.1728
     18  C        -19.9080   -4.3140    0.1630 C.2   174  LEU174      0.2617
     19  O        -18.9760   -3.7370   -0.4130 O.2   174  LEU174     -0.2715
     20  CB       -19.0000   -5.9120    1.7880 C.3   174  LEU174      0.0311
     21  CG       -18.8240   -7.3130    2.3290 C.3   174  LEU174      0.0022
     22  CD1      -17.7810   -7.2590    3.4570 C.3   174  LEU174      0.0001
     23  CD2      -20.1440   -7.9320    2.8390 C.3   174  LEU174      0.0001
     24  N        -20.9820   -3.6680    0.5670 N.am  175  GLY175     -0.1940
     25  CA       -21.0550   -2.2250    0.5250 C.3   175  GLY175      0.2014
     26  C        -21.0220   -1.6920   -0.8850 C.2   175  GLY175      0.2639
     27  O        -21.6190   -2.2840   -1.8040 O.2   175  GLY175     -0.2714
     28  N        -20.3520   -0.5480   -1.0300 N.am  176  LYS176     -0.1963
     29  CA       -20.2800    0.1740   -2.3030 C.3   176  LYS176      0.1728
     30  C        -19.1260    1.1410   -2.3750 C.2   176  LYS176      0.2616
     31  O        -18.4760    1.4800   -1.3950 O.2   176  LYS176     -0.2715
     32  CB       -21.5550    0.9630   -2.5780 C.3   176  LYS176      0.0311
     33  CG       -21.8140    2.1350   -1.6630 C.3   176  LYS176      0.0038
     34  CD       -23.2210    2.7240   -1.9830 C.3   176  LYS176      0.0206
     35  CE       -23.3370    3.3990   -3.4190 C.3   176  LYS176      0.1093
     36  NZ       -22.6140    4.6700   -3.5710 N.3   176  LYS176     -0.1314
     37  N        -18.8520    1.5730   -3.5960 N.am  177  THR177     -0.1951
     38  CA       -17.9790    2.6980   -3.7910 C.3   177  THR177      0.1897
     39  C        -18.8170    3.9690   -3.7590 C.2   177  THR177      0.2313
     40  O        -20.0340    3.9710   -4.0590 O.2   177  THR177     -0.2863
     41  CB       -17.1680    2.6100   -5.0790 C.3   177  THR177      0.1794
     42  OG1      -17.9950    2.7630   -6.2290 O.3   177  THR177     -0.2208
     43  CG2      -16.4240    1.2640   -5.1830 C.3   177  THR177      0.0378
     44  N        -22.1330   -0.3010   -7.0050 N.3   187  GLY187     -0.1210
     45  CA       -21.9050   -1.5430   -6.3120 C.3   187  GLY187      0.1956
     46  C        -23.1970   -2.1520   -5.8130 C.2   187  GLY187      0.2612
     47  O        -24.2510   -1.5610   -5.9120 O.2   187  GLY187     -0.2717
     48  N        -23.1070   -3.3560   -5.2670 N.am  188  GLY188     -0.1956
     49  CA       -24.2810   -4.1230   -4.8640 C.3   188  GLY188      0.1869
     50  C        -25.0700   -3.6120   -3.6710 C.2   188  GLY188      0.2309
     51  O        -26.2320   -4.0300   -3.4770 O.2   188  GLY188     -0.2863
     52  N        -20.7900   -3.0250  -10.3850 N.3   225  MET225     -0.1230
     53  CA       -19.5440   -2.4080  -10.8440 C.3   225  MET225      0.1702
     54  C        -18.3650   -3.1760  -10.2870 C.2   225  MET225      0.2592
     55  O        -18.4380   -3.8620   -9.2730 O.2   225  MET225     -0.2718
     56  CB       -19.4570   -0.8890  -10.5450 C.3   225  MET225      0.0401
     57  CG       -19.4530   -0.5510   -9.0630 C.3   225  MET225      0.0596
     58  SD       -17.8860   -0.7440   -8.2420 S.3   225  MET225     -0.1393
     59  CE       -16.9070    0.5890   -8.9400 C.3   225  MET225      0.0692
     60  N        -17.2360   -3.0210  -11.0080 N.am  226  MET226     -0.1965
     61  CA       -15.9500   -3.5050  -10.6170 C.3   226  MET226      0.1736
     62  C        -14.9050   -2.4380  -10.8710 C.2   226  MET226      0.2616
     63  O        -14.9300   -1.7670  -11.9050 O.2   226  MET226     -0.2715
     64  CB       -15.5760   -4.7950  -11.3800 C.3   226  MET226      0.0427
     65  CG       -16.4480   -5.9730  -11.0920 C.3   226  MET226      0.0599
     66  SD       -16.1250   -6.6850   -9.4530 S.3   226  MET226     -0.1393
     67  CE       -17.5300   -7.7520   -9.3440 C.3   226  MET226      0.0692
     68  N        -13.9210   -2.3420   -9.9700 N.am  227  LEU227     -0.1977
     69  CA       -12.7720   -1.5130  -10.1930 C.3   227  LEU227      0.1596
     70  C        -11.8550   -2.1800  -11.2310 C.2   227  LEU227      0.2287
     71  O        -11.8990   -3.3810  -11.3860 O.2   227  LEU227     -0.2864
     72  CB       -11.9560   -1.3780   -8.8940 C.3   227  LEU227      0.0297
     73  CG       -12.7300   -0.7700   -7.7130 C.3   227  LEU227      0.0022
     74  CD1      -11.9370   -1.0050   -6.4240 C.3   227  LEU227      0.0001
     75  CD2      -13.0180    0.7190   -7.9440 C.3   227  LEU227      0.0001
     76  N        -10.2420   -5.0400   -9.5710 N.3   230  ASP230     -0.1239
     77  CA       -11.1030   -6.1970   -9.4210 C.3   230  ASP230      0.1674
     78  C        -11.1220   -7.0020  -10.7290 C.2   230  ASP230      0.2266
     79  O        -11.0180   -8.2340  -10.7510 O.2   230  ASP230     -0.2867
     80  CB       -12.5220   -5.7480   -9.1190 C.3   230  ASP230      0.1410
     81  CG       -12.6870   -5.0700   -7.7870 C.2   230  ASP230      0.3668
     82  OD1      -12.0450   -5.4990   -6.7880 O.co2 230  ASP230     -0.2456
     83  OD2      -13.5030   -4.1130   -7.7470 O.co2 230  ASP230     -0.2456
@<TRIPOS>BOND
     1    63    62    2
     2    71    70    2
     3    64    65    1
     4    64    61    1
     5    70    69    1
     6    65    66    1
     7    60    61    1
     8    60    54   am
     9    62    61    1
    10    62    68   am
    11    53    56    1
    12    53    52    1
    13    53    54    1
    14    79    78    2
    15    78    77    1
    16    56    57    1
    17    54    55    2
    18    69    68    1
    19    69    72    1
    20    76    77    1
    21    66    67    1
    22    77    80    1
    23    80    81    1
    24    57    58    1
    25    59    58    1
    26    72    73    1
    27    75    73    1
    28    81    83   ar
    29    81    82   ar
    30    73    74    1
    31    44    45    1
    32    45    46    1
    33    42    41    1
    34    47    46    2
    35    46    48   am
    36    48    49    1
    37    43    41    1
    38    41    38    1
    39    49    50    1
    40     7     9   ar
    41     7     6   ar
    42    40    39    2
    43    38    39    1
    44    38    37    1
    45     5     6    1
    46     5     2    1
    47     9    10   ar
    48    50    51    2
    49     4     3    2
    50    37    30   am
    51    36    35    1
    52    35    34    1
    53     6     8   ar
    54     3     2    1
    55     3    11   am
    56    32    29    1
    57    32    33    1
    58     2     1    1
    59    10     8   ar
    60    12    11    1
    61    12    15    1
    62    12    13    1
    63    30    29    1
    64    30    31    2
    65    29    28    1
    66    34    33    1
    67    27    26    2
    68    14    13    2
    69    13    16   am
    70    28    26   am
    71    26    25    1
    72    16    17    1
    73    19    18    2
    74    18    17    1
    75    18    24   am
    76    17    20    1
    77    25    24    1
    78    20    21    1
    79    21    23    1
    80    21    22    1
