@<TRIPOS>MOLECULE
tmp/4jmaA01.pdb
 83 80 0 0 0
SMALL
GASTEIGER

@<TRIPOS>ATOM
      1  N        -15.2160    7.2820    1.7770 N.3   172  HIS172     -0.1226
      2  CA       -15.8370    6.3460    2.6700 C.3   172  HIS172      0.1752
      3  C        -17.2670    6.7300    3.1060 C.2   172  HIS172      0.2596
      4  O        -17.8550    6.0060    3.9300 O.2   172  HIS172     -0.2718
      5  CB       -14.9420    6.0010    3.8410 C.3   172  HIS172      0.0759
      6  CG       -13.8520    5.0760    3.4660 C.ar  172  HIS172      0.0818
      7  ND1      -12.8750    4.7230    4.3460 N.ar  172  HIS172     -0.2268
      8  CD2      -13.6240    4.3530    2.3310 C.ar  172  HIS172      0.1154
      9  CE1      -12.1010    3.8100    3.7810 C.ar  172  HIS172      0.1986
     10  NE2      -12.5070    3.5750    2.5530 N.ar  172  HIS172     -0.2212
     11  N        -17.7530    7.8210    2.5690 N.am  173  ALA173     -0.1966
     12  CA       -19.1960    8.0800    2.5960 C.3   173  ALA173      0.1728
     13  C        -19.9490    7.4130    1.4590 C.2   173  ALA173      0.2616
     14  O        -21.1250    7.7220    1.2510 O.2   173  ALA173     -0.2715
     15  CB       -19.4960    9.5490    2.6280 C.3   173  ALA173      0.0334
     16  N        -19.2680    6.6010    0.6680 N.am  174  LEU174     -0.1963
     17  CA       -19.8710    5.8220   -0.4180 C.3   174  LEU174      0.1728
     18  C        -19.9120    4.3510   -0.0920 C.2   174  LEU174      0.2617
     19  O        -18.9560    3.8010    0.4340 O.2   174  LEU174     -0.2715
     20  CB       -19.0610    6.0010   -1.6740 C.3   174  LEU174      0.0311
     21  CG       -18.8920    7.4230   -2.1760 C.3   174  LEU174      0.0022
     22  CD1      -17.8690    7.4630   -3.3150 C.3   174  LEU174      0.0001
     23  CD2      -20.2500    7.9360   -2.6840 C.3   174  LEU174      0.0001
     24  N        -21.0050    3.6640   -0.4280 N.am  175  GLY175     -0.1940
     25  CA       -20.9830    2.2210   -0.3950 C.3   175  GLY175      0.2014
     26  C        -21.0170    1.7000    1.0140 C.2   175  GLY175      0.2639
     27  O        -21.5930    2.3320    1.9240 O.2   175  GLY175     -0.2714
     28  N        -20.3680    0.5580    1.1970 N.am  176  LYS176     -0.1963
     29  CA       -20.3030   -0.0860    2.5140 C.3   176  LYS176      0.1728
     30  C        -19.1430   -1.0710    2.5590 C.2   176  LYS176      0.2616
     31  O        -18.5900   -1.4470    1.5350 O.2   176  LYS176     -0.2715
     32  CB       -21.6480   -0.7740    2.8180 C.3   176  LYS176      0.0311
     33  CG       -21.8630   -1.9800    2.0140 C.3   176  LYS176      0.0038
     34  CD       -23.2480   -2.5710    2.2270 C.3   176  LYS176      0.0206
     35  CE       -23.3650   -3.3010    3.5620 C.3   176  LYS176      0.1093
     36  NZ       -22.6900   -4.6000    3.6210 N.3   176  LYS176     -0.1314
     37  N        -18.8660   -1.5510    3.7760 N.am  177  THR177     -0.1951
     38  CA       -17.9500   -2.6590    3.9910 C.3   177  THR177      0.1897
     39  C        -18.8020   -3.9390    4.0330 C.2   177  THR177      0.2313
     40  O        -19.9850   -3.8950    4.3900 O.2   177  THR177     -0.2863
     41  CB       -17.0980   -2.4710    5.2840 C.3   177  THR177      0.1794
     42  OG1      -17.9380   -2.5890    6.4350 O.3   177  THR177     -0.2208
     43  CG2      -16.4130   -1.1040    5.2990 C.3   177  THR177      0.0378
     44  N        -21.9280    0.4830    7.1140 N.3   187  GLY187     -0.1210
     45  CA       -21.6690    1.7180    6.4210 C.3   187  GLY187      0.1956
     46  C        -22.9760    2.3470    5.9990 C.2   187  GLY187      0.2612
     47  O        -24.0510    1.7600    6.1290 O.2   187  GLY187     -0.2717
     48  N        -22.8490    3.5180    5.3990 N.am  188  GLY188     -0.1956
     49  CA       -24.0200    4.2800    5.0070 C.3   188  GLY188      0.1869
     50  C        -24.8400    3.7010    3.8620 C.2   188  GLY188      0.2309
     51  O        -26.0060    4.0720    3.7040 O.2   188  GLY188     -0.2863
     52  N        -20.7800    3.3480   10.3550 N.3   225  MET225     -0.1230
     53  CA       -19.6420    2.5770   10.7570 C.3   225  MET225      0.1702
     54  C        -18.4110    3.2790   10.2540 C.2   225  MET225      0.2592
     55  O        -18.4790    3.9900    9.2490 O.2   225  MET225     -0.2718
     56  CB       -19.8280    1.1840   10.1920 C.3   225  MET225      0.0401
     57  CG       -18.6790    0.3270   10.2170 C.3   225  MET225      0.0596
     58  SD       -17.9130    0.4940    8.5180 S.3   225  MET225     -0.1393
     59  CE       -16.5870   -0.6270    8.9370 C.3   225  MET225      0.0692
     60  N        -17.3210    3.1760   11.0250 N.am  226  MET226     -0.1965
     61  CA       -16.0010    3.6660   10.6260 C.3   226  MET226      0.1736
     62  C        -14.9510    2.6330   10.9140 C.2   226  MET226      0.2616
     63  O        -14.9580    1.9540   11.9710 O.2   226  MET226     -0.2715
     64  CB       -15.6580    4.9490   11.3800 C.3   226  MET226      0.0427
     65  CG       -16.5630    6.1080   11.0650 C.3   226  MET226      0.0599
     66  SD       -16.0310    7.0400    9.6160 S.3   226  MET226     -0.1393
     67  CE       -16.6610    6.1010    8.2060 C.3   226  MET226      0.0692
     68  N        -14.0140    2.4800   10.0070 N.am  227  LEU227     -0.1977
     69  CA       -12.8630    1.6170   10.2520 C.3   227  LEU227      0.1596
     70  C        -11.9290    2.2940   11.2580 C.2   227  LEU227      0.2287
     71  O        -11.9630    3.5230   11.4530 O.2   227  LEU227     -0.2864
     72  CB       -12.0870    1.4430    8.9530 C.3   227  LEU227      0.0297
     73  CG       -12.8260    0.8620    7.7720 C.3   227  LEU227      0.0022
     74  CD1      -12.0550    1.0520    6.4500 C.3   227  LEU227      0.0001
     75  CD2      -13.1320   -0.6360    8.0010 C.3   227  LEU227      0.0001
     76  N        -10.2850    5.1130    9.6230 N.3   230  ASP230     -0.1239
     77  CA       -11.1910    6.2750    9.4550 C.3   230  ASP230      0.1674
     78  C        -11.2170    7.1040   10.7160 C.2   230  ASP230      0.2266
     79  O        -11.1130    8.3430   10.7390 O.2   230  ASP230     -0.2867
     80  CB       -12.6250    5.7880    9.1380 C.3   230  ASP230      0.1410
     81  CG       -12.7740    5.1060    7.8180 C.2   230  ASP230      0.3668
     82  OD1      -12.1290    5.5250    6.8240 O.co2 230  ASP230     -0.2456
     83  OD2      -13.6490    4.2220    7.6980 O.co2 230  ASP230     -0.2456
@<TRIPOS>BOND
     1    22    21    1
     2    23    21    1
     3    21    20    1
     4    20    17    1
     5    24    25    1
     6    24    18   am
     7    17    18    1
     8    17    16    1
     9    25    26    1
    10    18    19    2
    11    16    13   am
    12    26    28   am
    13    26    27    2
    14    28    29    1
    15    14    13    2
    16    13    12    1
    17    31    30    2
    18     1     2    1
    19    33    34    1
    20    33    32    1
    21    34    35    1
    22     8    10   ar
    23     8     6   ar
    24    29    30    1
    25    29    32    1
    26    10     9   ar
    27    30    37   am
    28    11    12    1
    29    11     3   am
    30    12    15    1
    31     2     3    1
    32     2     5    1
    33     3     4    2
    34     6     5    1
    35     6     7   ar
    36    35    36    1
    37    51    50    2
    38    37    38    1
    39     9     7   ar
    40    50    49    1
    41    38    39    1
    42    38    41    1
    43    39    40    2
    44    49    48    1
    45    41    43    1
    46    41    42    1
    47    48    46   am
    48    46    47    2
    49    46    45    1
    50    45    44    1
    51    74    73    1
    52    82    81   ar
    53    83    81   ar
    54    73    75    1
    55    73    72    1
    56    81    80    1
    57    67    66    1
    58    58    59    1
    59    58    57    1
    60    72    69    1
    61    80    77    1
    62    55    54    2
    63    77    76    1
    64    77    78    1
    65    66    65    1
    66    68    69    1
    67    68    62   am
    68    56    57    1
    69    56    53    1
    70    69    70    1
    71    54    53    1
    72    54    60   am
    73    52    53    1
    74    61    62    1
    75    61    60    1
    76    61    64    1
    77    78    79    2
    78    62    63    2
    79    65    64    1
    80    70    71    2
