@<TRIPOS>MOLECULE
tmp/4jmbA01.pdb
 132 129 0 0 0
SMALL
GASTEIGER

@<TRIPOS>ATOM
      1  N         28.2060   86.0090   48.6830 N.3   172  HIS172     -0.1226
      2  CA        29.1120   86.9180   47.9880 C.3   172  HIS172      0.1752
      3  C         29.5320   86.4490   46.5910 C.2   172  HIS172      0.2596
      4  O         30.3450   87.1030   45.9460 O.2   172  HIS172     -0.2718
      5  CB        30.3110   87.2760   48.8660 C.3   172  HIS172      0.0759
      6  CG        30.0050   88.3390   49.8720 C.ar  172  HIS172      0.0818
      7  ND1       30.9370   88.8040   50.7730 N.ar  172  HIS172     -0.2268
      8  CD2       28.8610   89.0180   50.1310 C.ar  172  HIS172      0.1154
      9  CE1       30.3850   89.7360   51.5320 C.ar  172  HIS172      0.1986
     10  NE2       29.1290   89.8910   51.1540 N.ar  172  HIS172     -0.2212
     11  N         28.9690   85.3490   46.1100 N.am  173  ALA173     -0.1966
     12  CA        29.0050   85.0620   44.6710 C.3   173  ALA173      0.1728
     13  C         28.1940   86.0940   43.8830 C.2   173  ALA173      0.2616
     14  O         28.3830   86.2610   42.6810 O.2   173  ALA173     -0.2715
     15  CB        28.4590   83.6730   44.3960 C.3   173  ALA173      0.0334
     16  N         27.2870   86.7770   44.5670 N.am  174  LEU174     -0.1963
     17  CA        26.3230   87.6680   43.9300 C.3   174  LEU174      0.1728
     18  C         26.7520   89.1280   43.9180 C.2   174  LEU174      0.2617
     19  O         27.3920   89.6080   44.8480 O.2   174  LEU174     -0.2715
     20  CB        25.0180   87.5990   44.7050 C.3   174  LEU174      0.0311
     21  CG        24.3400   86.2380   44.8360 C.3   174  LEU174      0.0022
     22  CD1       23.1940   86.3430   45.8290 C.3   174  LEU174      0.0001
     23  CD2       23.8410   85.7310   43.4830 C.3   174  LEU174      0.0001
     24  N         26.3500   89.8430   42.8690 N.am  175  GLY175     -0.1940
     25  CA        26.4400   91.2890   42.8690 C.3   175  GLY175      0.2014
     26  C         27.8550   91.8190   42.9330 C.2   175  GLY175      0.2639
     27  O         28.7910   91.2030   42.4260 O.2   175  GLY175     -0.2714
     28  N         28.0030   92.9850   43.5460 N.am  176  LYS176     -0.1963
     29  CA        29.3000   93.6410   43.5970 C.3   176  LYS176      0.1728
     30  C         29.3220   94.6820   44.6950 C.2   176  LYS176      0.2616
     31  O         28.2870   95.0460   45.2470 O.2   176  LYS176     -0.2715
     32  CB        29.6140   94.3140   42.2550 C.3   176  LYS176      0.0311
     33  CG        28.6800   95.4690   41.9150 C.3   176  LYS176      0.0038
     34  CD        28.9780   96.0550   40.5320 C.3   176  LYS176      0.0206
     35  CE        30.2980   96.8180   40.5010 C.3   176  LYS176      0.1093
     36  NZ        30.2480   98.1320   41.2140 N.3   176  LYS176     -0.1314
     37  N         30.5180   95.1720   45.0030 N.am  177  THR177     -0.1951
     38  CA        30.6540   96.3200   45.8840 C.3   177  THR177      0.1897
     39  C         30.5870   97.5870   45.0410 C.2   177  THR177      0.2313
     40  O         30.8490   97.5540   43.8370 O.2   177  THR177     -0.2863
     41  CB        31.9770   96.2980   46.6870 C.3   177  THR177      0.1794
     42  OG1       33.0840   96.4500   45.7900 O.3   177  THR177     -0.2208
     43  CG2       32.1370   94.9840   47.4410 C.3   177  THR177      0.0378
     44  N         34.1130   91.8000   39.0420 N.3   188  GLY188     -0.1210
     45  CA        33.1830   90.9840   38.2850 C.3   188  GLY188      0.1956
     46  C         31.9830   90.5850   39.1190 C.2   188  GLY188      0.2612
     47  O         32.1300   89.9780   40.1760 O.2   188  GLY188     -0.2717
     48  N         30.7940   90.9360   38.6410 N.am  189  ALA189     -0.1965
     49  CA        29.5540   90.6430   39.3460 C.3   189  ALA189      0.1728
     50  C         28.8170   89.4670   38.7160 C.2   189  ALA189      0.2616
     51  O         29.0840   89.0830   37.5770 O.2   189  ALA189     -0.2715
     52  CB        28.6580   91.8730   39.3710 C.3   189  ALA189      0.0334
     53  N         27.8810   88.9020   39.4670 N.am  190  ASN190     -0.1972
     54  CA        27.0760   87.7960   38.9730 C.3   190  ASN190      0.1688
     55  C         25.6640   87.8640   39.5360 C.2   190  ASN190      0.2292
     56  O         25.4540   88.3320   40.6530 O.2   190  ASN190     -0.2864
     57  CB        27.7290   86.4660   39.3500 C.3   190  ASN190      0.1181
     58  CG        27.4290   85.3650   38.3570 C.2   190  ASN190      0.2629
     59  OD1       26.4310   85.4090   37.6420 O.2   190  ASN190     -0.2716
     60  ND2       28.3050   84.3670   38.3020 N.am  190  ASN190     -0.0877
     61  N         30.5070   79.6620   43.2690 N.3   196  GLU196     -0.1231
     62  CA        31.7190   80.2140   42.6700 C.3   196  GLU196      0.1699
     63  C         32.5030   81.1770   43.5650 C.2   196  GLU196      0.2592
     64  O         33.6490   81.4950   43.2680 O.2   196  GLU196     -0.2718
     65  CB        31.4160   80.8300   41.3070 C.3   196  GLU196      0.0402
     66  CG        31.1320   79.7760   40.2520 C.3   196  GLU196      0.1161
     67  CD        30.6980   80.3690   38.9350 C.2   196  GLU196      0.3649
     68  OE1       30.0610   79.6410   38.1440 O.co2 196  GLU196     -0.2457
     69  OE2       30.9940   81.5610   38.6940 O.co2 196  GLU196     -0.2457
     70  N         31.9140   81.6250   44.6660 N.am  197  PHE197     -0.1976
     71  CA        32.6760   82.4270   45.6340 C.3   197  PHE197      0.1639
     72  C         33.8560   81.6160   46.1520 C.2   197  PHE197      0.2290
     73  O         34.9890   82.1170   46.2400 O.2   197  PHE197     -0.2864
     74  CB        31.7460   82.8560   46.7700 C.3   197  PHE197      0.0560
     75  CG        32.4230   83.5110   47.9460 C.ar  197  PHE197     -0.0200
     76  CD1       32.7700   84.8550   47.9120 C.ar  197  PHE197     -0.0042
     77  CD2       32.6100   82.8080   49.1190 C.ar  197  PHE197     -0.0042
     78  CE1       33.3440   85.4660   49.0230 C.ar  197  PHE197     -0.0003
     79  CE2       33.1790   83.4100   50.2370 C.ar  197  PHE197     -0.0003
     80  CZ        33.5440   84.7480   50.1820 C.ar  197  PHE197     -0.0000
     81  N         36.4630   80.8990   43.3410 N.3   200  ASN200     -0.1240
     82  CA        37.2500   82.1090   43.1300 C.3   200  ASN200      0.1653
     83  C         38.3080   82.2640   44.2210 C.2   200  ASN200      0.2266
     84  O         39.4760   82.5280   43.9260 O.2   200  ASN200     -0.2867
     85  CB        36.3710   83.3570   43.0590 C.3   200  ASN200      0.1155
     86  CG        35.4900   83.3870   41.8280 C.2   200  ASN200      0.2627
     87  OD1       35.7080   82.6470   40.8650 O.2   200  ASN200     -0.2716
     88  ND2       34.4790   84.2380   41.8590 N.am  200  ASN200     -0.0877
     89  N         38.1050   89.9280   39.4500 N.3   224  TYR224     -0.1227
     90  CA        37.3480   89.6550   40.6710 C.3   224  TYR224      0.1736
     91  C         37.9330   90.4310   41.8420 C.2   224  TYR224      0.2595
     92  O         39.0690   90.8920   41.7830 O.2   224  TYR224     -0.2718
     93  CB        37.3590   88.1630   41.0010 C.3   224  TYR224      0.0548
     94  CG        36.7270   87.2850   39.9470 C.ar  224  TYR224     -0.0200
     95  CD1       37.4850   86.3550   39.2500 C.ar  224  TYR224     -0.0009
     96  CD2       35.3750   87.3910   39.6460 C.ar  224  TYR224     -0.0009
     97  CE1       36.9140   85.5480   38.2850 C.ar  224  TYR224      0.0417
     98  CE2       34.7920   86.5860   38.6810 C.ar  224  TYR224      0.0417
     99  CZ        35.5700   85.6680   38.0040 C.ar  224  TYR224      0.1957
    100  OH        35.0020   84.8650   37.0380 O.3   224  TYR224     -0.2866
    101  N         37.1520   90.5720   42.9080 N.am  225  MET225     -0.1965
    102  CA        37.6670   91.1390   44.1470 C.3   225  MET225      0.1736
    103  C         37.1120   90.3740   45.3340 C.2   225  MET225      0.2616
    104  O         36.0870   89.6940   45.2240 O.2   225  MET225     -0.2715
    105  CB        37.3570   92.6400   44.2650 C.3   225  MET225      0.0427
    106  CG        35.8770   92.9910   44.4070 C.3   225  MET225      0.0599
    107  SD        35.2130   92.7790   46.0730 S.3   225  MET225     -0.1393
    108  CE        35.8460   94.2300   46.8920 C.3   225  MET225      0.0692
    109  N         37.8290   90.4600   46.4490 N.am  226  MET226     -0.1963
    110  CA        37.3990   89.9240   47.7340 C.3   226  MET226      0.1736
    111  C         37.6330   90.9700   48.8110 C.2   226  MET226      0.2616
    112  O         38.6810   91.6420   48.8270 O.2   226  MET226     -0.2715
    113  CB        38.2000   88.6650   48.0750 C.3   226  MET226      0.0427
    114  CG        37.8980   87.4740   47.1840 C.3   226  MET226      0.0599
    115  SD        36.2920   86.7130   47.5290 S.3   226  MET226     -0.1393
    116  CE        36.1140   85.6320   46.1050 C.3   226  MET226      0.0692
    117  N         36.6730   91.1160   49.7130 N.am  227  LEU227     -0.1977
    118  CA        36.8750   91.9420   50.8910 C.3   227  LEU227      0.1596
    119  C         37.8960   91.2790   51.8150 C.2   227  LEU227      0.2287
    120  O         38.0900   90.0620   51.7580 O.2   227  LEU227     -0.2864
    121  CB        35.5570   92.1010   51.6420 C.3   227  LEU227      0.0297
    122  CG        34.4160   92.7280   50.8450 C.3   227  LEU227      0.0022
    123  CD1       33.0750   92.4320   51.5200 C.3   227  LEU227      0.0001
    124  CD2       34.6250   94.2240   50.7000 C.3   227  LEU227      0.0001
    125  N         36.2360   88.4790   53.4130 N.3   230  ASP230     -0.1239
    126  CA        36.0770   87.3290   52.5100 C.3   230  ASP230      0.1674
    127  C         37.3690   86.5050   52.4810 C.2   230  ASP230      0.2266
    128  O         37.3680   85.2740   52.6040 O.2   230  ASP230     -0.2867
    129  CB        35.7990   87.7680   51.0640 C.3   230  ASP230      0.1410
    130  CG        34.4640   88.4610   50.8730 C.2   230  ASP230      0.3668
    131  OD1       33.4850   88.0970   51.5680 O.co2 230  ASP230     -0.2456
    132  OD2       34.3920   89.3350   49.9750 O.co2 230  ASP230     -0.2456
@<TRIPOS>BOND
     1   100    99    1
     2    51    50    2
     3    59    58    2
     4    99    97   ar
     5    99    98   ar
     6    68    67   ar
     7    97    95   ar
     8    45    44    1
     9    45    46    1
    10    60    58   am
    11    58    57    1
    12    48    46   am
    13    48    49    1
    14    98    96   ar
    15    69    67   ar
    16    50    49    1
    17    50    53   am
    18    67    66    1
    19    54    57    1
    20    54    53    1
    21    54    55    1
    22    46    47    2
    23    95    94   ar
    24    49    52    1
    25    89    90    1
    26    55    56    2
    27    96    94   ar
    28    94    93    1
    29    66    65    1
    30    35    34    1
    31    35    36    1
    32    34    33    1
    33    90    93    1
    34    90    91    1
    35    87    86    2
    36    65    62    1
    37    92    91    2
    38    86    88   am
    39    86    85    1
    40    91   101   am
    41    33    32    1
    42    32    29    1
    43    27    26    2
    44    62    61    1
    45    62    63    1
    46    14    13    2
    47    25    24    1
    48    25    26    1
    49    24    18   am
    50   101   102    1
    51    26    28   am
    52    85    82    1
    53    82    81    1
    54    82    83    1
    55    64    63    2
    56    23    21    1
    57    28    29    1
    58    63    70   am
    59    29    30    1
    60    40    39    2
    61    13    16   am
    62    13    12    1
    63    18    17    1
    64    18    19    2
    65    84    83    2
    66    17    16    1
    67    17    20    1
    68   102   105    1
    69   102   103    1
    70   105   106    1
    71    15    12    1
    72   106   107    1
    73    70    71    1
    74    12    11    1
    75    30    37   am
    76    30    31    2
    77    20    21    1
    78    21    22    1
    79    37    38    1
    80    39    38    1
    81   104   103    2
    82   103   109   am
    83    71    72    1
    84    71    74    1
    85    42    41    1
    86    38    41    1
    87     4     3    2
    88   107   108    1
    89   116   115    1
    90    11     3   am
    91    72    73    2
    92   109   110    1
    93     3     2    1
    94    41    43    1
    95    74    75    1
    96   114   115    1
    97   114   113    1
    98   110   113    1
    99   110   111    1
   100    76    75   ar
   101    76    78   ar
   102    75    77   ar
   103     2     1    1
   104     2     5    1
   105   111   112    2
   106   111   117   am
   107     5     6    1
   108    78    80   ar
   109    77    79   ar
   110   117   118    1
   111     6     8   ar
   112     6     7   ar
   113   132   130   ar
   114     8    10   ar
   115    80    79   ar
   116   124   122    1
   117     7     9   ar
   118   122   123    1
   119   122   121    1
   120   130   129    1
   121   130   131   ar
   122   118   121    1
   123   118   119    1
   124   129   126    1
   125    10     9   ar
   126   120   119    2
   127   127   126    1
   128   127   128    2
   129   126   125    1
