@<TRIPOS>MOLECULE
tmp/4jmdA00.pdb
 144 136 0 0 0
SMALL
GASTEIGER

@<TRIPOS>ATOM
      1  N         43.0950  -66.4950   33.8350 N.3    25  PHE25      -0.1241
      2  CA        41.7470  -66.0110   33.5180 C.3    25  PHE25       0.1605
      3  C         41.0850  -65.4340   34.7590 C.2    25  PHE25       0.2264
      4  O         41.1510  -66.0280   35.8470 O.2    25  PHE25      -0.2867
      5  CB        40.8860  -67.1650   32.9980 C.3    25  PHE25       0.0534
      6  CG        41.3370  -67.6980   31.6710 C.ar   25  PHE25      -0.0203
      7  CD1       42.3240  -68.6670   31.5920 C.ar   25  PHE25      -0.0042
      8  CD2       40.7890  -67.2040   30.4890 C.ar   25  PHE25      -0.0042
      9  CE1       42.7640  -69.1250   30.3460 C.ar   25  PHE25      -0.0003
     10  CE2       41.2220  -67.6680   29.2530 C.ar   25  PHE25      -0.0003
     11  CZ        42.1870  -68.6390   29.1800 C.ar   25  PHE25      -0.0000
     12  N         35.5170  -62.3030   30.2760 N.3    65  TRP65      -0.1241
     13  CA        36.8340  -62.6410   30.7810 C.3    65  TRP65       0.1605
     14  C         37.8640  -61.5760   30.4950 C.2    65  TRP65       0.2264
     15  O         37.7750  -60.8720   29.4730 O.2    65  TRP65      -0.2867
     16  CB        37.3500  -63.9000   30.0750 C.3    65  TRP65       0.0550
     17  CG        36.5320  -65.1200   30.2680 C.ar   65  TRP65       0.0003
     18  CD1       35.6630  -65.6940   29.3730 C.ar   65  TRP65       0.0946
     19  CD2       36.5310  -65.9800   31.4220 C.ar   65  TRP65       0.0152
     20  NE1       35.1060  -66.8300   29.9120 N.ar   65  TRP65      -0.2442
     21  CE2       35.6280  -67.0300   31.1630 C.ar   65  TRP65       0.0810
     22  CE3       37.2040  -65.9520   32.6360 C.ar   65  TRP65       0.0012
     23  CZ2       35.3720  -68.0350   32.0870 C.ar   65  TRP65       0.0191
     24  CZ3       36.9560  -66.9510   33.5600 C.ar   65  TRP65       0.0001
     25  CH2       36.0480  -67.9870   33.2760 C.ar   65  TRP65       0.0015
     26  N         37.4050  -60.9130   26.4210 N.3    83  PHE83      -0.1241
     27  CA        36.4350  -61.5300   25.5190 C.3    83  PHE83       0.1605
     28  C         35.1920  -61.9550   26.2740 C.2    83  PHE83       0.2264
     29  O         35.2070  -62.1120   27.4990 O.2    83  PHE83      -0.2867
     30  CB        37.0180  -62.7290   24.7280 C.3    83  PHE83       0.0534
     31  CG        37.3440  -63.9560   25.5560 C.ar   83  PHE83      -0.0203
     32  CD1       38.5170  -64.0320   26.2890 C.ar   83  PHE83      -0.0042
     33  CD2       36.5160  -65.0710   25.5100 C.ar   83  PHE83      -0.0042
     34  CE1       38.8380  -65.1850   27.0070 C.ar   83  PHE83      -0.0003
     35  CE2       36.8260  -66.2200   26.1930 C.ar   83  PHE83      -0.0003
     36  CZ        37.9920  -66.2960   26.9540 C.ar   83  PHE83      -0.0000
     37  N         31.9080  -64.9200   26.2970 N.3    85  GLU85      -0.1245
     38  CA        31.7580  -66.3460   26.0140 C.3    85  GLU85       0.1567
     39  C         30.4030  -66.8580   26.4550 C.2    85  GLU85       0.2260
     40  O         29.8510  -66.4010   27.4630 O.2    85  GLU85      -0.2867
     41  CB        32.8390  -67.1190   26.7780 C.3    85  GLU85       0.0388
     42  CG        32.8830  -68.6000   26.5040 C.3    85  GLU85       0.1160
     43  CD        33.9960  -69.2250   27.3440 C.2    85  GLU85       0.3649
     44  OE1       34.8410  -69.9080   26.7810 O.co2  85  GLU85      -0.2457
     45  OE2       33.9710  -69.0060   28.5740 O.co2  85  GLU85      -0.2457
     46  N         28.6920  -70.8580   26.8350 N.3    87  LEU87      -0.1245
     47  CA        28.8750  -72.2680   26.6250 C.3    87  LEU87       0.1561
     48  C         27.8160  -73.1140   27.3220 C.2    87  LEU87       0.2260
     49  O         27.1490  -72.6780   28.2620 O.2    87  LEU87      -0.2867
     50  CB        30.3030  -72.6740   27.0070 C.3    87  LEU87       0.0270
     51  CG        30.8300  -72.3150   28.3860 C.3    87  LEU87       0.0019
     52  CD1       30.2530  -73.3170   29.3530 C.3    87  LEU87       0.0001
     53  CD2       32.3230  -72.3060   28.4380 C.3    87  LEU87       0.0001
     54  N         40.9760  -66.0190   21.5170 N.3   112  PRO112     -0.2116
     55  CA        40.3740  -67.0750   22.3310 C.3   112  PRO112      0.1372
     56  C         39.7530  -68.1750   21.4840 C.2   112  PRO112      0.2244
     57  O         39.7990  -69.3450   21.8970 O.2   112  PRO112     -0.2868
     58  CB        39.3250  -66.3250   23.1550 C.3   112  PRO112      0.0268
     59  CG        39.9000  -64.9390   23.2890 C.3   112  PRO112      0.0207
     60  CD        40.6300  -64.6700   21.9910 C.3   112  PRO112      0.0892
     61  N         42.6110  -70.4550   20.3480 N.3   115  ARG115     -0.1245
     62  CA        43.1850  -71.0910   21.5320 C.3   115  ARG115      0.1563
     63  C         42.2470  -72.1620   22.0630 C.2   115  ARG115      0.2260
     64  O         42.6880  -73.1590   22.6250 O.2   115  ARG115     -0.2867
     65  CB        43.4450  -70.0370   22.6230 C.3   115  ARG115      0.0307
     66  CG        44.3670  -70.4990   23.7180 C.3   115  ARG115      0.0489
     67  CD        44.8360  -69.3400   24.5920 C.3   115  ARG115      0.2205
     68  NE        43.7260  -68.5580   25.1240 N.pl3 115  ARG115     -0.0865
     69  CZ        43.7860  -67.2480   25.3520 C.cat 115  ARG115      0.5346
     70  NH1       44.9300  -66.5890   25.1460 N.pl3 115  ARG115      0.1354
     71  NH2       42.7160  -66.5970   25.8170 N.pl3 115  ARG115      0.1354
     72  N         42.9290  -76.4920   22.7770 N.3   119  GLN119     -0.1245
     73  CA        42.5850  -77.2590   23.9810 C.3   119  GLN119      0.1566
     74  C         41.5020  -78.2810   23.7310 C.2   119  GLN119      0.2260
     75  O         41.1880  -79.0720   24.6150 O.2   119  GLN119     -0.2867
     76  CB        42.0410  -76.3600   25.0740 C.3   119  GLN119      0.0367
     77  CG        42.7980  -75.1720   25.4920 C.3   119  GLN119      0.0905
     78  CD        41.8320  -74.1590   26.1250 C.2   119  GLN119      0.2608
     79  OE1       41.0770  -74.4750   27.0530 O.2   119  GLN119     -0.2717
     80  NE2       41.8120  -72.9620   25.5850 N.am  119  GLN119     -0.0878
     81  N         38.3620  -77.2630   23.1020 N.3   121  MET121     -0.1245
     82  CA        37.0890  -76.5860   23.3860 C.3   121  MET121      0.1570
     83  C         36.5140  -76.1480   22.0470 C.2   121  MET121      0.2261
     84  O         37.2060  -75.5260   21.2480 O.2   121  MET121     -0.2867
     85  CB        37.2450  -75.3750   24.3330 C.3   121  MET121      0.0387
     86  CG        35.9400  -74.5940   24.5690 C.3   121  MET121      0.0595
     87  SD        35.0090  -75.0600   26.0450 S.3   121  MET121     -0.1393
     88  CE        35.6540  -73.8940   27.2440 C.3   121  MET121      0.0692
     89  N         34.9440  -73.9300   20.2780 N.3   123  LYS123     -0.1245
     90  CA        34.5020  -72.5290   20.1280 C.3   123  LYS123      0.1561
     91  C         34.1900  -72.1230   18.6840 C.2   123  LYS123      0.2260
     92  O         34.9460  -72.4180   17.7580 O.2   123  LYS123     -0.2867
     93  CB        35.5800  -71.5950   20.6730 C.3   123  LYS123      0.0271
     94  CG        35.8620  -71.6550   22.1730 C.3   123  LYS123      0.0035
     95  CD        36.9590  -70.6910   22.5900 C.3   123  LYS123      0.0206
     96  CE        37.3180  -70.8280   24.0820 C.3   123  LYS123      0.1093
     97  NZ        38.5540  -70.0930   24.3440 N.3   123  LYS123     -0.1314
     98  N         30.5960  -75.9890   37.3120 N.3   178  HIS178     -0.1241
     99  CA        31.6770  -75.0410   37.1700 C.3   178  HIS178      0.1621
    100  C         32.8290  -75.3580   38.1190 C.2   178  HIS178      0.2264
    101  O         33.7720  -74.5630   38.2350 O.2   178  HIS178     -0.2867
    102  CB        31.1950  -73.6020   37.4320 C.3   178  HIS178      0.0745
    103  CG        31.8550  -72.5800   36.5570 C.ar  178  HIS178      0.0817
    104  ND1       33.1940  -72.2530   36.6580 N.ar  178  HIS178     -0.2268
    105  CD2       31.3580  -71.8070   35.5680 C.ar  178  HIS178      0.1154
    106  CE1       33.4890  -71.3300   35.7570 C.ar  178  HIS178      0.1986
    107  NE2       32.3910  -71.0400   35.0780 N.ar  178  HIS178     -0.2212
    108  N         37.0100  -80.0840   32.9160 N.3   182  LEU182     -0.1245
    109  CA        36.4290  -80.1370   31.5680 C.3   182  LEU182      0.1561
    110  C         37.1490  -81.1850   30.7020 C.2   182  LEU182      0.2260
    111  O         38.3800  -81.1890   30.6020 O.2   182  LEU182     -0.2867
    112  CB        36.5340  -78.7750   30.8830 C.3   182  LEU182      0.0270
    113  CG        35.8890  -77.5810   31.5880 C.3   182  LEU182      0.0019
    114  CD1       36.0270  -76.3290   30.7210 C.3   182  LEU182      0.0001
    115  CD2       34.4490  -77.9010   31.9180 C.3   182  LEU182      0.0001
    116  N         35.0410  -65.6040   38.8540 N.3   243  TYR243     -0.1241
    117  CA        35.7940  -66.8470   38.7880 C.3   243  TYR243      0.1605
    118  C         37.2040  -66.5910   38.2610 C.2   243  TYR243      0.2264
    119  O         37.3940  -65.7900   37.3610 O.2   243  TYR243     -0.2867
    120  CB        35.0810  -67.8330   37.8450 C.3   243  TYR243      0.0534
    121  CG        35.7950  -69.1550   37.6510 C.ar  243  TYR243     -0.0201
    122  CD1       35.6370  -70.1820   38.5490 C.ar  243  TYR243     -0.0009
    123  CD2       36.6390  -69.3590   36.5700 C.ar  243  TYR243     -0.0009
    124  CE1       36.2820  -71.4080   38.3800 C.ar  243  TYR243      0.0417
    125  CE2       37.2950  -70.5720   36.3840 C.ar  243  TYR243      0.0417
    126  CZ        37.1050  -71.5940   37.2950 C.ar  243  TYR243      0.1957
    127  OH        37.7320  -72.8130   37.1420 O.3   243  TYR243     -0.2866
    128  N         41.0530  -68.8170   37.2410 N.3   245  GLU245     -0.1245
    129  CA        41.8270  -70.0680   37.1840 C.3   245  GLU245      0.1567
    130  C         43.0530  -69.8000   36.3260 C.2   245  GLU245      0.2260
    131  O         43.0740  -68.8270   35.5550 O.2   245  GLU245     -0.2867
    132  CB        41.0230  -71.2200   36.5560 C.3   245  GLU245      0.0388
    133  CG        40.7750  -71.0560   35.0690 C.3   245  GLU245      0.1160
    134  CD        40.0350  -72.2220   34.3940 C.2   245  GLU245      0.3649
    135  OE1       40.1420  -72.3130   33.1550 O.co2 245  GLU245     -0.2457
    136  OE2       39.3640  -73.0330   35.0710 O.co2 245  GLU245     -0.2457
    137  N         45.3050  -71.8860   33.4850 N.3   247  LEU247     -0.1245
    138  CA        45.2740  -73.0380   32.5810 C.3   247  LEU247      0.1561
    139  C         46.6880  -73.3540   32.1280 C.2   247  LEU247      0.2260
    140  O         47.3710  -72.5010   31.5780 O.2   247  LEU247     -0.2867
    141  CB        44.3770  -72.7010   31.3890 C.3   247  LEU247      0.0270
    142  CG        44.0140  -73.7350   30.3410 C.3   247  LEU247      0.0019
    143  CD1       43.3110  -74.9440   30.9400 C.3   247  LEU247      0.0001
    144  CD2       43.1210  -73.0510   29.2990 C.3   247  LEU247      0.0001
@<TRIPOS>BOND
     1    92    91    2
     2    91    90    1
     3    90    89    1
     4    90    93    1
     5    61    62    1
     6    93    94    1
     7    84    83    2
     8    56    57    2
     9    56    55    1
    10    54    60    1
    11    54    55    1
    12    62    63    1
    13    62    65    1
    14    60    59    1
    15    83    82    1
    16    63    64    2
    17    94    95    1
    18    55    58    1
    19    95    96    1
    20    65    66    1
    21    72    73    1
    22    81    82    1
    23    58    59    1
    24    82    85    1
    25    66    67    1
    26    74    73    1
    27    74    75    2
    28    73    76    1
    29    96    97    1
    30    85    86    1
    31    86    87    1
    32    67    68    1
    33    30    27    1
    34    30    31    1
    35    76    77    1
    36    68    69    2
    37    70    69    1
    38    69    71    1
    39    77    78    1
    40    33    31   ar
    41    33    35   ar
    42    27    28    1
    43    27    26    1
    44    31    32   ar
    45    80    78   am
    46    38    37    1
    47    38    39    1
    48    38    41    1
    49    87    88    1
    50    78    79    2
    51    35    36   ar
    52    28    29    2
    53    32    34   ar
    54    39    40    2
    55    42    41    1
    56    42    43    1
    57    47    46    1
    58    47    50    1
    59    47    48    1
    60    44    43   ar
    61    36    34   ar
    62    50    51    1
    63    48    49    2
    64    43    45   ar
    65    51    53    1
    66    51    52    1
    67    11    10   ar
    68    11     9   ar
    69    10     8   ar
    70   144   142    1
    71    18    20   ar
    72    18    17   ar
    73    15    14    2
    74    20    21   ar
    75    16    17    1
    76    16    13    1
    77    17    19   ar
    78    12    13    1
    79   142   143    1
    80   142   141    1
    81     9     7   ar
    82     8     6   ar
    83    14    13    1
    84   111   110    2
    85   110   109    1
    86   114   113    1
    87   112   109    1
    88   112   113    1
    89    21    19   ar
    90    21    23   ar
    91   141   138    1
    92    19    22   ar
    93   109   108    1
    94   140   139    2
    95   113   115    1
    96     7     6   ar
    97     6     5    1
    98    23    25   ar
    99   139   138    1
   100   138   137    1
   101    22    24   ar
   102     5     2    1
   103   135   134   ar
   104    25    24   ar
   105     2     1    1
   106     2     3    1
   107   134   133    1
   108   134   136   ar
   109     3     4    2
   110   133   132    1
   111   107   105   ar
   112   107   106   ar
   113   131   130    2
   114   105   103   ar
   115   106   104   ar
   116   130   129    1
   117   125   123   ar
   118   125   126   ar
   119   132   129    1
   120   103   104   ar
   121   103   102    1
   122   123   121   ar
   123   127   126    1
   124    99    98    1
   125    99   102    1
   126    99   100    1
   127   129   128    1
   128   126   124   ar
   129   119   118    2
   130   121   120    1
   131   121   122   ar
   132   120   117    1
   133   100   101    2
   134   118   117    1
   135   124   122   ar
   136   117   116    1
