@<TRIPOS>MOLECULE
tmp/4jmeB00.pdb
 136 128 0 0 0
SMALL
GASTEIGER

@<TRIPOS>ATOM
      1  N         21.6950  -43.1690   34.1870 N.3    29  PHE29      -0.1241
      2  CA        23.0000  -43.6930   33.7950 C.3    29  PHE29       0.1605
      3  C         23.7360  -44.2290   35.0250 C.2    29  PHE29       0.2264
      4  O         23.7170  -43.6060   36.0960 O.2    29  PHE29      -0.2867
      5  CB        23.8530  -42.5820   33.1630 C.3    29  PHE29       0.0534
      6  CG        23.3110  -42.0710   31.8710 C.ar   29  PHE29      -0.0203
      7  CD1       22.3710  -41.0580   31.8480 C.ar   29  PHE29      -0.0042
      8  CD2       23.7390  -42.6150   30.6660 C.ar   29  PHE29      -0.0042
      9  CE1       21.8530  -40.6020   30.6460 C.ar   29  PHE29      -0.0003
     10  CE2       23.2220  -42.1640   29.4680 C.ar   29  PHE29      -0.0003
     11  CZ        22.2810  -41.1420   29.4550 C.ar   29  PHE29      -0.0000
     12  N         29.0310  -47.4230   30.2860 N.3    69  TRP69      -0.1241
     13  CA        27.7430  -47.1030   30.8770 C.3    69  TRP69       0.1605
     14  C         26.7060  -48.1800   30.6710 C.2    69  TRP69       0.2264
     15  O         26.7250  -48.8880   29.6540 O.2    69  TRP69      -0.2867
     16  CB        27.1630  -45.8600   30.1940 C.3    69  TRP69       0.0550
     17  CG        27.9890  -44.6200   30.3090 C.ar   69  TRP69       0.0003
     18  CD1       28.7520  -44.0460   29.3300 C.ar   69  TRP69       0.0946
     19  CD2       28.1280  -43.7850   31.4690 C.ar   69  TRP69       0.0152
     20  NE1       29.3590  -42.9110   29.8170 N.ar   69  TRP69      -0.2442
     21  CE2       28.9900  -42.7310   31.1200 C.ar   69  TRP69       0.0810
     22  CE3       27.6040  -43.8290   32.7650 C.ar   69  TRP69       0.0012
     23  CZ2       29.3620  -41.7270   32.0310 C.ar   69  TRP69       0.0191
     24  CZ3       27.9720  -42.8370   33.6730 C.ar   69  TRP69       0.0001
     25  CH2       28.8370  -41.7960   33.2940 C.ar   69  TRP69       0.0015
     26  N         26.9160  -48.9470   26.5520 N.3    87  PHE87      -0.1241
     27  CA        27.8480  -48.3660   25.5790 C.3    87  PHE87       0.1605
     28  C         29.1240  -47.8870   26.2300 C.2    87  PHE87       0.2264
     29  O         29.1640  -47.6370   27.4290 O.2    87  PHE87      -0.2867
     30  CB        27.2220  -47.2110   24.7710 C.3    87  PHE87       0.0534
     31  CG        26.9110  -45.9750   25.5570 C.ar   87  PHE87      -0.0203
     32  CD1       25.7830  -45.9270   26.3620 C.ar   87  PHE87      -0.0042
     33  CD2       27.7230  -44.8440   25.4680 C.ar   87  PHE87      -0.0042
     34  CE1       25.4660  -44.7700   27.0770 C.ar   87  PHE87      -0.0003
     35  CE2       27.4040  -43.6770   26.1930 C.ar   87  PHE87      -0.0003
     36  CZ        26.2810  -43.6410   26.9770 C.ar   87  PHE87      -0.0000
     37  N         32.3970  -44.9610   25.9390 N.3    89  GLU89      -0.1245
     38  CA        32.4960  -43.5380   25.6330 C.3    89  GLU89       0.1567
     39  C         33.8920  -43.0120   25.9460 C.2    89  GLU89       0.2260
     40  O         34.5260  -43.4560   26.8910 O.2    89  GLU89      -0.2867
     41  CB        31.4870  -42.7950   26.5110 C.3    89  GLU89       0.0388
     42  CG        31.3860  -41.3310   26.2850 C.3    89  GLU89       0.1160
     43  CD        30.3120  -40.7520   27.1800 C.2    89  GLU89       0.3649
     44  OE1       29.2260  -40.4350   26.6470 O.co2  89  GLU89      -0.2457
     45  OE2       30.5370  -40.6590   28.4010 O.co2  89  GLU89      -0.2457
     46  N         35.5050  -38.9480   26.2180 N.3    91  LEU91      -0.1245
     47  CA        35.2300  -37.5080   26.1350 C.3    91  LEU91       0.1561
     48  C         36.5010  -36.7010   26.4400 C.2    91  LEU91       0.2260
     49  O         37.3290  -37.1130   27.2410 O.2    91  LEU91      -0.2867
     50  CB        34.2300  -37.0810   27.2500 C.3    91  LEU91       0.0270
     51  CG        32.8650  -37.7150   27.4530 C.3    91  LEU91       0.0019
     52  CD1       32.0640  -37.0470   28.5340 C.3    91  LEU91       0.0001
     53  CD2       32.1070  -37.6730   26.1420 C.3    91  LEU91       0.0001
     54  N         23.0650  -43.9730   21.7170 N.3   116  PRO116     -0.2116
     55  CA        23.7470  -42.9390   22.4950 C.3   116  PRO116      0.1372
     56  C         24.3400  -41.8200   21.6340 C.2   116  PRO116      0.2244
     57  O         24.3520  -40.6750   22.0610 O.2   116  PRO116     -0.2868
     58  CB        24.8450  -43.7160   23.2120 C.3   116  PRO116      0.0268
     59  CG        24.2590  -45.0960   23.3850 C.3   116  PRO116      0.0207
     60  CD        23.4320  -45.3350   22.1480 C.3   116  PRO116      0.0892
     61  N         21.4370  -39.5870   20.6160 N.3   119  ARG119     -0.1231
     62  CA        20.9220  -38.9160   21.8170 C.3   119  ARG119      0.1694
     63  C         21.8730  -37.8050   22.2420 C.2   119  ARG119      0.2592
     64  O         21.4430  -36.7660   22.7570 O.2   119  ARG119     -0.2718
     65  CB        20.7230  -39.9340   22.9480 C.3   119  ARG119      0.0321
     66  CG        19.8360  -39.4550   24.0680 C.3   119  ARG119      0.0489
     67  CD        19.4020  -40.6120   24.9630 C.3   119  ARG119      0.2205
     68  NE        20.5630  -41.3520   25.4300 N.pl3 119  ARG119     -0.0865
     69  CZ        20.5820  -42.6580   25.6610 C.cat 119  ARG119      0.5346
     70  NH1       19.4790  -43.3790   25.4830 N.pl3 119  ARG119      0.1354
     71  NH2       21.7120  -43.2410   26.0570 N.pl3 119  ARG119      0.1354
     72  N         23.1710  -38.0210   22.0390 N.am  120  GLY120     -0.1957
     73  CA        24.1530  -36.9790   22.2640 C.3   120  GLY120      0.1869
     74  C         23.8630  -35.7350   21.4490 C.2   120  GLY120      0.2309
     75  O         23.8850  -34.6130   21.9850 O.2   120  GLY120     -0.2863
     76  N         21.2200  -33.4610   22.7490 N.3   123  GLN123     -0.1245
     77  CA        21.6600  -32.6520   23.9080 C.3   123  GLN123      0.1566
     78  C         22.7170  -31.6380   23.5410 C.2   123  GLN123      0.2260
     79  O         23.1350  -30.8440   24.3880 O.2   123  GLN123     -0.2867
     80  CB        22.3150  -33.5130   24.9880 C.3   123  GLN123      0.0367
     81  CG        21.5720  -34.6330   25.5480 C.3   123  GLN123      0.0905
     82  CD        22.5280  -35.7490   26.0300 C.2   123  GLN123      0.2608
     83  OE1       23.5310  -35.5200   26.7240 O.2   123  GLN123     -0.2717
     84  NE2       22.2110  -36.9520   25.6490 N.am  123  GLN123     -0.0878
     85  N         25.8370  -32.7040   22.7530 N.3   125  MET125     -0.1245
     86  CA        27.1450  -33.3160   23.0060 C.3   125  MET125      0.1570
     87  C         27.5930  -33.8800   21.6830 C.2   125  MET125      0.2261
     88  O         26.8560  -34.6560   21.0710 O.2   125  MET125     -0.2867
     89  CB        27.1290  -34.4420   24.0700 C.3   125  MET125      0.0387
     90  CG        28.5770  -34.9510   24.4160 C.3   125  MET125      0.0595
     91  SD        28.6620  -36.2490   25.6900 S.3   125  MET125     -0.1393
     92  CE        27.8590  -35.3760   27.0180 C.3   125  MET125      0.0692
     93  N         28.9370  -36.1720   19.8290 N.3   127  LYS127     -0.1245
     94  CA        29.3750  -37.5480   19.7560 C.3   127  LYS127      0.1561
     95  C         29.5540  -38.0490   18.3180 C.2   127  LYS127      0.2260
     96  O         28.6890  -37.8600   17.4400 O.2   127  LYS127     -0.2867
     97  CB        28.3990  -38.4600   20.5160 C.3   127  LYS127      0.0271
     98  CG        28.3290  -38.2590   22.0220 C.3   127  LYS127      0.0035
     99  CD        27.2990  -39.2190   22.6290 C.3   127  LYS127      0.0206
    100  CE        26.9970  -38.9890   24.1060 C.3   127  LYS127      0.1093
    101  NZ        25.8540  -39.8950   24.5610 N.3   127  LYS127     -0.1314
    102  N         34.3730  -33.5830   36.4610 N.3   182  HIS182     -0.1241
    103  CA        33.2730  -34.5490   36.4120 C.3   182  HIS182      0.1621
    104  C         32.1570  -34.1940   37.4100 C.2   182  HIS182      0.2264
    105  O         31.1780  -34.9320   37.5600 O.2   182  HIS182     -0.2867
    106  CB        33.7900  -35.9780   36.6740 C.3   182  HIS182      0.0745
    107  CG        33.0700  -37.0330   35.8900 C.ar  182  HIS182      0.0817
    108  ND1       31.7570  -37.3730   36.1320 N.ar  182  HIS182     -0.2268
    109  CD2       33.4860  -37.8340   34.8780 C.ar  182  HIS182      0.1154
    110  CE1       31.3880  -38.3320   35.2950 C.ar  182  HIS182      0.1986
    111  NE2       32.4160  -38.6220   34.5090 N.ar  182  HIS182     -0.2212
    112  N         27.6510  -29.5330   32.3050 N.3   186  LEU186     -0.1245
    113  CA        28.2050  -29.4950   30.9600 C.3   186  LEU186      0.1561
    114  C         27.4150  -28.4880   30.1310 C.2   186  LEU186      0.2260
    115  O         26.1720  -28.4790   30.1450 O.2   186  LEU186     -0.2867
    116  CB        28.1000  -30.8570   30.2920 C.3   186  LEU186      0.0270
    117  CG        28.8300  -32.0180   30.9570 C.3   186  LEU186      0.0019
    118  CD1       28.6590  -33.3300   30.1600 C.3   186  LEU186      0.0001
    119  CD2       30.2690  -31.6540   31.0870 C.3   186  LEU186      0.0001
    120  N         23.9260  -40.7670   37.3930 N.3   250  GLU250     -0.1245
    121  CA        23.1290  -39.5470   37.3360 C.3   250  GLU250      0.1567
    122  C         21.8320  -39.8140   36.5930 C.2   250  GLU250      0.2260
    123  O         21.7140  -40.7960   35.8510 O.2   250  GLU250     -0.2867
    124  CB        23.8800  -38.4300   36.5900 C.3   250  GLU250      0.0388
    125  CG        24.0330  -38.6700   35.0900 C.3   250  GLU250      0.1160
    126  CD        24.7140  -37.5210   34.3290 C.2   250  GLU250      0.3649
    127  OE1       24.4940  -37.4300   33.1070 O.co2 250  GLU250     -0.2457
    128  OE2       25.4650  -36.7190   34.9330 O.co2 250  GLU250     -0.2457
    129  N         19.5060  -37.7510   33.8230 N.3   252  LEU252     -0.1245
    130  CA        19.5520  -36.6370   32.8800 C.3   252  LEU252      0.1561
    131  C         18.1200  -36.3130   32.4680 C.2   252  LEU252      0.2260
    132  O         17.3920  -37.1880   32.0180 O.2   252  LEU252     -0.2867
    133  CB        20.4370  -37.0470   31.6880 C.3   252  LEU252      0.0270
    134  CG        20.5950  -36.0810   30.5120 C.3   252  LEU252      0.0019
    135  CD1       21.2200  -34.7710   30.9760 C.3   252  LEU252      0.0001
    136  CD2       21.4310  -36.7210   29.3950 C.3   252  LEU252      0.0001
@<TRIPOS>BOND
     1    96    95    2
     2    95    94    1
     3    94    93    1
     4    94    97    1
     5    97    98    1
     6    61    62    1
     7    88    87    2
     8    74    75    2
     9    74    73    1
    10    56    57    2
    11    56    55    1
    12    87    86    1
    13    54    60    1
    14    54    55    1
    15    62    63    1
    16    62    65    1
    17    98    99    1
    18    72    63   am
    19    72    73    1
    20    60    59    1
    21    63    64    2
    22    55    58    1
    23    99   100    1
    24    76    77    1
    25    85    86    1
    26    65    66    1
    27    86    89    1
    28    58    59    1
    29    78    77    1
    30    78    79    2
    31    77    80    1
    32    66    67    1
    33    89    90    1
    34   100   101    1
    35    90    91    1
    36    30    31    1
    37    30    27    1
    38    67    68    1
    39    80    81    1
    40    68    69    2
    41    33    31   ar
    42    33    35   ar
    43    70    69    1
    44    81    82    1
    45    31    32   ar
    46    27    28    1
    47    27    26    1
    48    38    37    1
    49    38    39    1
    50    38    41    1
    51    84    82   am
    52    69    71    1
    53    91    92    1
    54    39    40    2
    55    82    83    2
    56    47    46    1
    57    47    48    1
    58    47    50    1
    59    53    51    1
    60    35    36   ar
    61    28    29    2
    62    42    41    1
    63    42    43    1
    64    32    34   ar
    65    48    49    2
    66    44    43   ar
    67    36    34   ar
    68    43    45   ar
    69    50    51    1
    70    51    52    1
    71    18    20   ar
    72    18    17   ar
    73   136   134    1
    74    11    10   ar
    75    11     9   ar
    76    10     8   ar
    77    15    14    2
    78    20    21   ar
    79   114   115    2
    80   114   113    1
    81   118   117    1
    82    16    17    1
    83    16    13    1
    84    12    13    1
    85   116   117    1
    86   116   113    1
    87    17    19   ar
    88   134   135    1
    89   134   133    1
    90     9     7   ar
    91     8     6   ar
    92    14    13    1
    93   117   119    1
    94   113   112    1
    95    21    19   ar
    96    21    23   ar
    97    19    22   ar
    98   133   130    1
    99     7     6   ar
   100     6     5    1
   101   132   131    2
   102    23    25   ar
   103   131   130    1
   104    22    24   ar
   105   130   129    1
   106   127   126   ar
   107     5     2    1
   108    25    24   ar
   109     2     1    1
   110     2     3    1
   111   126   128   ar
   112   126   125    1
   113   111   109   ar
   114   111   110   ar
   115   109   107   ar
   116     3     4    2
   117   125   124    1
   118   110   108   ar
   119   123   122    2
   120   107   108   ar
   121   107   106    1
   122   103   102    1
   123   103   106    1
   124   103   104    1
   125   124   121    1
   126   122   121    1
   127   121   120    1
   128   104   105    2
