@<TRIPOS>MOLECULE
tmp/4jmhA00.pdb
 228 225 0 0 0
SMALL
GASTEIGER

@<TRIPOS>ATOM
      1  N        -23.6310  -21.2750   -3.9600 N.3    21  SER21      -0.1202
      2  CA       -24.3740  -22.0080   -4.9770 C.3    21  SER21       0.2020
      3  C        -23.5950  -23.2740   -5.3400 C.2    21  SER21       0.2619
      4  O        -22.3640  -23.2460   -5.4240 O.2    21  SER21      -0.2717
      5  CB       -24.5330  -21.0990   -6.2180 C.3    21  SER21       0.2103
      6  OG       -24.8560  -21.8130   -7.4100 O.3    21  SER21      -0.2182
      7  N        -24.2840  -24.3830   -5.5830 N.am   22  ARG22      -0.1965
      8  CA       -23.5750  -25.5860   -6.0660 C.3    22  ARG22       0.1729
      9  C        -23.2060  -25.5040   -7.5570 C.2    22  ARG22       0.2616
     10  O        -22.3190  -26.2210   -8.0310 O.2    22  ARG22      -0.2715
     11  CB       -24.4000  -26.8490   -5.8140 C.3    22  ARG22       0.0348
     12  CG       -24.7390  -27.0950   -4.3600 C.3    22  ARG22       0.0492
     13  CD       -25.9380  -28.0030   -4.2670 C.3    22  ARG22       0.2205
     14  NE       -27.1430  -27.3570   -4.7670 N.pl3  22  ARG22      -0.0865
     15  CZ       -28.3090  -27.9750   -4.9310 C.cat  22  ARG22       0.5346
     16  NH1      -28.4240  -29.2720   -4.6400 N.pl3  22  ARG22       0.1354
     17  NH2      -29.3620  -27.3010   -5.3880 N.pl3  22  ARG22       0.1354
     18  N        -23.8970  -24.6440   -8.3000 N.am   23  ASN23      -0.1958
     19  CA       -23.6640  -24.5430   -9.7410 C.3    23  ASN23       0.1819
     20  C        -22.9470  -23.2550  -10.1470 C.2    23  ASN23       0.2621
     21  O        -22.0600  -23.2870  -11.0040 O.2    23  ASN23      -0.2715
     22  CB       -24.9780  -24.7050  -10.5200 C.3    23  ASN23       0.1195
     23  CG       -25.4590  -26.1530  -10.5660 C.2    23  ASN23       0.2630
     24  OD1      -24.7250  -27.0590  -11.0030 O.2    23  ASN23      -0.2716
     25  ND2      -26.6950  -26.3810  -10.1130 N.am   23  ASN23      -0.0877
     26  N        -23.3100  -22.1360   -9.5180 N.am   24  GLN24      -0.1977
     27  CA       -22.7150  -20.8360   -9.8540 C.3    24  GLN24       0.1601
     28  C        -21.5820  -20.3820   -8.9260 C.2    24  GLN24       0.2287
     29  O        -21.2280  -21.0670   -7.9650 O.2    24  GLN24      -0.2864
     30  CB       -23.7930  -19.7610   -9.9750 C.3    24  GLN24       0.0394
     31  CG       -24.6630  -19.9440  -11.2170 C.3    24  GLN24       0.0908
     32  CD       -26.0200  -19.2860  -11.0820 C.2    24  GLN24       0.2608
     33  OE1      -26.9790  -19.8900  -10.5740 O.2    24  GLN24      -0.2717
     34  NE2      -26.1100  -18.0320  -11.5280 N.am   24  GLN24      -0.0878
     35  N        -38.9570  -11.9250    6.2400 N.3    45  ARG45      -0.1245
     36  CA       -38.4450  -12.3620    4.9450 C.3    45  ARG45       0.1563
     37  C        -38.8150  -11.4270    3.7960 C.2    45  ARG45       0.2260
     38  O        -38.0350  -11.2520    2.8550 O.2    45  ARG45      -0.2867
     39  CB       -38.9490  -13.7810    4.6560 C.3    45  ARG45       0.0307
     40  CG       -38.6100  -14.3500    3.2930 C.3    45  ARG45       0.0489
     41  CD       -39.2080  -15.7350    3.1440 C.3    45  ARG45       0.2205
     42  NE       -38.9690  -16.2880    1.8170 N.pl3  45  ARG45      -0.0865
     43  CZ       -38.5480  -17.5280    1.5790 C.cat  45  ARG45       0.5346
     44  NH1      -38.3160  -18.3610    2.5840 N.pl3  45  ARG45       0.1354
     45  NH2      -38.3600  -17.9300    0.3270 N.pl3  45  ARG45       0.1354
     46  N        -30.7820  -13.3280    8.9700 N.3    64  ARG64      -0.1245
     47  CA       -31.8480  -12.9800    9.8820 C.3    64  ARG64       0.1563
     48  C        -32.2030  -14.1920   10.7150 C.2    64  ARG64       0.2260
     49  O        -31.8040  -15.3120   10.3940 O.2    64  ARG64      -0.2867
     50  CB       -33.0700  -12.5590    9.0840 C.3    64  ARG64       0.0307
     51  CG       -33.4950  -13.5710    8.0460 C.3    64  ARG64       0.0489
     52  CD       -34.3880  -12.9440    6.9900 C.3    64  ARG64       0.2205
     53  NE       -34.6490  -13.8730    5.8950 N.pl3  64  ARG64      -0.0865
     54  CZ       -35.5850  -14.8190    5.9340 C.cat  64  ARG64       0.5346
     55  NH1      -36.3460  -14.9570    7.0200 N.pl3  64  ARG64       0.1354
     56  NH2      -35.7540  -15.6330    4.8960 N.pl3  64  ARG64       0.1354
     57  N        -34.9450  -16.8600   11.6180 N.3    66  SER66      -0.1202
     58  CA       -35.9190  -17.4780   10.7330 C.3    66  SER66       0.2020
     59  C        -37.3600  -17.2580   11.1930 C.2    66  SER66       0.2619
     60  O        -37.6670  -17.3810   12.3890 O.2    66  SER66      -0.2717
     61  CB       -35.6350  -18.9750   10.5940 C.3    66  SER66       0.2103
     62  OG       -36.5750  -19.5870    9.7280 O.3    66  SER66      -0.2182
     63  N        -38.2300  -16.9410   10.2310 N.am   67  GLU67      -0.1965
     64  CA       -39.6710  -16.8330   10.4640 C.3    67  GLU67       0.1733
     65  C        -40.3240  -18.1920   10.7310 C.2    67  GLU67       0.2617
     66  O        -40.8420  -18.4450   11.8210 O.2    67  GLU67      -0.2715
     67  CB       -40.3750  -16.2330    9.2470 C.3    67  GLU67       0.0429
     68  CG       -39.9840  -14.8320    8.8420 C.3    67  GLU67       0.1163
     69  CD       -41.0860  -14.1800    8.0100 C.2    67  GLU67       0.3649
     70  OE1      -42.2720  -14.5240    8.2370 O.co2  67  GLU67      -0.2457
     71  OE2      -40.7790  -13.3430    7.1300 O.co2  67  GLU67      -0.2457
     72  N        -40.3200  -19.0490    9.7100 N.am   68  SER68      -0.1950
     73  CA       -41.0520  -20.3110    9.7580 C.3    68  SER68       0.1924
     74  C        -40.4610  -21.3200   10.7450 C.2    68  SER68       0.2314
     75  O        -41.1600  -22.2200   11.2070 O.2    68  SER68      -0.2863
     76  CB       -41.1650  -20.9200    8.3610 C.3    68  SER68       0.2116
     77  OG       -40.0830  -20.5190    7.5460 O.3    68  SER68      -0.2180
     78  N        -31.8730  -17.9230    9.0010 N.3    74  SER74      -0.1217
     79  CA       -31.9460  -17.9540    7.5450 C.3    74  SER74       0.1889
     80  C        -30.8960  -17.0220    6.9490 C.2    74  SER74       0.2288
     81  O        -30.5330  -16.0090    7.5530 O.2    74  SER74      -0.2866
     82  CB       -33.3370  -17.5480    7.0480 C.3    74  SER74       0.2089
     83  OG       -34.3350  -18.4470    7.5020 O.3    74  SER74      -0.2183
     84  N        -28.9520  -13.1460   -6.1620 N.3    79  PHE79      -0.1241
     85  CA       -28.4060  -14.0410   -7.2040 C.3    79  PHE79       0.1605
     86  C        -28.6390  -13.5040   -8.6130 C.2    79  PHE79       0.2264
     87  O        -29.2730  -14.1830   -9.4280 O.2    79  PHE79      -0.2867
     88  CB       -29.1350  -15.3880   -7.1730 C.3    79  PHE79       0.0534
     89  CG       -28.4210  -16.4670   -6.4310 C.ar   79  PHE79      -0.0203
     90  CD1      -27.8040  -16.2130   -5.2110 C.ar   79  PHE79      -0.0042
     91  CD2      -28.4180  -17.7620   -6.9250 C.ar   79  PHE79      -0.0042
     92  CE1      -27.1670  -17.2330   -4.5110 C.ar   79  PHE79      -0.0003
     93  CE2      -27.7940  -18.7950   -6.2290 C.ar   79  PHE79      -0.0003
     94  CZ       -27.1670  -18.5290   -5.0220 C.ar   79  PHE79      -0.0000
     95  N        -32.5770  -15.1490   -3.1210 N.3    84  GLN84      -0.1231
     96  CA       -32.6480  -16.5450   -2.6770 C.3    84  GLN84       0.1698
     97  C        -32.4810  -16.6660   -1.1590 C.2    84  GLN84       0.2592
     98  O        -31.6870  -15.9450   -0.5500 O.2    84  GLN84      -0.2718
     99  CB       -31.5600  -17.3730   -3.3610 C.3    84  GLN84       0.0381
    100  CG       -31.4870  -17.2160   -4.8710 C.3    84  GLN84       0.0905
    101  CD       -32.5180  -18.0470   -5.6080 C.2    84  GLN84       0.2608
    102  OE1      -33.4490  -18.5810   -5.0100 O.2    84  GLN84      -0.2717
    103  NE2      -32.3520  -18.1610   -6.9240 N.am   84  GLN84      -0.0878
    104  N        -33.2210  -17.5880   -0.5530 N.am   85  HIS85      -0.1962
    105  CA       -33.1300  -17.8060    0.8840 C.3    85  HIS85       0.1787
    106  C        -32.5460  -19.1810    1.2250 C.2    85  HIS85       0.2620
    107  O        -33.0180  -20.2170    0.7390 O.2    85  HIS85      -0.2715
    108  CB       -34.5010  -17.6390    1.5370 C.3    85  HIS85       0.0785
    109  CG       -35.1280  -16.3080    1.2850 C.ar   85  HIS85       0.0821
    110  ND1      -34.8770  -15.2050    2.0770 N.ar   85  HIS85      -0.2267
    111  CD2      -35.9870  -15.8910    0.3260 C.ar   85  HIS85       0.1154
    112  CE1      -35.5600  -14.1740    1.6210 C.ar   85  HIS85       0.1986
    113  NE2      -36.2440  -14.5620    0.5600 N.ar   85  HIS85      -0.2212
    114  N        -31.5170  -19.1820    2.0640 N.am   86  PHE86      -0.1960
    115  CA       -30.9340  -20.4160    2.5620 C.3    86  PHE86       0.1771
    116  C        -31.3340  -20.6670    4.0130 C.2    86  PHE86       0.2619
    117  O        -31.5010  -19.7300    4.8140 O.2    86  PHE86      -0.2715
    118  CB       -29.4120  -20.3590    2.4810 C.3    86  PHE86       0.0574
    119  CG       -28.8850  -20.3840    1.0880 C.ar   86  PHE86      -0.0200
    120  CD1      -28.9690  -19.2590    0.2780 C.ar   86  PHE86      -0.0042
    121  CD2      -28.3030  -21.5320    0.5800 C.ar   86  PHE86      -0.0042
    122  CE1      -28.4890  -19.2810   -1.0090 C.ar   86  PHE86      -0.0003
    123  CE2      -27.8200  -21.5560   -0.7060 C.ar   86  PHE86      -0.0003
    124  CZ       -27.9120  -20.4160   -1.5040 C.ar   86  PHE86      -0.0000
    125  N        -31.4800  -21.9450    4.3410 N.am   87  LYS87      -0.1977
    126  CA       -31.6840  -22.3570    5.7090 C.3    87  LYS87       0.1596
    127  C        -30.2980  -22.6420    6.2380 C.2    87  LYS87       0.2287
    128  O        -29.4720  -23.2160    5.5310 O.2    87  LYS87      -0.2864
    129  CB       -32.5160  -23.6270    5.7520 C.3    87  LYS87       0.0298
    130  CG       -33.1400  -23.8740    7.0790 C.3    87  LYS87       0.0038
    131  CD       -34.0750  -22.7470    7.3310 C.3    87  LYS87       0.0206
    132  CE       -34.5010  -22.6660    8.7570 C.3    87  LYS87       0.1093
    133  NZ       -35.6610  -21.7350    8.7730 N.3    87  LYS87      -0.1314
    134  N        -28.2710  -24.9040    8.2890 N.3    89  LEU89      -0.1245
    135  CA       -28.3950  -26.2200    8.8980 C.3    89  LEU89       0.1561
    136  C        -27.5200  -26.3130   10.1430 C.2    89  LEU89       0.2260
    137  O        -26.4830  -25.6460   10.2300 O.2    89  LEU89      -0.2867
    138  CB       -28.0040  -27.3240    7.9190 C.3    89  LEU89       0.0270
    139  CG       -28.6850  -27.4580    6.5580 C.3    89  LEU89       0.0019
    140  CD1      -28.0720  -28.6210    5.8080 C.3    89  LEU89       0.0001
    141  CD2      -30.1820  -27.6300    6.6740 C.3    89  LEU89       0.0001
    142  N        -24.4000  -25.3810    5.2290 N.3    98  LEU98      -0.1231
    143  CA       -25.4350  -25.0740    4.2480 C.3    98  LEU98       0.1693
    144  C        -25.8780  -26.3130    3.4570 C.2    98  LEU98       0.2592
    145  O        -27.0480  -26.4490    3.0880 O.2    98  LEU98      -0.2718
    146  CB       -24.9310  -23.9910    3.2810 C.3    98  LEU98       0.0284
    147  CG       -24.6860  -22.5590    3.7810 C.3    98  LEU98       0.0019
    148  CD1      -24.3520  -21.5940    2.6380 C.3    98  LEU98       0.0001
    149  CD2      -25.8760  -22.0400    4.5740 C.3    98  LEU98       0.0001
    150  N        -24.9470  -27.2230    3.1980 N.am   99  TRP99      -0.1962
    151  CA       -25.2300  -28.3410    2.3050 C.3    99  TRP99       0.1771
    152  C        -24.8090  -29.6960    2.8820 C.2    99  TRP99       0.2619
    153  O        -23.6470  -29.9000    3.2110 O.2    99  TRP99      -0.2715
    154  CB       -24.5120  -28.1310    0.9620 C.3    99  TRP99       0.0590
    155  CG       -24.9810  -26.9180    0.1790 C.ar   99  TRP99       0.0006
    156  CD1      -24.3130  -25.7230    0.0150 C.ar   99  TRP99       0.0946
    157  CD2      -26.2060  -26.7950   -0.5570 C.ar   99  TRP99       0.0152
    158  NE1      -25.0500  -24.8760   -0.7790 N.ar   99  TRP99      -0.2442
    159  CE2      -26.2160  -25.5040   -1.1390 C.ar   99  TRP99       0.0810
    160  CE3      -27.2950  -27.6510   -0.7810 C.ar   99  TRP99       0.0012
    161  CZ2      -27.2700  -25.0530   -1.9340 C.ar   99  TRP99       0.0191
    162  CZ3      -28.3420  -27.2070   -1.5690 C.ar   99  TRP99       0.0001
    163  CH2      -28.3210  -25.9200   -2.1420 C.ar   99  TRP99       0.0015
    164  N        -25.7370  -30.6390    2.9770 N.am  100  VAL100     -0.1977
    165  CA       -25.3560  -31.9800    3.4080 C.3   100  VAL100      0.1596
    166  C        -24.6110  -32.6580    2.2750 C.2   100  VAL100      0.2287
    167  O        -25.1480  -32.7880    1.1780 O.2   100  VAL100     -0.2864
    168  CB       -26.5730  -32.8570    3.7820 C.3   100  VAL100      0.0276
    169  CG1      -26.1320  -34.2560    4.0590 C.3   100  VAL100      0.0022
    170  CG2      -27.3190  -32.2900    4.9800 C.3   100  VAL100      0.0022
    171  N        -28.2110  -36.4210   -1.3800 N.3   135  TYR135     -0.1227
    172  CA       -29.2150  -36.0600   -0.3950 C.3   135  TYR135      0.1736
    173  C        -30.2510  -35.0950   -0.9530 C.2   135  TYR135      0.2595
    174  O        -31.2580  -34.8210   -0.3000 O.2   135  TYR135     -0.2718
    175  CB       -28.5720  -35.4450    0.8440 C.3   135  TYR135      0.0548
    176  CG       -28.1080  -36.4410    1.8720 C.ar  135  TYR135     -0.0200
    177  CD1      -28.8440  -36.6740    3.0290 C.ar  135  TYR135     -0.0009
    178  CD2      -26.9240  -37.1360    1.7000 C.ar  135  TYR135     -0.0009
    179  CE1      -28.4100  -37.5980    3.9840 C.ar  135  TYR135      0.0417
    180  CE2      -26.4800  -38.0430    2.6480 C.ar  135  TYR135      0.0417
    181  CZ       -27.2260  -38.2760    3.7730 C.ar  135  TYR135      0.1957
    182  OH       -26.7710  -39.1880    4.6870 O.3   135  TYR135     -0.2866
    183  N        -30.0210  -34.5730   -2.1560 N.am  136  TYR136     -0.1962
    184  CA       -30.9280  -33.5620   -2.6830 C.3   136  TYR136      0.1771
    185  C        -31.8720  -34.0640   -3.7830 C.2   136  TYR136      0.2619
    186  O        -32.7120  -33.2980   -4.2930 O.2   136  TYR136     -0.2715
    187  CB       -30.1530  -32.2900   -3.0360 C.3   136  TYR136      0.0574
    188  CG       -29.6420  -31.6830   -1.7670 C.ar  136  TYR136     -0.0198
    189  CD1      -30.4300  -30.7940   -1.0300 C.ar  136  TYR136     -0.0009
    190  CD2      -28.4130  -32.0720   -1.2380 C.ar  136  TYR136     -0.0009
    191  CE1      -29.9840  -30.2790    0.1750 C.ar  136  TYR136      0.0417
    192  CE2      -27.9690  -31.5690   -0.0270 C.ar  136  TYR136      0.0417
    193  CZ       -28.7550  -30.6780    0.6660 C.ar  136  TYR136      0.1957
    194  OH       -28.2980  -30.1790    1.8580 O.3   136  TYR136     -0.2866
    195  N        -31.7630  -35.3580   -4.1070 N.am  137  VAL137     -0.1963
    196  CA       -32.6710  -35.9850   -5.0520 C.3   137  VAL137      0.1727
    197  C        -33.9730  -36.2750   -4.3350 C.2   137  VAL137      0.2616
    198  O        -33.9660  -36.9640   -3.3090 O.2   137  VAL137     -0.2715
    199  CB       -32.1210  -37.3450   -5.5510 C.3   137  VAL137      0.0290
    200  CG1      -33.0880  -37.9860   -6.5430 C.3   137  VAL137      0.0023
    201  CG2      -30.7350  -37.1960   -6.1510 C.3   137  VAL137      0.0023
    202  N        -35.0960  -35.7850   -4.8570 N.am  138  SER138     -0.1950
    203  CA       -36.3790  -36.1830   -4.2680 C.3   138  SER138      0.1924
    204  C        -36.8620  -37.5750   -4.7060 C.2   138  SER138      0.2314
    205  O        -37.4390  -38.3050   -3.9060 O.2   138  SER138     -0.2863
    206  CB       -37.4700  -35.1130   -4.4230 C.3   138  SER138      0.2116
    207  OG       -37.3410  -34.4160   -5.6350 O.3   138  SER138     -0.2180
    208  N        -34.5470  -31.9560   -5.8570 N.3   185  HIS185     -0.1226
    209  CA       -35.3540  -30.9820   -5.1520 C.3   185  HIS185      0.1752
    210  C        -34.5860  -29.6650   -5.1680 C.2   185  HIS185      0.2595
    211  O        -33.4650  -29.6100   -4.6540 O.2   185  HIS185     -0.2718
    212  CB       -35.4970  -31.4490   -3.7020 C.3   185  HIS185      0.0759
    213  CG       -36.6800  -30.8780   -3.0010 C.ar  185  HIS185      0.0818
    214  ND1      -36.5670  -29.9610   -1.9780 N.ar  185  HIS185     -0.2268
    215  CD2      -38.0060  -31.0770   -3.1850 C.ar  185  HIS185      0.1154
    216  CE1      -37.7740  -29.6240   -1.5590 C.ar  185  HIS185      0.1986
    217  NE2      -38.6640  -30.2870   -2.2750 N.ar  185  HIS185     -0.2212
    218  N        -35.1250  -28.6120   -5.7710 N.am  186  ARG186     -0.1980
    219  CA       -36.2820  -28.6580   -6.6330 C.3   186  ARG186      0.1597
    220  C        -35.8160  -28.0470   -7.9490 C.2   186  ARG186      0.2287
    221  O        -35.8030  -26.8330   -8.1270 O.2   186  ARG186     -0.2864
    222  CB       -37.4240  -27.8210   -6.0630 C.3   186  ARG186      0.0334
    223  CG       -37.8300  -28.1940   -4.6460 C.3   186  ARG186      0.0492
    224  CD       -38.6820  -27.1060   -3.9820 C.3   186  ARG186      0.2205
    225  NE       -38.0540  -25.7850   -4.0620 N.pl3 186  ARG186     -0.0865
    226  CZ       -37.5400  -25.1230   -3.0270 C.cat 186  ARG186      0.5346
    227  NH1      -37.5900  -25.6590   -1.8070 N.pl3 186  ARG186      0.1354
    228  NH2      -36.9940  -23.9170   -3.2160 N.pl3 186  ARG186      0.1354
@<TRIPOS>BOND
     1    34    32   am
     2    31    32    1
     3    31    30    1
     4    32    33    2
     5    21    20    2
     6    24    23    2
     7    23    22    1
     8    23    25   am
     9    22    19    1
    10    20    19    1
    11    20    26   am
    12    30    27    1
    13    27    26    1
    14    27    28    1
    15    19    18    1
    16    87    86    2
    17    28    29    2
    18    86    85    1
    19    18     9   am
    20   221   220    2
    21    10     9    2
    22   220   219    1
    23     9     8    1
    24     6     5    1
    25    85    88    1
    26    85    84    1
    27    88    89    1
    28    91    89   ar
    29    91    93   ar
    30   103   101   am
    31   219   222    1
    32   219   218    1
    33   200   199    1
    34    89    90   ar
    35    93    94   ar
    36     5     2    1
    37   201   199    1
    38     8    11    1
    39     8     7    1
    40   222   223    1
    41   208   209    1
    42    11    12    1
    43   218   210   am
    44   207   206    1
    45   101   102    2
    46   101   100    1
    47     7     3   am
    48   199   196    1
    49     4     3    2
    50    17    15    1
    51     3     2    1
    52    90    92   ar
    53   210   209    1
    54   210   211    2
    55   209   212    1
    56   196   197    1
    57   196   195    1
    58    94    92   ar
    59     2     1    1
    60    15    14    2
    61    15    16    1
    62   100    99    1
    63   202   197   am
    64   202   203    1
    65    14    13    1
    66   204   203    1
    67   204   205    2
    68   223   224    1
    69   206   203    1
    70    12    13    1
    71   197   198    2
    72   186   185    2
    73   195   185   am
    74   225   224    1
    75   225   226    2
    76   185   184    1
    77   212   213    1
    78    99    96    1
    79   228   226    1
    80   215   213   ar
    81   215   217   ar
    82    95    96    1
    83   187   184    1
    84   187   188    1
    85   226   227    1
    86   213   214   ar
    87   184   183    1
    88    96    97    1
    89   217   216   ar
    90   183   173   am
    91   163   161   ar
    92   163   162   ar
    93   214   216   ar
    94   161   159   ar
    95   188   190   ar
    96   188   189   ar
    97   162   160   ar
    98   124   122   ar
    99   124   123   ar
   100   171   172    1
   101   190   192   ar
   102    97   104   am
   103    97    98    2
   104   159   158   ar
   105   159   157   ar
   106   189   191   ar
   107   122   120   ar
   108   173   172    1
   109   173   174    2
   110   160   157   ar
   111   158   156   ar
   112   123   121   ar
   113   157   155   ar
   114   104   105    1
   115   172   175    1
   116   192   193   ar
   117   156   155   ar
   118   191   193   ar
   119   155   154    1
   120   120   119   ar
   121   111   113   ar
   122   111   109   ar
   123    45    43    1
   124   113   112   ar
   125   121   119   ar
   126   193   194    1
   127   107   106    2
   128   175   176    1
   129   105   106    1
   130   105   108    1
   131   154   151    1
   132   119   118    1
   133   167   166    2
   134   106   114   am
   135   109   108    1
   136   109   110   ar
   137    43    42    2
   138    43    44    1
   139   112   110   ar
   140   178   176   ar
   141   178   180   ar
   142    42    41    1
   143   176   177   ar
   144   114   115    1
   145   166   165    1
   146   151   152    1
   147   151   150    1
   148   118   115    1
   149   115   116    1
   150   148   147    1
   151   180   181   ar
   152    38    37    2
   153   152   164   am
   154   152   153    2
   155   164   165    1
   156   177   179   ar
   157   145   144    2
   158    41    40    1
   159   150   144   am
   160   146   147    1
   161   146   143    1
   162    40    39    1
   163   165   168    1
   164   144   143    1
   165   181   179   ar
   166   181   182    1
   167   147   149    1
   168   168   169    1
   169   168   170    1
   170    37    36    1
   171   116   125   am
   172   116   117    2
   173   143   142    1
   174   125   126    1
   175    39    36    1
   176    56    54    1
   177    36    35    1
   178   128   127    2
   179   126   129    1
   180   126   127    1
   181   129   130    1
   182   140   139    1
   183    53    54    2
   184    53    52    1
   185    54    55    1
   186   139   141    1
   187   139   138    1
   188    80    79    1
   189    80    81    2
   190    52    51    1
   191    82    83    1
   192    82    79    1
   193   130   131    1
   194    71    69   ar
   195   131   132    1
   196    79    78    1
   197    77    76    1
   198   138   135    1
   199    69    70   ar
   200    69    68    1
   201    51    50    1
   202   134   135    1
   203    76    73    1
   204   132   133    1
   205    68    67    1
   206   135   136    1
   207    46    47    1
   208    50    47    1
   209    67    64    1
   210    72    73    1
   211    72    65   am
   212    62    61    1
   213    73    74    1
   214    47    48    1
   215   136   137    2
   216    63    64    1
   217    63    59   am
   218    49    48    2
   219    64    65    1
   220    61    58    1
   221    65    66    2
   222    58    59    1
   223    58    57    1
   224    74    75    2
   225    59    60    2
