@<TRIPOS>MOLECULE
tmp/4jmsA01.pdb
 88 85 0 0 0
SMALL
GASTEIGER

@<TRIPOS>ATOM
      1  N         26.9410   84.1990   49.7460 N.3   171  ALA171     -0.1231
      2  CA        26.2030   85.2530   49.0690 C.3   171  ALA171      0.1694
      3  C         27.0890   86.3490   48.4560 C.2   171  ALA171      0.2592
      4  O         26.6100   87.0780   47.5910 O.2   171  ALA171     -0.2718
      5  CB        25.1810   85.9010   50.0290 C.3   171  ALA171      0.0304
      6  N         28.3520   86.4440   48.8670 N.am  172  HIS172     -0.1962
      7  CA        29.2890   87.4080   48.3320 C.3   172  HIS172      0.1787
      8  C         29.7680   87.0810   46.9340 C.2   172  HIS172      0.2620
      9  O         30.5430   87.8370   46.4030 O.2   172  HIS172     -0.2715
     10  CB        30.4350   87.6570   49.2800 C.3   172  HIS172      0.0785
     11  CG        30.0890   88.6270   50.3590 C.ar  172  HIS172      0.0821
     12  ND1       30.9450   89.0160   51.3080 N.ar  172  HIS172     -0.2267
     13  CD2       28.9070   89.3300   50.5800 C.ar  172  HIS172      0.1154
     14  CE1       30.3580   89.8970   52.1170 C.ar  172  HIS172      0.1986
     15  NE2       29.1060   90.1110   51.6730 N.ar  172  HIS172     -0.2212
     16  N         29.2700   86.0140   46.3530 N.am  173  ALA173     -0.1963
     17  CA        29.3750   85.8070   44.8880 C.3   173  ALA173      0.1728
     18  C         28.4410   86.7270   44.1180 C.2   173  ALA173      0.2616
     19  O         28.5830   86.8810   42.8880 O.2   173  ALA173     -0.2715
     20  CB        28.9920   84.3780   44.5310 C.3   173  ALA173      0.0334
     21  N         27.4450   87.2550   44.7950 N.am  174  LEU174     -0.1963
     22  CA        26.3960   88.0500   44.1490 C.3   174  LEU174      0.1728
     23  C         26.7620   89.5230   44.0340 C.2   174  LEU174      0.2617
     24  O         27.3490   90.0920   44.9330 O.2   174  LEU174     -0.2715
     25  CB        25.1180   87.9330   44.9490 C.3   174  LEU174      0.0311
     26  CG        24.5190   86.5030   45.1140 C.3   174  LEU174      0.0022
     27  CD1       23.3910   86.5480   46.1320 C.3   174  LEU174      0.0001
     28  CD2       24.0030   85.9080   43.7740 C.3   174  LEU174      0.0001
     29  N         26.3290   90.1510   42.9370 N.am  175  GLY175     -0.1940
     30  CA        26.3690   91.6050   42.8010 C.3   175  GLY175      0.2014
     31  C         27.7800   92.1300   42.9370 C.2   175  GLY175      0.2639
     32  O         28.7600   91.4860   42.4590 O.2   175  GLY175     -0.2714
     33  N         27.9110   93.2590   43.5940 N.am  176  LYS176     -0.1963
     34  CA        29.2220   93.8990   43.7010 C.3   176  LYS176      0.1728
     35  C         29.2830   94.7920   44.8880 C.2   176  LYS176      0.2616
     36  O         28.2600   95.1380   45.5200 O.2   176  LYS176     -0.2715
     37  CB        29.5280   94.6940   42.4140 C.3   176  LYS176      0.0311
     38  CG        28.6360   95.9040   42.1680 C.3   176  LYS176      0.0038
     39  CD        28.8850   96.5520   40.7850 C.3   176  LYS176      0.0206
     40  CE        30.2440   97.2990   40.7640 C.3   176  LYS176      0.1093
     41  NZ        30.2490   98.5370   41.5540 N.3   176  LYS176     -0.1314
     42  N         30.5150   95.2150   45.1720 N.am  177  THR177     -0.1951
     43  CA        30.7210   96.2920   46.0690 C.3   177  THR177      0.1897
     44  C         30.7220   97.6100   45.3140 C.2   177  THR177      0.2313
     45  O         31.1160   97.6570   44.1460 O.2   177  THR177     -0.2863
     46  CB        31.9920   96.1280   46.9230 C.3   177  THR177      0.1794
     47  OG1       33.1430   96.1710   46.0890 O.3   177  THR177     -0.2208
     48  CG2       31.9280   94.7480   47.7400 C.3   177  THR177      0.0378
     49  N         33.9030   96.8980   43.2970 N.3   186  GLY186     -0.1210
     50  CA        34.1250   95.8290   42.3450 C.3   186  GLY186      0.1956
     51  C         33.5120   94.4860   42.6210 C.2   186  GLY186      0.2612
     52  O         32.6850   94.2950   43.5640 O.2   186  GLY186     -0.2717
     53  N         33.9320   93.5430   41.8170 N.am  187  GLY187     -0.1956
     54  CA        33.4520   92.1860   41.9920 C.3   187  GLY187      0.1869
     55  C         32.6750   91.6410   40.8210 C.2   187  GLY187      0.2309
     56  O         32.3680   90.4480   40.8080 O.2   187  GLY187     -0.2863
     57  N         36.7960   90.2290   43.3500 N.3   225  MET225     -0.1230
     58  CA        37.1390   91.0750   44.4630 C.3   225  MET225      0.1702
     59  C         36.6770   90.4100   45.7420 C.2   225  MET225      0.2592
     60  O         35.6110   89.7970   45.7730 O.2   225  MET225     -0.2718
     61  CB        36.4700   92.4350   44.3160 C.3   225  MET225      0.0401
     62  CG        37.0460   93.4970   45.2410 C.3   225  MET225      0.0596
     63  SD        36.5010   93.4170   46.9540 S.3   225  MET225     -0.1393
     64  CE        34.8470   94.0570   46.7890 C.3   225  MET225      0.0692
     65  N         37.4950   90.5250   46.7850 N.am  226  MET226     -0.1965
     66  CA        37.1820   89.9950   48.1140 C.3   226  MET226      0.1736
     67  C         37.4870   91.0690   49.1380 C.2   226  MET226      0.2616
     68  O         38.5310   91.8130   49.1100 O.2   226  MET226     -0.2715
     69  CB        37.9500   88.7130   48.4340 C.3   226  MET226      0.0427
     70  CG        37.7030   87.5470   47.4950 C.3   226  MET226      0.0599
     71  SD        36.0630   86.8820   47.8680 S.3   226  MET226     -0.1393
     72  CE        35.9850   85.7270   46.5170 C.3   226  MET226      0.0692
     73  N         36.5550   91.2000   50.0680 N.am  227  LEU227     -0.1977
     74  CA        36.7900   92.0320   51.2390 C.3   227  LEU227      0.1596
     75  C         37.8160   91.3570   52.1360 C.2   227  LEU227      0.2287
     76  O         37.9920   90.1360   52.1040 O.2   227  LEU227     -0.2864
     77  CB        35.5000   92.1850   52.0350 C.3   227  LEU227      0.0297
     78  CG        34.2980   92.7940   51.3120 C.3   227  LEU227      0.0022
     79  CD1       33.0050   92.5370   52.1310 C.3   227  LEU227      0.0001
     80  CD2       34.5300   94.2420   51.0790 C.3   227  LEU227      0.0001
     81  N         36.1590   88.5590   53.7650 N.3   230  ASP230     -0.1239
     82  CA        36.0260   87.3950   52.8950 C.3   230  ASP230      0.1674
     83  C         37.3150   86.5940   52.8680 C.2   230  ASP230      0.2266
     84  O         37.3500   85.3610   52.9870 O.2   230  ASP230     -0.2867
     85  CB        35.7430   87.8590   51.4690 C.3   230  ASP230      0.1410
     86  CG        34.4190   88.5490   51.3070 C.2   230  ASP230      0.3668
     87  OD1       33.4250   88.1800   51.9760 O.co2 230  ASP230     -0.2456
     88  OD2       34.3530   89.4360   50.4240 O.co2 230  ASP230     -0.2456
@<TRIPOS>BOND
     1    40    39    1
     2    40    41    1
     3    39    38    1
     4    56    55    2
     5    55    54    1
     6    53    54    1
     7    53    51   am
     8    38    37    1
     9    50    51    1
    10    50    49    1
    11    37    34    1
    12    32    31    2
    13    51    52    2
    14    30    31    1
    15    30    29    1
    16    19    18    2
    17    31    33   am
    18    29    23   am
    19    57    58    1
    20    33    34    1
    21    34    35    1
    22    28    26    1
    23    23    22    1
    24    23    24    2
    25    18    21   am
    26    18    17    1
    27    45    44    2
    28    22    21    1
    29    22    25    1
    30    61    58    1
    31    61    62    1
    32    58    59    1
    33    20    17    1
    34    35    42   am
    35    35    36    2
    36    17    16    1
    37    25    26    1
    38    26    27    1
    39    42    43    1
    40    62    63    1
    41    44    43    1
    42    59    60    2
    43    59    65   am
    44    43    46    1
    45    47    46    1
    46    16     8   am
    47     9     8    2
    48    72    71    1
    49    65    66    1
    50    64    63    1
    51    46    48    1
    52     8     7    1
    53    70    71    1
    54    70    69    1
    55     4     3    2
    56    66    69    1
    57    66    67    1
    58     7     6    1
    59     7    10    1
    60     3     6   am
    61     3     2    1
    62     2     1    1
    63     2     5    1
    64    68    67    2
    65    67    73   am
    66    10    11    1
    67    73    74    1
    68    11    13   ar
    69    11    12   ar
    70    88    86   ar
    71    13    15   ar
    72    80    78    1
    73    74    77    1
    74    74    75    1
    75    86    85    1
    76    86    87   ar
    77    12    14   ar
    78    78    77    1
    79    78    79    1
    80    85    82    1
    81    15    14   ar
    82    76    75    2
    83    83    82    1
    84    83    84    2
    85    82    81    1
