@<TRIPOS>MOLECULE
tmp/4jmtA01.pdb
 119 116 0 0 0
SMALL
GASTEIGER

@<TRIPOS>ATOM
      1  N         28.2040   85.6920   48.9810 N.3   172  HIS172     -0.1226
      2  CA        29.0990   86.6330   48.3190 C.3   172  HIS172      0.1752
      3  C         29.5450   86.1990   46.9260 C.2   172  HIS172      0.2596
      4  O         30.3500   86.8820   46.2940 O.2   172  HIS172     -0.2718
      5  CB        30.2890   86.9810   49.2060 C.3   172  HIS172      0.0759
      6  CG        29.9590   87.9950   50.2490 C.ar  172  HIS172      0.0818
      7  ND1       30.8830   88.4520   51.1640 N.ar  172  HIS172     -0.2268
      8  CD2       28.8050   88.6550   50.5160 C.ar  172  HIS172      0.1154
      9  CE1       30.3130   89.3440   51.9530 C.ar  172  HIS172      0.1986
     10  NE2       29.0510   89.4850   51.5810 N.ar  172  HIS172     -0.2212
     11  N         29.0180   85.0760   46.4510 N.am  173  ALA173     -0.1966
     12  CA        29.0770   84.7770   45.0250 C.3   173  ALA173      0.1728
     13  C         28.2770   85.8270   44.2490 C.2   173  ALA173      0.2616
     14  O         28.5170   86.0660   43.0620 O.2   173  ALA173     -0.2715
     15  CB        28.5150   83.3840   44.7470 C.3   173  ALA173      0.0334
     16  N         27.3180   86.4480   44.9300 N.am  174  LEU174     -0.1963
     17  CA        26.3540   87.3290   44.2600 C.3   174  LEU174      0.1728
     18  C         26.7950   88.7860   44.2090 C.2   174  LEU174      0.2617
     19  O         27.4460   89.2890   45.1270 O.2   174  LEU174     -0.2715
     20  CB        25.0210   87.2870   44.9900 C.3   174  LEU174      0.0311
     21  CG        24.3790   85.9130   45.1520 C.3   174  LEU174      0.0022
     22  CD1       23.1990   86.0260   46.1140 C.3   174  LEU174      0.0001
     23  CD2       23.9170   85.3720   43.7950 C.3   174  LEU174      0.0001
     24  N         26.4110   89.4630   43.1340 N.am  175  GLY175     -0.1940
     25  CA        26.4970   90.9110   43.0720 C.3   175  GLY175      0.2014
     26  C         27.9140   91.4290   43.2460 C.2   175  GLY175      0.2639
     27  O         28.8910   90.8000   42.8360 O.2   175  GLY175     -0.2714
     28  N         28.0340   92.5910   43.8640 N.am  176  LYS176     -0.1963
     29  CA        29.3360   93.2250   43.9620 C.3   176  LYS176      0.1728
     30  C         29.3580   94.2440   45.0710 C.2   176  LYS176      0.2616
     31  O         28.3200   94.5890   45.6380 O.2   176  LYS176     -0.2715
     32  CB        29.6660   93.9240   42.6430 C.3   176  LYS176      0.0311
     33  CG        28.7480   95.0910   42.3270 C.3   176  LYS176      0.0038
     34  CD        28.9920   95.6610   40.9240 C.3   176  LYS176      0.0206
     35  CE        30.3290   96.4040   40.8300 C.3   176  LYS176      0.1093
     36  NZ        30.3330   97.7130   41.5600 N.3   176  LYS176     -0.1314
     37  N         30.5590   94.7380   45.3600 N.am  177  THR177     -0.1951
     38  CA        30.7040   95.8520   46.2780 C.3   177  THR177      0.1897
     39  C         30.6980   97.1390   45.4640 C.2   177  THR177      0.2313
     40  O         31.1000   97.1470   44.2940 O.2   177  THR177     -0.2863
     41  CB        31.9980   95.7540   47.0950 C.3   177  THR177      0.1794
     42  OG1       33.1290   95.8950   46.2240 O.3   177  THR177     -0.2208
     43  CG2       32.0830   94.4050   47.8100 C.3   177  THR177      0.0378
     44  N         33.8490   93.0310   42.0220 N.3   187  GLY187     -0.1225
     45  CA        33.3320   91.7040   42.3100 C.3   187  GLY187      0.1811
     46  C         32.6810   91.0710   41.0960 C.2   187  GLY187      0.2280
     47  O         32.2330   89.9240   41.1410 O.2   187  GLY187     -0.2866
     48  N         30.3740   79.3570   43.6140 N.3   196  GLU196     -0.1231
     49  CA        31.5750   79.9390   43.0060 C.3   196  GLU196      0.1699
     50  C         32.4200   80.8020   43.9610 C.2   196  GLU196      0.2592
     51  O         33.6020   81.0080   43.7170 O.2   196  GLU196     -0.2718
     52  CB        31.2470   80.7010   41.7150 C.3   196  GLU196      0.0402
     53  CG        30.6580   82.0860   41.9150 C.3   196  GLU196      0.1161
     54  CD        30.6710   82.9030   40.6300 C.2   196  GLU196      0.3649
     55  OE1       29.8910   82.5730   39.7120 O.co2 196  GLU196     -0.2457
     56  OE2       31.4730   83.8610   40.5300 O.co2 196  GLU196     -0.2457
     57  N         31.8260   81.3010   45.0420 N.am  197  PHE197     -0.1976
     58  CA        32.5790   82.0850   46.0120 C.3   197  PHE197      0.1639
     59  C         33.7620   81.2730   46.5230 C.2   197  PHE197      0.2290
     60  O         34.8790   81.7810   46.6280 O.2   197  PHE197     -0.2864
     61  CB        31.6530   82.4890   47.1590 C.3   197  PHE197      0.0560
     62  CG        32.3360   83.1880   48.3050 C.ar  197  PHE197     -0.0200
     63  CD1       32.7400   84.5120   48.1960 C.ar  197  PHE197     -0.0042
     64  CD2       32.5040   82.5400   49.5190 C.ar  197  PHE197     -0.0042
     65  CE1       33.3260   85.1690   49.2720 C.ar  197  PHE197     -0.0003
     66  CE2       33.0940   83.1920   50.6020 C.ar  197  PHE197     -0.0003
     67  CZ        33.5110   84.5070   50.4700 C.ar  197  PHE197     -0.0000
     68  N         36.3340   80.5410   43.7200 N.3   200  ASN200     -0.1240
     69  CA        37.1230   81.7490   43.4790 C.3   200  ASN200      0.1653
     70  C         38.1830   81.9490   44.5660 C.2   200  ASN200      0.2266
     71  O         39.3390   82.2270   44.2740 O.2   200  ASN200     -0.2867
     72  CB        36.2400   82.9860   43.3470 C.3   200  ASN200      0.1155
     73  CG        35.3950   82.9730   42.0830 C.2   200  ASN200      0.2627
     74  OD1       35.7170   82.2860   41.1170 O.2   200  ASN200     -0.2716
     75  ND2       34.3060   83.7350   42.0910 N.am  200  ASN200     -0.0877
     76  N         38.1200   89.6360   39.8500 N.3   224  TYR224     -0.1227
     77  CA        37.2990   89.4120   41.0370 C.3   224  TYR224      0.1736
     78  C         37.9040   90.1640   42.2150 C.2   224  TYR224      0.2595
     79  O         39.0630   90.5730   42.1720 O.2   224  TYR224     -0.2718
     80  CB        37.2210   87.9260   41.3870 C.3   224  TYR224      0.0548
     81  CG        36.4260   87.0790   40.4140 C.ar  224  TYR224     -0.0200
     82  CD1       37.0680   86.2810   39.4730 C.ar  224  TYR224     -0.0009
     83  CD2       35.0350   87.0700   40.4440 C.ar  224  TYR224     -0.0009
     84  CE1       36.3490   85.5010   38.5830 C.ar  224  TYR224      0.0417
     85  CE2       34.3030   86.2930   39.5530 C.ar  224  TYR224      0.0417
     86  CZ        34.9690   85.5110   38.6280 C.ar  224  TYR224      0.1957
     87  OH        34.2490   84.7380   37.7450 O.3   224  TYR224     -0.2866
     88  N         37.1190   90.3390   43.2690 N.am  225  MET225     -0.1965
     89  CA        37.6520   90.8710   44.5170 C.3   225  MET225      0.1736
     90  C         37.1290   90.0620   45.6870 C.2   225  MET225      0.2616
     91  O         36.1190   89.3610   45.5750 O.2   225  MET225     -0.2715
     92  CB        37.3040   92.3550   44.7030 C.3   225  MET225      0.0427
     93  CG        35.8120   92.6660   44.8430 C.3   225  MET225      0.0599
     94  SD        35.1410   92.3950   46.4960 S.3   225  MET225     -0.1393
     95  CE        35.9500   93.6990   47.4150 C.3   225  MET225      0.0692
     96  N         37.8500   90.1330   46.8000 N.am  226  MET226     -0.1963
     97  CA        37.3630   89.5990   48.0650 C.3   226  MET226      0.1736
     98  C         37.5890   90.6380   49.1480 C.2   226  MET226      0.2616
     99  O         38.6370   91.2960   49.1910 O.2   226  MET226     -0.2715
    100  CB        38.1140   88.3170   48.4210 C.3   226  MET226      0.0427
    101  CG        37.8430   87.1540   47.4870 C.3   226  MET226      0.0599
    102  SD        36.2050   86.4610   47.8260 S.3   226  MET226     -0.1393
    103  CE        36.0450   85.3180   46.4590 C.3   226  MET226      0.0692
    104  N         36.6040   90.7980   50.0230 N.am  227  LEU227     -0.1977
    105  CA        36.7880   91.6270   51.2080 C.3   227  LEU227      0.1596
    106  C         37.7970   90.9650   52.1280 C.2   227  LEU227      0.2287
    107  O         38.0040   89.7590   52.0630 O.2   227  LEU227     -0.2864
    108  CB        35.4680   91.7590   51.9580 C.3   227  LEU227      0.0297
    109  CG        34.3490   92.4260   51.1670 C.3   227  LEU227      0.0022
    110  CD1       33.0150   92.1240   51.8330 C.3   227  LEU227      0.0001
    111  CD2       34.5570   93.9180   51.0630 C.3   227  LEU227      0.0001
    112  N         36.1420   88.2040   53.6520 N.3   230  ASP230     -0.1239
    113  CA        35.9620   87.0700   52.7340 C.3   230  ASP230      0.1674
    114  C         37.2350   86.2440   52.7150 C.2   230  ASP230      0.2266
    115  O         37.2270   85.0270   52.8770 O.2   230  ASP230     -0.2867
    116  CB        35.7120   87.5410   51.2970 C.3   230  ASP230      0.1410
    117  CG        34.3670   88.2110   51.1100 C.2   230  ASP230      0.3668
    118  OD1       33.4020   87.8410   51.8130 O.co2 230  ASP230     -0.2456
    119  OD2       34.2720   89.0940   50.2300 O.co2 230  ASP230     -0.2456
@<TRIPOS>BOND
     1    87    86    1
     2    84    86   ar
     3    84    82   ar
     4    86    85   ar
     5    82    81   ar
     6    85    83   ar
     7    55    54   ar
     8    76    77    1
     9    81    83   ar
    10    81    80    1
    11    56    54   ar
    12    54    53    1
    13    35    34    1
    14    35    36    1
    15    34    33    1
    16    77    80    1
    17    77    78    1
    18    46    47    2
    19    46    45    1
    20    74    73    2
    21    52    53    1
    22    52    49    1
    23    44    45    1
    24    73    75   am
    25    73    72    1
    26    79    78    2
    27    78    88   am
    28    33    32    1
    29    32    29    1
    30    27    26    2
    31    49    48    1
    32    49    50    1
    33    14    13    2
    34    25    24    1
    35    25    26    1
    36    24    18   am
    37    26    28   am
    38    88    89    1
    39    72    69    1
    40    69    68    1
    41    69    70    1
    42    51    50    2
    43    23    21    1
    44    28    29    1
    45    50    57   am
    46    29    30    1
    47    18    17    1
    48    18    19    2
    49    13    16   am
    50    13    12    1
    51    17    16    1
    52    17    20    1
    53    71    70    2
    54    40    39    2
    55    89    92    1
    56    89    90    1
    57    92    93    1
    58    15    12    1
    59    93    94    1
    60    20    21    1
    61    12    11    1
    62    57    58    1
    63    30    37   am
    64    30    31    2
    65    21    22    1
    66    37    38    1
    67    39    38    1
    68    91    90    2
    69    90    96   am
    70    58    59    1
    71    58    61    1
    72    42    41    1
    73    38    41    1
    74     4     3    2
    75    11     3   am
    76   103   102    1
    77    94    95    1
    78    59    60    2
    79    96    97    1
    80     3     2    1
    81    41    43    1
    82    61    62    1
    83   101   102    1
    84   101   100    1
    85    97   100    1
    86    97    98    1
    87    63    62   ar
    88    63    65   ar
    89    62    64   ar
    90     2     1    1
    91     2     5    1
    92    98    99    2
    93    98   104   am
    94     5     6    1
    95    65    67   ar
    96    64    66   ar
    97   104   105    1
    98   119   117   ar
    99     6     8   ar
   100     6     7   ar
   101    67    66   ar
   102     8    10   ar
   103   111   109    1
   104   117   116    1
   105   117   118   ar
   106     7     9   ar
   107   109   110    1
   108   109   108    1
   109   105   108    1
   110   105   106    1
   111   116   113    1
   112    10     9   ar
   113   107   106    2
   114   114   113    1
   115   114   115    2
   116   113   112    1
