@<TRIPOS>MOLECULE
tmp/4jmuA00.pdb
 143 138 0 0 0
SMALL
GASTEIGER

@<TRIPOS>ATOM
      1  N         26.3990    2.9780   18.1980 N.3    16  LEU16      -0.1231
      2  CA        25.1930    2.1920   18.3500 C.3    16  LEU16       0.1693
      3  C         25.4730    1.0900   19.3800 C.2    16  LEU16       0.2592
      4  O         24.6780    0.9230   20.3120 O.2    16  LEU16      -0.2718
      5  CB        24.7570    1.5480   17.0240 C.3    16  LEU16       0.0284
      6  CG        23.7090    2.3160   16.2010 C.3    16  LEU16       0.0019
      7  CD1       24.1330    3.8100   16.1210 C.3    16  LEU16       0.0001
      8  CD2       23.6500    1.6550   14.7730 C.3    16  LEU16       0.0001
      9  N         26.6030    0.3850   19.2220 N.am   17  ARG17      -0.1966
     10  CA        26.9740   -0.6900   20.1490 C.3    17  ARG17       0.1714
     11  C         28.3540   -0.4720   20.8120 C.2    17  ARG17       0.2458
     12  O         29.1970    0.2830   20.3020 O.2    17  ARG17      -0.2730
     13  CB        26.9570   -2.0510   19.4080 C.3    17  ARG17       0.0347
     14  CG        25.6010   -2.4560   18.9080 C.3    17  ARG17       0.0492
     15  CD        25.6610   -3.4630   17.7610 C.3    17  ARG17       0.2205
     16  NE        25.8560   -2.7540   16.5040 N.pl3  17  ARG17      -0.0865
     17  CZ        24.8720   -2.3210   15.7090 C.cat  17  ARG17       0.5346
     18  NH1       23.5850   -2.5320   16.0060 N.pl3  17  ARG17       0.1354
     19  NH2       25.1940   -1.6480   14.6230 N.pl3  17  ARG17       0.1354
     20  N         28.5960   -1.1110   21.9780 N.am   18  PRO18      -0.2727
     21  CA        29.9150   -0.9080   22.6050 C.3    18  PRO18       0.1402
     22  C         31.0120   -1.2760   21.6170 C.2    18  PRO18       0.2269
     23  O         30.9900   -2.3510   21.0040 O.2    18  PRO18      -0.2865
     24  CB        29.8820   -1.8390   23.8040 C.3    18  PRO18       0.0296
     25  CG        28.3870   -1.8180   24.1980 C.3    18  PRO18       0.0237
     26  CD        27.7140   -1.9240   22.8260 C.3    18  PRO18       0.0939
     27  N         29.4160    1.3580   13.7530 N.3    22  LYS22      -0.1245
     28  CA        28.3160    2.2630   13.4630 C.3    22  LYS22       0.1561
     29  C         28.0580    3.3280   14.5330 C.2    22  LYS22       0.2260
     30  O         28.1370    3.0660   15.7610 O.2    22  LYS22      -0.2867
     31  CB        27.0750    1.4310   13.1860 C.3    22  LYS22       0.0271
     32  CG        27.2320    0.6040   11.9250 C.3    22  LYS22       0.0035
     33  CD        25.9110   -0.0010   11.5170 C.3    22  LYS22       0.0206
     34  CE        26.1040   -1.0670   10.4220 C.3    22  LYS22       0.1093
     35  NZ        24.8900   -1.9460   10.3630 N.3    22  LYS22      -0.1314
     36  N         25.5780    7.0390   15.6760 N.3    24  TYR24      -0.1241
     37  CA        24.3210    7.7260   15.4440 C.3    24  TYR24       0.1605
     38  C         24.4280    8.8400   14.3950 C.2    24  TYR24       0.2264
     39  O         25.4740    9.5750   14.3170 O.2    24  TYR24      -0.2867
     40  CB        23.8140    8.2540   16.7740 C.3    24  TYR24       0.0534
     41  CG        23.2620    7.1370   17.6460 C.ar   24  TYR24      -0.0201
     42  CD1       21.9360    6.6880   17.4730 C.ar   24  TYR24      -0.0009
     43  CD2       24.0260    6.5630   18.6340 C.ar   24  TYR24      -0.0009
     44  CE1       21.3940    5.6860   18.2860 C.ar   24  TYR24       0.0417
     45  CE2       23.4910    5.5200   19.4730 C.ar   24  TYR24       0.0417
     46  CZ        22.1890    5.1120   19.2870 C.ar   24  TYR24       0.1957
     47  OH        21.6180    4.1400   20.0700 O.3    24  TYR24      -0.2866
     48  N         19.5510   10.3000   10.4150 N.3    27  LYS27      -0.1231
     49  CA        18.5050    9.3680   10.0210 C.3    27  LYS27       0.1693
     50  C         17.8900    8.5690   11.2210 C.2    27  LYS27       0.2592
     51  O         16.7410    8.1020   11.1550 O.2    27  LYS27      -0.2718
     52  CB        19.0200    8.4330    8.9250 C.3    27  LYS27       0.0285
     53  CG        20.0850    7.4200    9.3850 C.3    27  LYS27       0.0035
     54  CD        20.4240    6.3590    8.3320 C.3    27  LYS27       0.0206
     55  CE        21.4590    5.4140    8.9240 C.3    27  LYS27       0.1093
     56  NZ        21.9750    4.4110    7.9240 N.3    27  LYS27      -0.1314
     57  N         18.6470    8.4170   12.3020 N.am   28  HIS28      -0.1976
     58  CA        18.1160    7.7080   13.4950 C.3    28  HIS28       0.1656
     59  C         17.1080    8.6180   14.2050 C.2    28  HIS28       0.2291
     60  O         16.1330    8.1640   14.8090 O.2    28  HIS28      -0.2864
     61  CB        19.2690    7.3680   14.4480 C.3    28  HIS28       0.0771
     62  CG        20.1580    6.2900   13.9010 C.ar   28  HIS28       0.0820
     63  ND1       21.4270    6.5490   13.4280 N.ar   28  HIS28      -0.2267
     64  CD2       19.9350    4.9690   13.6920 C.ar   28  HIS28       0.1154
     65  CE1       21.9520    5.4320   12.9430 C.ar   28  HIS28       0.1986
     66  NE2       21.0660    4.4520   13.0890 N.ar   28  HIS28      -0.2212
     67  N         14.0590    8.6060   11.9660 N.3    31  TRP31      -0.1241
     68  CA        13.3670    7.3180   12.1600 C.3    31  TRP31       0.1605
     69  C         12.6340    7.3170   13.5300 C.2    31  TRP31       0.2264
     70  O         11.4690    6.8870   13.6440 O.2    31  TRP31      -0.2867
     71  CB        14.4030    6.1660   12.1310 C.3    31  TRP31       0.0550
     72  CG        13.8040    4.7460   12.3250 C.ar   31  TRP31       0.0003
     73  CD1       13.2320    3.9830   11.3800 C.ar   31  TRP31       0.0946
     74  CD2       13.7030    4.0160   13.5500 C.ar   31  TRP31       0.0152
     75  NE1       12.7600    2.8160   11.9220 N.ar   31  TRP31      -0.2442
     76  CE2       13.0370    2.8110   13.2620 C.ar   31  TRP31       0.0810
     77  CE3       14.1090    4.2720   14.8980 C.ar   31  TRP31       0.0012
     78  CZ2       12.7490    1.8320   14.2660 C.ar   31  TRP31       0.0191
     79  CZ3       13.8130    3.3060   15.8860 C.ar   31  TRP31       0.0001
     80  CH2       13.1400    2.1060   15.5510 C.ar   31  TRP31       0.0015
     81  N         12.5960   -6.0620   18.2960 N.3    68  GLU68      -0.1231
     82  CA        13.8180   -5.2990   17.9890 C.3    68  GLU68       0.1699
     83  C         13.4900   -3.8420   17.6800 C.2    68  GLU68       0.2592
     84  O         14.2250   -2.9150   18.0420 O.2    68  GLU68      -0.2718
     85  CB        14.4910   -5.8830   16.7370 C.3    68  GLU68       0.0402
     86  CG        15.2800   -7.0850   17.1040 C.3    68  GLU68       0.1161
     87  CD        16.1560   -6.6950   18.2700 C.2    68  GLU68       0.3649
     88  OE1       16.8390   -5.5980   18.1390 O.co2  68  GLU68      -0.2457
     89  OE2       16.1200   -7.4340   19.2990 O.co2  68  GLU68      -0.2457
     90  N         12.4040   -3.6290   16.9510 N.am   69  GLU69      -0.1979
     91  CA        11.9740   -2.2520   16.6150 C.3    69  GLU69       0.1602
     92  C         11.7750   -1.3950   17.8980 C.2    69  GLU69       0.2287
     93  O         12.2400   -0.2530   17.9800 O.2    69  GLU69      -0.2864
     94  CB        10.6530   -2.2640   15.8450 C.3    69  GLU69       0.0415
     95  CG        10.0520   -0.8410   15.6200 C.3    69  GLU69       0.1163
     96  CD         8.6470   -0.8460   14.9920 C.2    69  GLU69       0.3649
     97  OE1        8.0650   -1.9310   14.7680 O.co2  69  GLU69      -0.2457
     98  OE2        8.0960    0.2460   14.7340 O.co2  69  GLU69      -0.2457
     99  N         15.0850   -0.9690   19.6480 N.3    72  SER72      -0.1217
    100  CA        15.9220    0.0480   18.9570 C.3    72  SER72       0.1889
    101  C         15.4540    1.5010   19.2150 C.2    72  SER72       0.2288
    102  O         16.2760    2.4270   19.3270 O.2    72  SER72      -0.2866
    103  CB        15.9630   -0.2310   17.4400 C.3    72  SER72       0.2089
    104  OG        16.3870   -1.6030   17.2010 O.3    72  SER72      -0.2183
    105  N         16.5140    2.5040   22.7950 N.3    75  ASN75      -0.1225
    106  CA        17.9790    2.7270   22.8390 C.3    75  ASN75       0.1785
    107  C         18.3120    4.1490   22.2560 C.2    75  ASN75       0.2597
    108  O         19.0400    4.9460   22.8720 O.2    75  ASN75      -0.2718
    109  CB        18.6380    1.6440   21.9790 C.3    75  ASN75       0.1169
    110  CG        18.7370    0.2620   22.6750 C.2    75  ASN75       0.2627
    111  OD1       18.3870    0.1250   23.7920 O.2    75  ASN75      -0.2716
    112  ND2       19.1890   -0.7450   21.9380 N.am   75  ASN75      -0.0877
    113  N         17.6970    4.4720   21.1140 N.am   76  THR76      -0.1953
    114  CA        17.9750    5.7680   20.4380 C.3    76  THR76       0.1897
    115  C         17.5250    6.9220   21.3160 C.2    76  THR76       0.2313
    116  O         18.2520    7.8720   21.5200 O.2    76  THR76      -0.2863
    117  CB        17.2530    5.8380   19.0570 C.3    76  THR76       0.1794
    118  OG1       17.7460    4.7880   18.1960 O.3    76  THR76      -0.2208
    119  CG2       17.4790    7.1890   18.3170 C.3    76  THR76       0.0378
    120  N         25.5130    3.2540   23.2610 N.3    92  THR92      -0.1203
    121  CA        24.1420    3.0340   23.7730 C.3    92  THR92       0.1994
    122  C         24.1910    2.3320   25.1520 C.2    92  THR92       0.2617
    123  O         23.4130    2.6780   26.0660 O.2    92  THR92      -0.2717
    124  CB        23.3450    2.1460   22.7930 C.3    92  THR92       0.1784
    125  OG1       23.3870    2.7610   21.5020 O.3    92  THR92      -0.2211
    126  CG2       21.8500    1.9440   23.2440 C.3    92  THR92       0.0376
    127  N         25.0900    1.3650   25.2890 N.am   93  LYS93      -0.1979
    128  CA        25.2140    0.6560   26.5770 C.3    93  LYS93       0.1596
    129  C         25.4940    1.6040   27.7310 C.2    93  LYS93       0.2287
    130  O         24.8560    1.5190   28.8180 O.2    93  LYS93      -0.2864
    131  CB        26.3110   -0.4410   26.4840 C.3    93  LYS93       0.0298
    132  CG        26.2710   -1.4630   27.6740 C.3    93  LYS93       0.0038
    133  CD        27.4990   -2.3650   27.6240 C.3    93  LYS93       0.0206
    134  CE        27.4530   -3.3730   28.7820 C.3    93  LYS93       0.1093
    135  NZ        28.6200   -4.2810   28.7120 N.3    93  LYS93      -0.1314
    136  N         22.3040    3.8070   28.5560 N.3    96  LEU96      -0.1245
    137  CA        21.3020    3.0440   29.3250 C.3    96  LEU96       0.1561
    138  C         21.7750    2.8920   30.8230 C.2    96  LEU96       0.2260
    139  O         20.9910    3.1120   31.7690 O.2    96  LEU96      -0.2867
    140  CB        21.0580    1.6890   28.6130 C.3    96  LEU96       0.0270
    141  CG        20.2150    1.8340   27.3340 C.3    96  LEU96       0.0019
    142  CD1       20.3420    0.5670   26.3880 C.3    96  LEU96       0.0001
    143  CD2       18.7410    2.0240   27.7090 C.3    96  LEU96       0.0001
@<TRIPOS>BOND
     1    56    55    1
     2    54    55    1
     3    54    53    1
     4    52    53    1
     5    52    49    1
     6    49    48    1
     7    49    50    1
     8    35    34    1
     9    34    33    1
    10    51    50    2
    11    50    57   am
    12    73    75   ar
    13    73    72   ar
    14    33    32    1
    15    75    76   ar
    16    32    31    1
    17    67    68    1
    18    71    68    1
    19    71    72    1
    20    68    69    1
    21    57    58    1
    22    72    74   ar
    23    65    66   ar
    24    65    63   ar
    25    66    64   ar
    26    31    28    1
    27    76    74   ar
    28    76    78   ar
    29    63    62   ar
    30    28    27    1
    31    28    29    1
    32    58    59    1
    33    58    61    1
    34    69    70    2
    35    74    77   ar
    36    64    62   ar
    37    62    61    1
    38    59    60    2
    39    78    80   ar
    40    39    38    2
    41    38    37    1
    42    29    30    2
    43    19    17    1
    44    98    96   ar
    45    97    96   ar
    46     8     6    1
    47    77    79   ar
    48    96    95    1
    49    37    36    1
    50    37    40    1
    51    80    79   ar
    52    95    94    1
    53    17    18    1
    54    17    16    2
    55    94    91    1
    56     7     6    1
    57     6     5    1
    58    16    15    1
    59    91    90    1
    60    91    92    1
    61    85    86    1
    62    85    82    1
    63    40    41    1
    64    90    83   am
    65     5     2    1
    66    86    87    1
    67   104   103    1
    68   103   100    1
    69    42    41   ar
    70    42    44   ar
    71    41    43   ar
    72    83    82    1
    73    83    84    2
    74    15    14    1
    75    92    93    2
    76    82    81    1
    77    88    87   ar
    78   118   117    1
    79     1     2    1
    80    87    89   ar
    81    44    46   ar
    82   119   117    1
    83     2     3    1
    84    43    45   ar
    85    14    13    1
    86   100   101    1
    87   100    99    1
    88   117   114    1
    89   101   102    2
    90     9     3   am
    91     9    10    1
    92    46    45   ar
    93    46    47    1
    94     3     4    2
    95    13    10    1
    96    10    11    1
    97    12    11    2
    98   114   113    1
    99   114   115    1
   100    11    20   am
   101    23    22    2
   102   113   107   am
   103   115   116    2
   104   125   124    1
   105    22    21    1
   106   112   110   am
   107    20    21    1
   108    20    26    1
   109   109   110    1
   110   109   106    1
   111   107   106    1
   112   107   108    2
   113    21    24    1
   114   110   111    2
   115   124   126    1
   116   124   121    1
   117   105   106    1
   118    26    25    1
   119   120   121    1
   120   121   122    1
   121    24    25    1
   122   122   127   am
   123   122   123    2
   124   127   128    1
   125   142   141    1
   126   131   128    1
   127   131   132    1
   128   128   129    1
   129   141   143    1
   130   141   140    1
   131   133   132    1
   132   133   134    1
   133   129   130    2
   134   136   137    1
   135   140   137    1
   136   135   134    1
   137   137   138    1
   138   138   139    2
