@<TRIPOS>MOLECULE
tmp/4jmvA01.pdb
 90 87 0 0 0
SMALL
GASTEIGER

@<TRIPOS>ATOM
      1  N         28.2080   85.0330   48.7340 N.3   172  HIS172     -0.1226
      2  CA        29.0810   85.9570   48.0610 C.3   172  HIS172      0.1752
      3  C         29.4920   85.5180   46.6650 C.2   172  HIS172      0.2596
      4  O         30.2900   86.2250   46.0540 O.2   172  HIS172     -0.2718
      5  CB        30.2940   86.3490   48.8970 C.3   172  HIS172      0.0759
      6  CG        29.9830   87.3330   49.9990 C.ar  172  HIS172      0.0818
      7  ND1       30.8560   87.6310   50.9740 N.ar  172  HIS172     -0.2268
      8  CD2       28.8470   88.0830   50.2430 C.ar  172  HIS172      0.1154
      9  CE1       30.3050   88.5110   51.8130 C.ar  172  HIS172      0.1986
     10  NE2       29.0750   88.8130   51.3640 N.ar  172  HIS172     -0.2212
     11  N         28.9380   84.4250   46.1640 N.am  173  ALA173     -0.1966
     12  CA        28.9140   84.1080   44.7230 C.3   173  ALA173      0.1728
     13  C         28.0680   85.1150   43.9420 C.2   173  ALA173      0.2616
     14  O         28.2400   85.2630   42.7130 O.2   173  ALA173     -0.2715
     15  CB        28.3350   82.7330   44.4750 C.3   173  ALA173      0.0334
     16  N         27.1570   85.7770   44.6550 N.am  174  LEU174     -0.1963
     17  CA        26.1070   86.6010   44.0590 C.3   174  LEU174      0.1728
     18  C         26.4810   88.0690   44.0230 C.2   174  LEU174      0.2617
     19  O         27.0190   88.6070   44.9850 O.2   174  LEU174     -0.2715
     20  CB        24.8050   86.4560   44.8540 C.3   174  LEU174      0.0311
     21  CG        24.1960   85.0460   45.0210 C.3   174  LEU174      0.0022
     22  CD1       23.0330   85.1180   46.0150 C.3   174  LEU174      0.0001
     23  CD2       23.7470   84.4980   43.6480 C.3   174  LEU174      0.0001
     24  N         26.1200   88.7550   42.9400 N.am  175  GLY175     -0.1940
     25  CA        26.1780   90.2170   42.9520 C.3   175  GLY175      0.2014
     26  C         27.6190   90.7140   42.9970 C.2   175  GLY175      0.2639
     27  O         28.5210   90.0500   42.4720 O.2   175  GLY175     -0.2714
     28  N         27.8230   91.8670   43.6050 N.am  176  LYS176     -0.1963
     29  CA        29.1360   92.5030   43.7110 C.3   176  LYS176      0.1728
     30  C         29.1410   93.5410   44.8150 C.2   176  LYS176      0.2616
     31  O         28.0910   93.9320   45.3460 O.2   176  LYS176     -0.2715
     32  CB        29.4990   93.1590   42.3780 C.3   176  LYS176      0.0311
     33  CG        28.5350   94.2460   41.9360 C.3   176  LYS176      0.0038
     34  CD        29.0330   94.8510   40.6140 C.3   176  LYS176      0.0206
     35  CE        28.1570   95.9650   40.0910 C.3   176  LYS176      0.1093
     36  NZ        28.4680   96.3250   38.6540 N.3   176  LYS176     -0.1314
     37  N         30.3380   93.9900   45.1630 N.am  177  THR177     -0.1951
     38  CA        30.4990   95.1140   45.9990 C.3   177  THR177      0.1897
     39  C         30.4320   96.3670   45.1150 C.2   177  THR177      0.2313
     40  O         30.6420   96.2860   43.9090 O.2   177  THR177     -0.2863
     41  CB        31.8300   95.0400   46.7970 C.3   177  THR177      0.1794
     42  OG1       32.9380   95.1320   45.9080 O.3   177  THR177     -0.2208
     43  CG2       31.9200   93.6830   47.5710 C.3   177  THR177      0.0378
     44  N         33.9280   92.8930   41.7870 N.3   187  GLY187     -0.1225
     45  CA        34.3860   92.0370   40.7020 C.3   187  GLY187      0.1811
     46  C         33.2590   91.1250   40.2500 C.2   187  GLY187      0.2280
     47  O         32.5070   90.5850   41.0770 O.2   187  GLY187     -0.2866
     48  N         31.8380   80.5730   44.8490 N.3   197  PHE197     -0.1241
     49  CA        32.6100   81.3070   45.8440 C.3   197  PHE197      0.1605
     50  C         33.7870   80.4840   46.3410 C.2   197  PHE197      0.2264
     51  O         34.9230   80.9720   46.4100 O.2   197  PHE197     -0.2867
     52  CB        31.6990   81.7110   46.9650 C.3   197  PHE197      0.0534
     53  CG        32.3680   82.3740   48.1470 C.ar  197  PHE197     -0.0203
     54  CD1       32.7570   83.6900   48.0930 C.ar  197  PHE197     -0.0042
     55  CD2       32.5150   81.6860   49.3420 C.ar  197  PHE197     -0.0042
     56  CE1       33.3030   84.3070   49.2120 C.ar  197  PHE197     -0.0003
     57  CE2       33.0750   82.2940   50.4700 C.ar  197  PHE197     -0.0003
     58  CZ        33.4390   83.6410   50.3880 C.ar  197  PHE197     -0.0000
     59  N         37.1420   89.2330   43.0830 N.3   225  MET225     -0.1230
     60  CA        37.5990   89.8600   44.3160 C.3   225  MET225      0.1702
     61  C         37.0400   89.1280   45.4970 C.2   225  MET225      0.2592
     62  O         36.0410   88.4230   45.3850 O.2   225  MET225     -0.2718
     63  CB        37.2140   91.3620   44.4170 C.3   225  MET225      0.0401
     64  CG        35.7000   91.6530   44.4650 C.3   225  MET225      0.0596
     65  SD        34.9590   91.4630   46.1130 S.3   225  MET225     -0.1393
     66  CE        35.5210   92.8780   46.9980 C.3   225  MET225      0.0692
     67  N         37.7230   89.2830   46.6220 N.am  226  MET226     -0.1965
     68  CA        37.2660   88.8050   47.9130 C.3   226  MET226      0.1736
     69  C         37.5200   89.8670   48.9700 C.2   226  MET226      0.2616
     70  O         38.5840   90.5170   48.9920 O.2   226  MET226     -0.2715
     71  CB        38.0810   87.5690   48.3190 C.3   226  MET226      0.0427
     72  CG        37.8310   86.3190   47.4600 C.3   226  MET226      0.0599
     73  SD        36.2090   85.5910   47.7860 S.3   226  MET226     -0.1393
     74  CE        36.0880   84.5190   46.3610 C.3   226  MET226      0.0692
     75  N         36.5780   90.0080   49.8890 N.am  227  LEU227     -0.1977
     76  CA        36.8160   90.7840   51.0830 C.3   227  LEU227      0.1596
     77  C         37.8540   90.1120   51.9850 C.2   227  LEU227      0.2287
     78  O         38.0480   88.8970   51.9260 O.2   227  LEU227     -0.2864
     79  CB        35.5350   90.9590   51.8780 C.3   227  LEU227      0.0297
     80  CG        34.3400   91.6040   51.1590 C.3   227  LEU227      0.0022
     81  CD1       33.0760   91.3390   52.0000 C.3   227  LEU227      0.0001
     82  CD2       34.5740   93.0600   50.8930 C.3   227  LEU227      0.0001
     83  N         36.1900   87.3350   53.5910 N.3   230  ASP230     -0.1239
     84  CA        36.0240   86.1890   52.6750 C.3   230  ASP230      0.1674
     85  C         37.3110   85.3580   52.6380 C.2   230  ASP230      0.2266
     86  O         37.3160   84.1100   52.7930 O.2   230  ASP230     -0.2867
     87  CB        35.7530   86.6490   51.2440 C.3   230  ASP230      0.1410
     88  CG        34.3880   87.3010   51.0560 C.2   230  ASP230      0.3668
     89  OD1       33.3910   86.9150   51.7310 O.co2 230  ASP230     -0.2456
     90  OD2       34.3140   88.2050   50.1950 O.co2 230  ASP230     -0.2456
@<TRIPOS>BOND
     1    36    35    1
     2    35    34    1
     3    46    45    1
     4    46    47    2
     5    34    33    1
     6    45    44    1
     7    33    32    1
     8    32    29    1
     9    27    26    2
    10    14    13    2
    11    24    25    1
    12    24    18   am
    13    25    26    1
    14    26    28   am
    15    59    60    1
    16    28    29    1
    17    23    21    1
    18    29    30    1
    19    40    39    2
    20    13    16   am
    21    13    12    1
    22    18    17    1
    23    18    19    2
    24    17    16    1
    25    17    20    1
    26    60    63    1
    27    60    61    1
    28    63    64    1
    29    64    65    1
    30    15    12    1
    31    12    11    1
    32    30    37   am
    33    30    31    2
    34    48    49    1
    35    20    21    1
    36    21    22    1
    37    39    38    1
    38    37    38    1
    39    62    61    2
    40    61    67   am
    41    49    50    1
    42    49    52    1
    43    42    41    1
    44    38    41    1
    45     4     3    2
    46    65    66    1
    47    11     3   am
    48    50    51    2
    49    74    73    1
    50    67    68    1
    51     3     2    1
    52    41    43    1
    53    52    53    1
    54    72    73    1
    55    72    71    1
    56    68    71    1
    57    68    69    1
    58     2     1    1
    59     2     5    1
    60    54    53   ar
    61    54    56   ar
    62    53    55   ar
    63     5     6    1
    64    69    70    2
    65    69    75   am
    66    56    58   ar
    67    55    57   ar
    68    75    76    1
    69     6     8   ar
    70     6     7   ar
    71    90    88   ar
    72     8    10   ar
    73    58    57   ar
    74    82    80    1
    75     7     9   ar
    76    88    87    1
    77    88    89   ar
    78    76    79    1
    79    76    77    1
    80    80    79    1
    81    80    81    1
    82    87    84    1
    83    10     9   ar
    84    78    77    2
    85    85    84    1
    86    85    86    2
    87    84    83    1
