@<TRIPOS>MOLECULE
tmp/4jmwA01.pdb
 82 78 0 0 0
SMALL
GASTEIGER

@<TRIPOS>ATOM
      1  N        -15.2120    7.2830    1.8460 N.3   172  HIS172     -0.1241
      2  CA       -15.8590    6.2960    2.7460 C.3   172  HIS172      0.1621
      3  C        -17.2690    6.7330    3.1880 C.2   172  HIS172      0.2264
      4  O        -17.9030    5.9950    3.9620 O.2   172  HIS172     -0.2867
      5  CB       -14.9670    6.0010    3.9290 C.3   172  HIS172      0.0745
      6  CG       -13.8700    5.0510    3.5530 C.ar  172  HIS172      0.0817
      7  ND1      -12.8870    4.6890    4.4370 N.ar  172  HIS172     -0.2268
      8  CD2      -13.6310    4.3280    2.4100 C.ar  172  HIS172      0.1154
      9  CE1      -12.1000    3.7870    3.8520 C.ar  172  HIS172      0.1986
     10  NE2      -12.5200    3.5500    2.6250 N.ar  172  HIS172     -0.2212
     11  N        -19.3060    6.5920    0.7940 N.3   174  LEU174     -0.1231
     12  CA       -19.9600    5.8070   -0.2630 C.3   174  LEU174      0.1693
     13  C        -20.0400    4.3290    0.1220 C.2   174  LEU174      0.2593
     14  O        -19.1450    3.7850    0.7860 O.2   174  LEU174     -0.2718
     15  CB       -19.1470    5.8760   -1.5320 C.3   174  LEU174      0.0284
     16  CG       -18.9980    7.2690   -2.1450 C.3   174  LEU174      0.0019
     17  CD1      -17.9000    7.1380   -3.2270 C.3   174  LEU174      0.0001
     18  CD2      -20.2940    7.8120   -2.6600 C.3   174  LEU174      0.0001
     19  N        -21.1220    3.6690   -0.2800 N.am  175  GLY175     -0.1942
     20  CA       -21.0900    2.2080   -0.2350 C.3   175  GLY175      0.2014
     21  C        -21.0700    1.6710    1.1610 C.2   175  GLY175      0.2639
     22  O        -21.6770    2.2380    2.0930 O.2   175  GLY175     -0.2714
     23  N        -20.4280    0.5210    1.3080 N.am  176  LYS176     -0.1963
     24  CA       -20.3900   -0.1250    2.6370 C.3   176  LYS176      0.1728
     25  C        -19.2370   -1.0880    2.6540 C.2   176  LYS176      0.2616
     26  O        -18.6740   -1.4720    1.6190 O.2   176  LYS176     -0.2715
     27  CB       -21.7310   -0.8470    2.9540 C.3   176  LYS176      0.0311
     28  CG       -22.0060   -2.0350    2.0520 C.3   176  LYS176      0.0038
     29  CD       -23.4000   -2.6450    2.3160 C.3   176  LYS176      0.0206
     30  CE       -23.4620   -3.3910    3.6570 C.3   176  LYS176      0.1093
     31  NZ       -22.6950   -4.6370    3.7030 N.3   176  LYS176     -0.1314
     32  N        -18.9150   -1.5690    3.8620 N.am  177  THR177     -0.1951
     33  CA       -18.0310   -2.6960    4.0350 C.3   177  THR177      0.1897
     34  C        -18.8700   -3.9830    4.0700 C.2   177  THR177      0.2313
     35  O        -20.0330   -3.9310    4.4330 O.2   177  THR177     -0.2863
     36  CB       -17.1790   -2.5700    5.3290 C.3   177  THR177      0.1794
     37  OG1      -18.0330   -2.6980    6.4840 O.3   177  THR177     -0.2208
     38  CG2      -16.4470   -1.2480    5.4260 C.3   177  THR177      0.0378
     39  N        -20.7780   -2.9130    7.6190 N.3   186  GLY186     -0.1210
     40  CA       -21.5620   -1.7440    7.9650 C.3   186  GLY186      0.1956
     41  C        -21.2770   -0.5980    7.0090 C.2   186  GLY186      0.2612
     42  O        -20.4540   -0.7430    6.1160 O.2   186  GLY186     -0.2717
     43  N        -21.8980    0.5440    7.2510 N.am  187  GLY187     -0.1942
     44  CA       -21.7140    1.6960    6.4080 C.3   187  GLY187      0.2014
     45  C        -23.0400    2.2580    6.0060 C.2   187  GLY187      0.2639
     46  O        -24.1180    1.6680    6.2320 O.2   187  GLY187     -0.2714
     47  N        -23.0130    3.4180    5.3720 N.am  188  GLY188     -0.1954
     48  CA       -24.2390    4.1300    5.0730 C.3   188  GLY188      0.1869
     49  C        -25.0210    3.5700    3.8860 C.2   188  GLY188      0.2309
     50  O        -26.1740    3.9720    3.6640 O.2   188  GLY188     -0.2863
     51  N        -20.7390    3.3810   10.3450 N.3   225  MET225     -0.1230
     52  CA       -19.5400    2.7790   10.8880 C.3   225  MET225      0.1702
     53  C        -18.3440    3.5620   10.4260 C.2   225  MET225      0.2592
     54  O        -18.3930    4.3200    9.4460 O.2   225  MET225     -0.2718
     55  CB       -19.3610    1.3230   10.4630 C.3   225  MET225      0.0401
     56  CG       -18.8440    1.1620    9.0200 C.3   225  MET225      0.0596
     57  SD       -18.2500   -0.4790    8.7850 S.3   225  MET225     -0.1393
     58  CE       -16.5810   -0.2800    9.3360 C.3   225  MET225      0.0692
     59  N        -17.2480    3.3720   11.1520 N.am  226  MET226     -0.1965
     60  CA       -15.9040    3.8590   10.7860 C.3   226  MET226      0.1736
     61  C        -14.9040    2.7850   11.0570 C.2   226  MET226      0.2616
     62  O        -14.9300    2.1050   12.1130 O.2   226  MET226     -0.2715
     63  CB       -15.5530    5.1260   11.5970 C.3   226  MET226      0.0427
     64  CG       -16.4250    6.3010   11.3100 C.3   226  MET226      0.0599
     65  SD       -16.0410    7.0380    9.6750 S.3   226  MET226     -0.1393
     66  CE       -17.5140    8.0650    9.5230 C.3   226  MET226      0.0692
     67  N        -13.9840    2.5580   10.1060 N.am  227  LEU227     -0.1977
     68  CA       -12.8430    1.6650   10.3630 C.3   227  LEU227      0.1596
     69  C        -11.9560    2.3290   11.4020 C.2   227  LEU227      0.2287
     70  O        -11.9370    3.5570   11.5400 O.2   227  LEU227     -0.2864
     71  CB       -12.0500    1.4970    9.0680 C.3   227  LEU227      0.0297
     72  CG       -12.8260    0.8560    7.9120 C.3   227  LEU227      0.0022
     73  CD1      -12.0400    1.0300    6.5960 C.3   227  LEU227      0.0001
     74  CD2      -13.1200   -0.6300    8.1690 C.3   227  LEU227      0.0001
     75  N        -10.2930    5.1500    9.7110 N.3   230  ASP230     -0.1239
     76  CA       -11.1720    6.3090    9.5340 C.3   230  ASP230      0.1674
     77  C        -11.2200    7.0980   10.8160 C.2   230  ASP230      0.2266
     78  O        -11.0910    8.3450   10.8080 O.2   230  ASP230     -0.2867
     79  CB       -12.6100    5.8530    9.2300 C.3   230  ASP230      0.1410
     80  CG       -12.7870    5.1610    7.9000 C.2   230  ASP230      0.3668
     81  OD1      -12.0900    5.5570    6.9220 O.co2 230  ASP230     -0.2456
     82  OD2      -13.6280    4.2510    7.8420 O.co2 230  ASP230     -0.2456
@<TRIPOS>BOND
     1    17    16    1
     2    18    16    1
     3    16    15    1
     4    15    12    1
     5    19    20    1
     6    19    13   am
     7    12    13    1
     8    12    11    1
     9    20    21    1
    10    13    14    2
    11    21    23   am
    12    21    22    2
    13    23    24    1
    14    26    25    2
    15     1     2    1
    16    28    29    1
    17    28    27    1
    18    29    30    1
    19     8    10   ar
    20     8     6   ar
    21    10     9   ar
    22    24    25    1
    23    24    27    1
    24    25    32   am
    25     2     3    1
    26     2     5    1
    27     3     4    2
    28     6     5    1
    29     6     7   ar
    30    30    31    1
    31    50    49    2
    32     9     7   ar
    33    32    33    1
    34    49    48    1
    35    33    34    1
    36    33    36    1
    37    34    35    2
    38    48    47    1
    39    36    38    1
    40    36    37    1
    41    47    45   am
    42    45    46    2
    43    45    44    1
    44    42    41    2
    45    44    43    1
    46    73    72    1
    47    81    80   ar
    48    41    43   am
    49    41    40    1
    50    39    40    1
    51    82    80   ar
    52    80    79    1
    53    72    74    1
    54    72    71    1
    55    57    56    1
    56    57    58    1
    57    56    55    1
    58    71    68    1
    59    79    76    1
    60    54    53    2
    61    66    65    1
    62    76    75    1
    63    76    77    1
    64    65    64    1
    65    67    68    1
    66    67    61   am
    67    51    52    1
    68    68    69    1
    69    53    52    1
    70    53    59   am
    71    55    52    1
    72    60    61    1
    73    60    59    1
    74    60    63    1
    75    78    77    2
    76    61    62    2
    77    64    63    1
    78    69    70    2
