@<TRIPOS>MOLECULE
tmp/4jmxA00.pdb
 139 136 0 0 0
SMALL
GASTEIGER

@<TRIPOS>ATOM
      1  N        -16.4630   17.6470  -12.3360 N.3   141  MET141     -0.1230
      2  CA       -15.2650   17.8320  -13.1440 C.3   141  MET141      0.1702
      3  C        -15.6740   17.8530  -14.6190 C.2   141  MET141      0.2592
      4  O        -16.0350   16.8290  -15.2070 O.2   141  MET141     -0.2718
      5  CB       -14.2080   16.7360  -12.8920 C.3   141  MET141      0.0401
      6  CG       -13.9520   16.3480  -11.4240 C.3   141  MET141      0.0596
      7  SD       -12.6280   17.1870  -10.5160 S.3   141  MET141     -0.1393
      8  CE       -13.2100   18.8920  -10.4990 C.3   141  MET141      0.0692
      9  N        -15.6130   19.0410  -15.2040 N.am  142  ASP142     -0.1974
     10  CA       -16.0510   19.2630  -16.5630 C.3   142  ASP142      0.1709
     11  C        -14.8270   19.6450  -17.3800 C.2   142  ASP142      0.2293
     12  O        -14.2000   20.6690  -17.1110 O.2   142  ASP142     -0.2864
     13  CB       -17.0580   20.4070  -16.5380 C.3   142  ASP142      0.1436
     14  CG       -17.7080   20.6520  -17.8770 C.2   142  ASP142      0.3671
     15  OD1      -17.2180   20.1410  -18.9030 O.co2 142  ASP142     -0.2456
     16  OD2      -18.7260   21.3760  -17.8960 O.co2 142  ASP142     -0.2456
     17  N        -14.1180   23.3050  -18.6670 N.3   145  THR145     -0.1203
     18  CA       -13.4040   24.2680  -17.8060 C.3   145  THR145      0.1994
     19  C        -11.8620   24.1440  -17.8560 C.2   145  THR145      0.2617
     20  O        -11.1590   24.9730  -17.2590 O.2   145  THR145     -0.2717
     21  CB       -13.8660   24.1980  -16.3470 C.3   145  THR145      0.1784
     22  OG1      -13.3950   22.9780  -15.7630 O.3   145  THR145     -0.2211
     23  CG2      -15.3810   24.2680  -16.2680 C.3   145  THR145      0.0376
     24  N        -11.3390   23.1440  -18.5670 N.am  146  ILE146     -0.1979
     25  CA        -9.9110   23.1410  -18.9050 C.3   146  ILE146      0.1595
     26  C         -9.6310   23.2090  -20.4330 C.2   146  ILE146      0.2287
     27  O         -8.5600   22.7900  -20.9300 O.2   146  ILE146     -0.2864
     28  CB        -9.1120   21.9890  -18.2090 C.3   146  ILE146      0.0276
     29  CG1       -9.5680   20.5980  -18.6940 C.3   146  ILE146      0.0022
     30  CG2       -9.1190   22.1500  -16.6790 C.3   146  ILE146      0.0022
     31  CD1       -8.5100   19.5330  -18.4840 C.3   146  ILE146      0.0001
     32  N        -14.4500   14.7180  -20.7740 N.3   156  TYR156     -0.1241
     33  CA       -15.0280   13.9910  -19.6360 C.3   156  TYR156      0.1605
     34  C        -15.9780   14.9310  -18.8950 C.2   156  TYR156      0.2264
     35  O        -15.8320   16.1600  -18.9230 O.2   156  TYR156     -0.2867
     36  CB       -13.9510   13.4840  -18.6610 C.3   156  TYR156      0.0534
     37  CG       -13.0710   14.5970  -18.1210 C.ar  156  TYR156     -0.0201
     38  CD1      -13.5280   15.4540  -17.1140 C.ar  156  TYR156     -0.0009
     39  CD2      -11.7950   14.8170  -18.6350 C.ar  156  TYR156     -0.0009
     40  CE1      -12.7490   16.4940  -16.6450 C.ar  156  TYR156      0.0417
     41  CE2      -10.9950   15.8540  -18.1540 C.ar  156  TYR156      0.0417
     42  CZ       -11.4790   16.6860  -17.1620 C.ar  156  TYR156      0.1957
     43  OH       -10.7010   17.7210  -16.6830 O.3   156  TYR156     -0.2866
     44  N        -17.7850   14.2210  -15.0820 N.3   158  LEU158     -0.1245
     45  CA       -18.0580   13.2870  -13.9990 C.3   158  LEU158      0.1561
     46  C        -18.0320   14.0270  -12.7010 C.2   158  LEU158      0.2260
     47  O        -17.1890   14.9000  -12.4940 O.2   158  LEU158     -0.2867
     48  CB       -17.0510   12.1150  -13.9500 C.3   158  LEU158      0.0270
     49  CG       -15.5300   12.2880  -14.0780 C.3   158  LEU158      0.0019
     50  CD1      -14.8830   12.8770  -12.8120 C.3   158  LEU158      0.0001
     51  CD2      -14.8860   10.9410  -14.4230 C.3   158  LEU158      0.0001
     52  N         -6.8480   24.4340  -12.0240 N.3   170  GLY170     -0.1210
     53  CA        -7.8300   23.3830  -11.8330 C.3   170  GLY170      0.1956
     54  C         -7.3530   21.9730  -11.5400 C.2   170  GLY170      0.2612
     55  O         -8.1080   21.0110  -11.7710 O.2   170  GLY170     -0.2717
     56  N         -6.1130   21.8240  -11.0630 N.am  171  VAL171     -0.1965
     57  CA        -5.6500   20.5480  -10.5090 C.3   171  VAL171      0.1727
     58  C         -6.3120   20.3400   -9.1360 C.2   171  VAL171      0.2616
     59  O         -6.4930   21.2810   -8.3630 O.2   171  VAL171     -0.2715
     60  CB        -4.1170   20.5220  -10.3400 C.3   171  VAL171      0.0290
     61  CG1       -3.6610   19.2300   -9.6520 C.3   171  VAL171      0.0023
     62  CG2       -3.4360   20.6960  -11.6890 C.3   171  VAL171      0.0023
     63  N         -6.6590   19.0940   -8.8370 N.am  172  TYR172     -0.1974
     64  CA        -7.2780   18.7680   -7.5620 C.3   172  TYR172      0.1639
     65  C         -6.6700   17.5170   -7.0130 C.2   172  TYR172      0.2290
     66  O         -6.2490   16.6630   -7.7670 O.2   172  TYR172     -0.2864
     67  CB        -8.7480   18.4640   -7.7500 C.3   172  TYR172      0.0560
     68  CG        -9.6630   19.6310   -7.9240 C.ar  172  TYR172     -0.0198
     69  CD1       -9.8690   20.1950   -9.1720 C.ar  172  TYR172     -0.0009
     70  CD2      -10.3990   20.1220   -6.8490 C.ar  172  TYR172     -0.0009
     71  CE1      -10.7710   21.2670   -9.3500 C.ar  172  TYR172      0.0417
     72  CE2      -11.2930   21.1820   -7.0030 C.ar  172  TYR172      0.0417
     73  CZ       -11.4740   21.7570   -8.2590 C.ar  172  TYR172      0.1957
     74  OH       -12.3610   22.8140   -8.4280 O.3   172  TYR172     -0.2866
     75  N         -8.3800   14.5420   -5.2860 N.3   174  HIS174     -0.1241
     76  CA        -9.7570   14.0390   -5.1380 C.3   174  HIS174      0.1621
     77  C         -9.8680   12.5090   -5.1520 C.2   174  HIS174      0.2264
     78  O         -8.8840   11.8050   -5.3830 O.2   174  HIS174     -0.2867
     79  CB       -10.6840   14.6380   -6.2160 C.3   174  HIS174      0.0745
     80  CG       -10.4060   14.1280   -7.6030 C.ar  174  HIS174      0.0817
     81  ND1      -11.1790   13.1670   -8.2150 N.ar  174  HIS174     -0.2268
     82  CD2       -9.4230   14.4300   -8.4820 C.ar  174  HIS174      0.1154
     83  CE1      -10.6960   12.9130   -9.4170 C.ar  174  HIS174      0.1986
     84  NE2       -9.6230   13.6580   -9.5980 N.ar  174  HIS174     -0.2212
     85  N        -12.5010    4.9250  -10.0460 N.3   178  TRP178     -0.1241
     86  CA       -12.1950    4.3410  -11.3730 C.3   178  TRP178      0.1605
     87  C        -10.7170    4.0130  -11.6770 C.2   178  TRP178      0.2264
     88  O        -10.4280    3.2650  -12.6160 O.2   178  TRP178     -0.2867
     89  CB       -12.7470    5.2390  -12.4820 C.3   178  TRP178      0.0550
     90  CG       -12.2260    6.6370  -12.3850 C.ar  178  TRP178      0.0003
     91  CD1      -11.0550    7.1260  -12.9160 C.ar  178  TRP178      0.0946
     92  CD2      -12.8420    7.7300  -11.6940 C.ar  178  TRP178      0.0152
     93  NE1      -10.9130    8.4520  -12.5980 N.ar  178  TRP178     -0.2442
     94  CE2      -11.9900    8.8540  -11.8490 C.ar  178  TRP178      0.0810
     95  CE3      -14.0310    7.8720  -10.9560 C.ar  178  TRP178      0.0012
     96  CZ2      -12.2930   10.1100  -11.2960 C.ar  178  TRP178      0.0191
     97  CZ3      -14.3330    9.1330  -10.4010 C.ar  178  TRP178      0.0001
     98  CH2      -13.4670   10.2290  -10.5820 C.ar  178  TRP178      0.0015
     99  N         -2.3740    7.9770  -14.5400 N.3   188  VAL188     -0.1231
    100  CA        -3.4320    7.8640  -15.5520 C.3   188  VAL188      0.1692
    101  C         -4.4980    8.9900  -15.6100 C.2   188  VAL188      0.2593
    102  O         -5.4260    8.9220  -16.4290 O.2   188  VAL188     -0.2718
    103  CB        -4.1310    6.4480  -15.5150 C.3   188  VAL188      0.0266
    104  CG1       -3.0880    5.3030  -15.5700 C.3   188  VAL188      0.0020
    105  CG2       -5.0480    6.3050  -14.2970 C.3   188  VAL188      0.0020
    106  N         -4.3750   10.0170  -14.7730 N.am  189  SER189     -0.1938
    107  CA        -5.4160   11.0610  -14.7040 C.3   189  SER189      0.2055
    108  C         -5.1780   12.1950  -15.7020 C.2   189  SER189      0.2643
    109  O         -4.1490   12.2430  -16.3810 O.2   189  SER189     -0.2714
    110  CB        -5.5190   11.6300  -13.2890 C.3   189  SER189      0.2130
    111  OG        -4.4380   12.5090  -13.0150 O.3   189  SER189     -0.2179
    112  N         -6.1200   13.1260  -15.7770 N.am  190  HIS190     -0.1959
    113  CA        -5.9220   14.3040  -16.6260 C.3   190  HIS190      0.1787
    114  C         -5.1390   15.4550  -15.9650 C.2   190  HIS190      0.2621
    115  O         -5.1630   16.5920  -16.4630 O.2   190  HIS190     -0.2715
    116  CB        -7.2630   14.7850  -17.1650 C.3   190  HIS190      0.0785
    117  CG        -8.0530   13.7000  -17.8100 C.ar  190  HIS190      0.0821
    118  ND1       -8.8710   12.8510  -17.0930 N.ar  190  HIS190     -0.2267
    119  CD2       -8.1230   13.2960  -19.1010 C.ar  190  HIS190      0.1154
    120  CE1       -9.4280   11.9820  -17.9210 C.ar  190  HIS190      0.1986
    121  NE2       -8.9910   12.2300  -19.1450 N.ar  190  HIS190     -0.2212
    122  N         -4.4450   15.1580  -14.8590 N.am  191  GLY191     -0.1940
    123  CA        -3.5610   16.1100  -14.1860 C.3   191  GLY191      0.2014
    124  C         -3.7510   16.0920  -12.6840 C.2   191  GLY191      0.2639
    125  O         -2.8710   16.5290  -11.9310 O.2   191  GLY191     -0.2714
    126  N         -4.8900   15.5520  -12.2570 N.am  192  CYS192     -0.1967
    127  CA        -5.2820   15.5240  -10.8580 C.3   192  CYS192      0.1712
    128  C         -4.5020   14.5280  -10.0270 C.2   192  CYS192      0.2296
    129  O         -3.9550   13.5650  -10.5520 O.2   192  CYS192     -0.2864
    130  CB        -6.7590   15.2090  -10.7600 C.3   192  CYS192      0.0983
    131  SG        -7.7340   16.5830  -11.3030 S.3   192  CYS192     -0.0798
    132  N         -5.0320   11.6750   -7.9240 N.3   194  ASN194     -0.1240
    133  CA        -6.0690   10.6560   -7.7170 C.3   194  ASN194      0.1653
    134  C         -5.8180    9.7770   -6.5160 C.2   194  ASN194      0.2266
    135  O         -4.8090    9.0810   -6.4660 O.2   194  ASN194     -0.2867
    136  CB        -6.1480    9.7270   -8.9340 C.3   194  ASN194      0.1155
    137  CG        -6.8530   10.3580  -10.1340 C.2   194  ASN194      0.2627
    138  OD1       -7.2580   11.5400  -10.1190 O.2   194  ASN194     -0.2716
    139  ND2       -7.0050    9.5550  -11.1930 N.am  194  ASN194     -0.0877
@<TRIPOS>BOND
     1    27    26    2
     2    32    33    1
     3    26    25    1
     4    33    34    1
     5    33    36    1
     6   121   119   ar
     7   121   120   ar
     8   119   117   ar
     9    35    34    2
    10    25    24    1
    11    25    28    1
    12    15    14   ar
    13    29    31    1
    14    29    28    1
    15    17    18    1
    16    36    37    1
    17    39    41   ar
    18    39    37   ar
    19    24    19   am
    20    28    30    1
    21    41    42   ar
    22    37    38   ar
    23   120   118   ar
    24    16    14   ar
    25    14    13    1
    26    19    18    1
    27    19    20    2
    28   117   116    1
    29   117   118   ar
    30    18    21    1
    31    11    12    2
    32    11    10    1
    33   116   113    1
    34    42    43    1
    35    42    40   ar
    36    38    40   ar
    37   113   114    1
    38   113   112    1
    39    10    13    1
    40    10     9    1
    41   115   114    2
    42   102   101    2
    43   109   108    2
    44    21    23    1
    45    21    22    1
    46   114   122   am
    47   112   108   am
    48   108   107    1
    49   101   100    1
    50   101   106   am
    51   104   103    1
    52   100   103    1
    53   100    99    1
    54   103   105    1
    55     4     3    2
    56     9     3   am
    57    44    45    1
    58   122   123    1
    59   106   107    1
    60   107   110    1
    61     3     2    1
    62    51    49    1
    63   123   124    1
    64    49    48    1
    65    49    50    1
    66    45    48    1
    67    45    46    1
    68   110   111    1
    69     2     5    1
    70     2     1    1
    71    91    93   ar
    72    91    90   ar
    73     5     6    1
    74    46    47    2
    75   124   126   am
    76   124   125    2
    77    88    87    2
    78    93    94   ar
    79    89    90    1
    80    89    86    1
    81    90    92   ar
    82   126   127    1
    83    52    53    1
    84    94    92   ar
    85    94    96   ar
    86    53    54    1
    87    55    54    2
    88    92    95   ar
    89    62    60    1
    90    87    86    1
    91    54    56   am
    92     6     7    1
    93    86    85    1
    94   131   130    1
    95    96    98   ar
    96   139   137   am
    97    56    57    1
    98    95    97   ar
    99   127   130    1
   100   127   128    1
   101    98    97   ar
   102   129   128    2
   103     7     8    1
   104    57    60    1
   105    57    58    1
   106    60    61    1
   107   137   138    2
   108   137   136    1
   109    84    83   ar
   110    84    82   ar
   111    83    81   ar
   112    71    69   ar
   113    71    73   ar
   114    69    68   ar
   115    58    63   am
   116    58    59    2
   117   136   133    1
   118    63    64    1
   119    82    80   ar
   120    74    73    1
   121    73    72   ar
   122    81    80   ar
   123    68    67    1
   124    68    70   ar
   125   132   133    1
   126    66    65    2
   127    67    64    1
   128   133   134    1
   129    80    79    1
   130    64    65    1
   131    72    70   ar
   132   134   135    2
   133    79    76    1
   134    78    77    2
   135    75    76    1
   136    77    76    1
