@<TRIPOS>MOLECULE
tmp/4jmyB01.pdb
 171 166 0 0 0
SMALL
GASTEIGER

@<TRIPOS>ATOM
      1  N        -77.9000   14.2360    0.0710 N.3    41  GLN41      -0.1231
      2  CA       -76.4370   14.3140    0.1050 C.3    41  GLN41       0.1698
      3  C        -75.7800   13.0830    0.6990 C.2    41  GLN41       0.2593
      4  O        -76.3750   12.3960    1.5190 O.2    41  GLN41      -0.2718
      5  CB       -76.0060   15.5160    0.9450 C.3    41  GLN41       0.0381
      6  CG       -75.3580   16.6430    0.1640 C.3    41  GLN41       0.0905
      7  CD       -75.0960   17.8680    1.0270 C.2    41  GLN41       0.2608
      8  OE1      -76.0210   18.4460    1.6010 O.2    41  GLN41      -0.2717
      9  NE2      -73.8310   18.2700    1.1220 N.am   41  GLN41      -0.0878
     10  N        -74.5390   12.8220    0.2960 N.am   42  SER42      -0.1938
     11  CA       -73.7150   11.8370    0.9880 C.3    42  SER42       0.2055
     12  C        -72.3690   12.4650    1.3870 C.2    42  SER42       0.2643
     13  O        -71.8840   13.3920    0.7410 O.2    42  SER42      -0.2714
     14  CB       -73.5380   10.5570    0.1570 C.3    42  SER42       0.2130
     15  OG       -73.2650    9.4380    1.0090 O.3    42  SER42      -0.2179
     16  N        -71.8010   11.9870    2.4870 N.am   43  PHE43      -0.1973
     17  CA       -70.5470   12.5290    3.0070 C.3    43  PHE43       0.1639
     18  C        -70.0020   11.5260    3.9970 C.2    43  PHE43       0.2290
     19  O        -70.5020   10.3920    4.0830 O.2    43  PHE43      -0.2864
     20  CB       -70.7480   13.9300    3.6310 C.3    43  PHE43       0.0560
     21  CG       -71.9850   14.0420    4.4800 C.ar   43  PHE43      -0.0200
     22  CD1      -73.2350   14.2320    3.8890 C.ar   43  PHE43      -0.0042
     23  CD2      -71.9110   13.9370    5.8650 C.ar   43  PHE43      -0.0042
     24  CE1      -74.3920   14.3240    4.6620 C.ar   43  PHE43      -0.0003
     25  CE2      -73.0690   14.0280    6.6520 C.ar   43  PHE43      -0.0003
     26  CZ       -74.3150   14.2190    6.0400 C.ar   43  PHE43      -0.0000
     27  N        -72.0300   21.5140    6.3490 N.3    57  HIS57      -0.1241
     28  CA       -72.6450   21.6940    5.0410 C.3    57  HIS57       0.1621
     29  C        -73.2910   20.3900    4.5580 C.2    57  HIS57       0.2264
     30  O        -74.1200   20.4020    3.6600 O.2    57  HIS57      -0.2867
     31  CB       -71.6710   22.3000    4.0010 C.3    57  HIS57       0.0745
     32  CG       -70.7150   21.3120    3.3960 C.ar   57  HIS57       0.0817
     33  ND1      -69.3600   21.3290    3.6600 N.ar   57  HIS57      -0.2268
     34  CD2      -70.9120   20.3050    2.5110 C.ar   57  HIS57       0.1154
     35  CE1      -68.7670   20.3650    2.9780 C.ar   57  HIS57       0.1986
     36  NE2      -69.6880   19.7230    2.2780 N.ar   57  HIS57      -0.2212
     37  N        -55.0510   23.9030    4.4800 N.3   123  ARG123     -0.1245
     38  CA       -54.9190   23.7210    3.0370 C.3   123  ARG123      0.1563
     39  C        -53.9270   22.6240    2.7250 C.2   123  ARG123      0.2260
     40  O        -52.9040   22.4910    3.3990 O.2   123  ARG123     -0.2867
     41  CB       -54.4060   24.9960    2.3870 C.3   123  ARG123      0.0307
     42  CG       -55.4700   25.8380    1.7820 C.3   123  ARG123      0.0489
     43  CD       -55.8920   25.2910    0.4190 C.3   123  ARG123      0.2205
     44  NE       -57.0250   26.0730   -0.0500 N.pl3 123  ARG123     -0.0865
     45  CZ       -56.9310   27.1050   -0.8800 C.cat 123  ARG123      0.5346
     46  NH1      -55.7500   27.4570   -1.3740 N.pl3 123  ARG123      0.1354
     47  NH2      -58.0260   27.7600   -1.2350 N.pl3 123  ARG123      0.1354
     48  N        -63.0880   16.9140   -9.8830 N.3   132  VAL132     -0.1245
     49  CA       -63.7890   17.1450   -8.6210 C.3   132  VAL132      0.1561
     50  C        -64.8420   16.0490   -8.3280 C.2   132  VAL132      0.2260
     51  O        -65.1240   15.7460   -7.1710 O.2   132  VAL132     -0.2867
     52  CB       -64.3830   18.5730   -8.5100 C.3   132  VAL132      0.0252
     53  CG1      -65.5470   18.7630   -9.4690 C.3   132  VAL132      0.0019
     54  CG2      -64.8070   18.8530   -7.0580 C.3   132  VAL132      0.0019
     55  N        -63.9850   13.5520   -5.8400 N.3   135  LEU135     -0.1231
     56  CA       -63.9930   13.9620   -4.4360 C.3   135  LEU135      0.1693
     57  C        -65.3950   14.2030   -3.8660 C.2   135  LEU135      0.2592
     58  O        -65.5740   14.2360   -2.6510 O.2   135  LEU135     -0.2718
     59  CB       -63.1340   15.2090   -4.2300 C.3   135  LEU135      0.0284
     60  CG       -61.6500   14.9630   -4.5690 C.3   135  LEU135      0.0019
     61  CD1      -60.8200   16.2550   -4.4890 C.3   135  LEU135      0.0001
     62  CD2      -61.0710   13.8540   -3.7040 C.3   135  LEU135      0.0001
     63  N        -66.3850   14.3680   -4.7400 N.am  136  LYS136     -0.1966
     64  CA       -67.7490   14.6080   -4.2860 C.3   136  LYS136      0.1728
     65  C        -68.2340   13.4710   -3.4010 C.2   136  LYS136      0.2617
     66  O        -68.0580   12.3000   -3.7230 O.2   136  LYS136     -0.2715
     67  CB       -68.6900   14.8160   -5.4810 C.3   136  LYS136      0.0311
     68  CG       -68.5030   16.1550   -6.1910 C.3   136  LYS136      0.0038
     69  CD       -69.0280   17.3150   -5.3460 C.3   136  LYS136      0.0206
     70  CE       -69.0620   18.6180   -6.1430 C.3   136  LYS136      0.1093
     71  NZ       -70.0060   18.6090   -7.3100 N.3   136  LYS136     -0.1314
     72  N        -68.8460   13.8260   -2.2780 N.am  137  GLY137     -0.1940
     73  CA       -69.3280   12.8450   -1.3210 C.3   137  GLY137      0.2014
     74  C        -68.2790   12.4380   -0.3080 C.2   137  GLY137      0.2640
     75  O        -68.5590   11.6310    0.5800 O.2   137  GLY137     -0.2714
     76  N        -67.0760   13.0030   -0.4240 N.am  138  SER138     -0.1935
     77  CA       -66.0010   12.6980    0.5260 C.3   138  SER138      0.2055
     78  C        -65.7320   13.7430    1.6290 C.2   138  SER138      0.2643
     79  O        -64.8450   13.5430    2.4580 O.2   138  SER138     -0.2714
     80  CB       -64.7020   12.3520   -0.2160 C.3   138  SER138      0.2130
     81  OG       -64.8080   11.0760   -0.8400 O.3   138  SER138     -0.2179
     82  N        -66.4730   14.8470    1.6520 N.am  139  SER139     -0.1949
     83  CA       -66.3330   15.7820    2.7770 C.3   139  SER139      0.1924
     84  C        -66.5400   15.0570    4.1010 C.2   139  SER139      0.2314
     85  O        -67.4350   14.2330    4.2240 O.2   139  SER139     -0.2863
     86  CB       -67.3140   16.9530    2.6730 C.3   139  SER139      0.2116
     87  OG       -66.8990   17.8430    1.6640 O.3   139  SER139     -0.2180
     88  N        -61.5450   16.5150    5.5130 N.3   154  PHE154     -0.1227
     89  CA       -61.7590   17.1570    4.2220 C.3   154  PHE154      0.1736
     90  C        -63.0160   18.0420    4.2100 C.2   154  PHE154      0.2595
     91  O        -64.1010   17.6030    4.5980 O.2   154  PHE154     -0.2718
     92  CB       -61.8220   16.0680    3.1250 C.3   154  PHE154      0.0547
     93  CG       -62.1480   16.5970    1.7370 C.ar  154  PHE154     -0.0202
     94  CD1      -61.5680   17.7520    1.2670 C.ar  154  PHE154     -0.0042
     95  CD2      -63.0210   15.9080    0.9050 C.ar  154  PHE154     -0.0042
     96  CE1      -61.8550   18.2350   -0.0040 C.ar  154  PHE154     -0.0003
     97  CE2      -63.3100   16.3800   -0.3750 C.ar  154  PHE154     -0.0003
     98  CZ       -62.7250   17.5460   -0.8300 C.ar  154  PHE154     -0.0000
     99  N        -62.8700   19.2810    3.7430 N.am  155  ARG155     -0.1966
    100  CA       -64.0080   20.2020    3.6950 C.3   155  ARG155      0.1729
    101  C        -64.5140   20.5450    2.2900 C.2   155  ARG155      0.2616
    102  O        -65.7110   20.3960    2.0040 O.2   155  ARG155     -0.2715
    103  CB       -63.7130   21.4840    4.4880 C.3   155  ARG155      0.0348
    104  CG       -64.9570   22.3280    4.7450 C.3   155  ARG155      0.0492
    105  CD       -64.6370   23.7490    5.2400 C.3   155  ARG155      0.2205
    106  NE       -64.3930   24.6590    4.1280 N.pl3 155  ARG155     -0.0865
    107  CZ       -65.3460   25.0950    3.2990 C.cat 155  ARG155      0.5346
    108  NH1      -66.6130   24.6980    3.4530 N.pl3 155  ARG155      0.1354
    109  NH2      -65.0330   25.9260    2.3060 N.pl3 155  ARG155      0.1354
    110  N        -63.6160   21.0030    1.4180 N.am  156  ALA156     -0.1963
    111  CA       -63.9990   21.4880    0.0850 C.3   156  ALA156      0.1728
    112  C        -62.8350   21.3630   -0.8960 C.2   156  ALA156      0.2616
    113  O        -61.6850   21.5160   -0.5100 O.2   156  ALA156     -0.2715
    114  CB       -64.4470   22.9430    0.1670 C.3   156  ALA156      0.0334
    115  N        -63.1260   21.0870   -2.1590 N.am  157  ALA157     -0.1963
    116  CA       -62.0710   21.0460   -3.1710 C.3   157  ALA157      0.1728
    117  C        -61.7930   22.4350   -3.7260 C.2   157  ALA157      0.2616
    118  O        -62.7040   23.2420   -3.8800 O.2   157  ALA157     -0.2715
    119  CB       -62.4230   20.0680   -4.3100 C.3   157  ALA157      0.0334
    120  N        -60.5180   22.7060   -4.0000 N.am  158  VAL158     -0.1963
    121  CA       -60.0930   23.9140   -4.6990 C.3   158  VAL158      0.1727
    122  C        -59.9520   23.5670   -6.1840 C.2   158  VAL158      0.2616
    123  O        -59.1270   22.7420   -6.5560 O.2   158  VAL158     -0.2715
    124  CB       -58.7400   24.4190   -4.1650 C.3   158  VAL158      0.0290
    125  CG1      -58.2800   25.6210   -4.9480 C.3   158  VAL158      0.0023
    126  CG2      -58.8290   24.7400   -2.6810 C.3   158  VAL158      0.0023
    127  N        -60.7510   24.2050   -7.0300 N.am  159  CYS159     -0.1954
    128  CA       -60.9750   23.6870   -8.3730 C.3   159  CYS159      0.1843
    129  C        -60.7630   24.6860   -9.4990 C.2   159  CYS159      0.2626
    130  O        -60.9130   25.8910   -9.3170 O.2   159  CYS159     -0.2714
    131  CB       -62.4000   23.1430   -8.4730 C.3   159  CYS159      0.0997
    132  SG       -62.7140   21.7460   -7.4100 S.3   159  CYS159     -0.0797
    133  N        -60.4280   24.1660  -10.6710 N.am  160  THR160     -0.1936
    134  CA       -60.4060   24.9780  -11.8810 C.3   160  THR160      0.2028
    135  C        -61.0060   24.1670  -13.0170 C.2   160  THR160      0.2642
    136  O        -60.4560   23.1310  -13.4090 O.2   160  THR160     -0.2714
    137  CB       -58.9680   25.4020  -12.2740 C.3   160  THR160      0.1808
    138  OG1      -58.3220   26.0280  -11.1600 O.3   160  THR160     -0.2208
    139  CG2      -59.0030   26.3860  -13.4370 C.3   160  THR160      0.0379
    140  N        -62.1300   24.6410  -13.5460 N.am  161  ARG161     -0.1963
    141  CA       -62.7960   23.9650  -14.6560 C.3   161  ARG161      0.1729
    142  C        -63.0200   22.4730  -14.3650 C.2   161  ARG161      0.2616
    143  O        -62.7870   21.6180  -15.2170 O.2   161  ARG161     -0.2715
    144  CB       -62.0170   24.1960  -15.9540 C.3   161  ARG161      0.0348
    145  CG       -62.0510   25.6760  -16.3920 C.3   161  ARG161      0.0492
    146  CD       -61.0320   26.0470  -17.4750 C.3   161  ARG161      0.2205
    147  NE       -60.9180   27.5040  -17.6150 N.pl3 161  ARG161     -0.0865
    148  CZ       -59.9660   28.2460  -17.0460 C.cat 161  ARG161      0.5346
    149  NH1      -59.0250   27.6770  -16.3060 N.pl3 161  ARG161      0.1354
    150  NH2      -59.9440   29.5630  -17.2230 N.pl3 161  ARG161      0.1354
    151  N        -63.4720   22.1760  -13.1470 N.am  162  GLY162     -0.1955
    152  CA       -63.8590   20.8240  -12.7860 C.3   162  GLY162      0.1869
    153  C        -62.6990   19.9400  -12.3740 C.2   162  GLY162      0.2309
    154  O        -62.8680   18.7460  -12.1780 O.2   162  GLY162     -0.2863
    155  N        -57.2290   20.6920   -7.5790 N.3   165  LYS165     -0.1245
    156  CA       -55.7720   20.7270   -7.4560 C.3   165  LYS165      0.1561
    157  C        -55.3390   20.8310   -5.9910 C.2   165  LYS165      0.2260
    158  O        -54.1820   20.6200   -5.6500 O.2   165  LYS165     -0.2867
    159  CB       -55.2070   21.8910   -8.2700 C.3   165  LYS165      0.0271
    160  CG       -55.7360   23.2530   -7.8490 C.3   165  LYS165      0.0035
    161  CD       -55.0820   24.3570   -8.6720 C.3   165  LYS165      0.0206
    162  CE       -55.8270   25.6780   -8.5740 C.3   165  LYS165      0.1093
    163  NZ       -55.2940   26.6390   -9.5920 N.3   165  LYS165     -0.1314
    164  N        -59.3840   22.2000    0.8470 N.3   168  ASP168     -0.1239
    165  CA       -59.5110   22.8800    2.1330 C.3   168  ASP168      0.1674
    166  C        -59.9010   21.8300    3.1550 C.2   168  ASP168      0.2266
    167  O        -60.7540   20.9830    2.8790 O.2   168  ASP168     -0.2867
    168  CB       -60.6090   23.9520    2.0970 C.3   168  ASP168      0.1410
    169  CG       -60.1820   25.2150    1.3870 C.2   168  ASP168      0.3668
    170  OD1      -58.9800   25.5610    1.4360 O.co2 168  ASP168     -0.2456
    171  OD2      -61.0620   25.8640    0.7750 O.co2 168  ASP168     -0.2456
@<TRIPOS>BOND
     1   147   146    1
     2   147   148    2
     3   146   145    1
     4   150   148    1
     5   148   149    1
     6   145   144    1
     7   144   141    1
     8   143   142    2
     9   141   142    1
    10   141   140    1
    11   142   151   am
    12   140   135   am
    13   139   137    1
    14   136   135    2
    15   151   152    1
    16   135   134    1
    17   152   153    1
    18   153   154    2
    19   137   134    1
    20   137   138    1
    21   134   133    1
    22   133   129   am
    23    48    49    1
    24   163   162    1
    25   129   130    2
    26   129   128    1
    27    53    52    1
    28   161   162    1
    29   161   160    1
    30    49    52    1
    31    49    50    1
    32    52    54    1
    33   131   128    1
    34   131   132    1
    35   128   127    1
    36    50    51    2
    37   159   160    1
    38   159   156    1
    39   155   156    1
    40   156   157    1
    41    71    70    1
    42   127   122   am
    43   123   122    2
    44    68    67    1
    45    68    69    1
    46   122   121    1
    47    70    69    1
    48   157   158    2
    49    55    56    1
    50    67    64    1
    51   125   124    1
    52    63    64    1
    53    63    57   am
    54   121   124    1
    55   121   120    1
    56    60    61    1
    57    60    59    1
    58    60    62    1
    59    56    59    1
    60    56    57    1
    61   119   116    1
    62    64    65    1
    63   124   126    1
    64   120   117   am
    65   118   117    2
    66    57    58    2
    67   117   116    1
    68    66    65    2
    69    65    72   am
    70   116   115    1
    71    72    73    1
    72   115   112   am
    73    46    45    1
    74    73    74    1
    75    47    45    1
    76   112   113    2
    77   112   111    1
    78    45    44    2
    79    81    80    1
    80    98    97   ar
    81    98    96   ar
    82    76    74   am
    83    76    77    1
    84    97    95   ar
    85    74    75    2
    86    80    77    1
    87    44    43    1
    88    96    94   ar
    89     1     2    1
    90   111   114    1
    91   111   110    1
    92     2     3    1
    93     2     5    1
    94    14    11    1
    95    14    15    1
    96     6     5    1
    97     6     7    1
    98    10     3   am
    99    10    11    1
   100    43    42    1
   101    77    78    1
   102     3     4    2
   103    13    12    2
   104   171   169   ar
   105   164   165    1
   106    95    93   ar
   107    11    12    1
   108     7     9   am
   109     7     8    2
   110    94    93   ar
   111   169   170   ar
   112   169   168    1
   113    12    16   am
   114   110   101   am
   115    78    82   am
   116    78    79    2
   117    82    83    1
   118    87    86    1
   119    93    92    1
   120    42    41    1
   121   102   101    2
   122   168   165    1
   123   165   166    1
   124    36    34   ar
   125    36    35   ar
   126   101   100    1
   127   109   107    1
   128    41    38    1
   129    16    17    1
   130    34    32   ar
   131    86    83    1
   132    39    38    1
   133    39    40    2
   134    83    84    1
   135   167   166    2
   136    35    33   ar
   137    17    20    1
   138    17    18    1
   139    38    37    1
   140    92    89    1
   141   107   108    1
   142   107   106    2
   143    32    33   ar
   144    32    31    1
   145    20    21    1
   146    30    29    2
   147   100    99    1
   148   100   103    1
   149    99    90   am
   150    22    21   ar
   151    22    24   ar
   152    18    19    2
   153    31    28    1
   154    84    85    2
   155   106   105    1
   156    90    89    1
   157    90    91    2
   158    89    88    1
   159    21    23   ar
   160   103   104    1
   161    29    28    1
   162    24    26   ar
   163   104   105    1
   164    28    27    1
   165    23    25   ar
   166    26    25   ar
