@<TRIPOS>MOLECULE
tmp/4jmzA01.pdb
 127 124 0 0 0
SMALL
GASTEIGER

@<TRIPOS>ATOM
      1  N         27.1220   86.1050   48.2320 N.3   172  HIS172     -0.1226
      2  CA        27.9550   87.0920   47.5420 C.3   172  HIS172      0.1752
      3  C         28.3760   86.6980   46.1420 C.2   172  HIS172      0.2596
      4  O         29.0500   87.4830   45.4700 O.2   172  HIS172     -0.2718
      5  CB        29.1510   87.4960   48.4530 C.3   172  HIS172      0.0759
      6  CG        28.7730   88.4800   49.5590 C.ar  172  HIS172      0.0818
      7  ND1       29.6670   88.9290   50.4830 N.ar  172  HIS172     -0.2268
      8  CD2       27.5770   89.1330   49.8300 C.ar  172  HIS172      0.1154
      9  CE1       29.0710   89.8140   51.2970 C.ar  172  HIS172      0.1986
     10  NE2       27.7950   89.9620   50.8970 N.ar  172  HIS172     -0.2212
     11  N         27.9640   85.5290   45.6440 N.am  173  ALA173     -0.1966
     12  CA        27.9750   85.2840   44.2150 C.3   173  ALA173      0.1728
     13  C         27.0040   86.2100   43.4540 C.2   173  ALA173      0.2616
     14  O         27.1440   86.3970   42.2370 O.2   173  ALA173     -0.2715
     15  CB        27.5870   83.8390   43.8990 C.3   173  ALA173      0.0334
     16  N         25.9980   86.7200   44.1530 N.am  174  LEU174     -0.1963
     17  CA        24.8970   87.4670   43.5370 C.3   174  LEU174      0.1728
     18  C         25.1400   88.9920   43.4960 C.2   174  LEU174      0.2617
     19  O         25.7020   89.5970   44.4460 O.2   174  LEU174     -0.2715
     20  CB        23.6220   87.2180   44.3240 C.3   174  LEU174      0.0311
     21  CG        23.1710   85.7860   44.4670 C.3   174  LEU174      0.0022
     22  CD1       22.0720   85.7290   45.5560 C.3   174  LEU174      0.0001
     23  CD2       22.7350   85.1870   43.1150 C.3   174  LEU174      0.0001
     24  N         24.6810   89.6400   42.4160 N.am  175  GLY175     -0.1940
     25  CA        24.6870   91.1080   42.3950 C.3   175  GLY175      0.2014
     26  C         26.0860   91.7040   42.3720 C.2   175  GLY175      0.2639
     27  O         26.9890   91.1240   41.7710 O.2   175  GLY175     -0.2714
     28  N         26.2380   92.8770   42.9940 N.am  176  LYS176     -0.1963
     29  CA        27.4930   93.6200   43.0270 C.3   176  LYS176      0.1728
     30  C         27.4760   94.6410   44.1680 C.2   176  LYS176      0.2616
     31  O         26.4080   94.9690   44.7230 O.2   176  LYS176     -0.2715
     32  CB        27.7080   94.3800   41.7090 C.3   176  LYS176      0.0311
     33  CG        26.8010   95.5920   41.5360 C.3   176  LYS176      0.0038
     34  CD        27.0170   96.3310   40.2020 C.3   176  LYS176      0.0206
     35  CE        28.3080   97.1520   40.1100 C.3   176  LYS176      0.1093
     36  NZ        28.3700   98.4650   40.8410 N.3   176  LYS176     -0.1314
     37  N         28.6600   95.1500   44.5160 N.am  177  THR177     -0.1951
     38  CA        28.7600   96.3150   45.3850 C.3   177  THR177      0.1897
     39  C         28.5620   97.5880   44.5110 C.2   177  THR177      0.2313
     40  O         28.7650   97.5600   43.2920 O.2   177  THR177     -0.2863
     41  CB        30.0880   96.3670   46.1610 C.3   177  THR177      0.1794
     42  OG1       31.1820   96.6170   45.2620 O.3   177  THR177     -0.2208
     43  CG2       30.3610   95.0390   46.9910 C.3   177  THR177      0.0378
     44  N         32.6340   94.6120   41.2070 N.3   187  GLY187     -0.1210
     45  CA        33.2550   93.8730   40.1180 C.3   187  GLY187      0.1956
     46  C         32.1730   93.3050   39.2140 C.2   187  GLY187      0.2612
     47  O         31.0960   93.9080   39.0190 O.2   187  GLY187     -0.2717
     48  N         32.4810   92.1470   38.6570 N.am  188  GLY188     -0.1942
     49  CA        31.5870   91.4550   37.7450 C.3   188  GLY188      0.2014
     50  C         30.4100   90.9460   38.5490 C.2   188  GLY188      0.2639
     51  O         30.5760   90.5240   39.7120 O.2   188  GLY188     -0.2714
     52  N         29.2500   90.9720   37.9010 N.am  189  ALA189     -0.1963
     53  CA        27.9460   90.8720   38.5280 C.3   189  ALA189      0.1728
     54  C         27.2550   89.6560   37.9640 C.2   189  ALA189      0.2616
     55  O         27.5840   89.2150   36.8490 O.2   189  ALA189     -0.2715
     56  CB        27.1290   92.0850   38.1760 C.3   189  ALA189      0.0334
     57  N         26.2970   89.1210   38.7150 N.am  190  ASN190     -0.1972
     58  CA        25.6010   87.8970   38.2930 C.3   190  ASN190      0.1688
     59  C         24.2430   87.7940   38.9520 C.2   190  ASN190      0.2292
     60  O         24.0050   88.3340   40.0330 O.2   190  ASN190     -0.2864
     61  CB        26.4240   86.6200   38.5840 C.3   190  ASN190      0.1181
     62  CG        26.0260   85.4240   37.6940 C.2   190  ASN190      0.2629
     63  OD1       25.0820   85.4930   36.8810 O.2   190  ASN190     -0.2716
     64  ND2       26.7720   84.3180   37.8310 N.am  190  ASN190     -0.0877
     65  N         31.1100   81.8590   44.3140 N.3   197  PHE197     -0.1241
     66  CA        31.8350   82.6100   45.3690 C.3   197  PHE197      0.1605
     67  C         33.0880   81.8530   45.8350 C.2   197  PHE197      0.2264
     68  O         34.1820   82.4330   45.9280 O.2   197  PHE197     -0.2867
     69  CB        30.9090   82.8800   46.5540 C.3   197  PHE197      0.0534
     70  CG        31.5400   83.6010   47.7210 C.ar  197  PHE197     -0.0203
     71  CD1       31.7660   84.9750   47.6900 C.ar  197  PHE197     -0.0042
     72  CD2       31.7930   82.9210   48.9090 C.ar  197  PHE197     -0.0042
     73  CE1       32.2760   85.6330   48.8030 C.ar  197  PHE197     -0.0003
     74  CE2       32.2890   83.5880   50.0380 C.ar  197  PHE197     -0.0003
     75  CZ        32.5220   84.9460   49.9780 C.ar  197  PHE197     -0.0000
     76  N         35.7440   81.3040   43.0410 N.3   200  ASN200     -0.1240
     77  CA        36.4760   82.5210   42.7940 C.3   200  ASN200      0.1653
     78  C         37.5080   82.8050   43.9050 C.2   200  ASN200      0.2266
     79  O         38.6690   83.1790   43.6080 O.2   200  ASN200     -0.2867
     80  CB        35.5290   83.7260   42.6840 C.3   200  ASN200      0.1155
     81  CG        34.6700   83.7220   41.4150 C.2   200  ASN200      0.2627
     82  OD1       34.9800   83.0900   40.4300 O.2   200  ASN200     -0.2716
     83  ND2       33.5940   84.4840   41.4500 N.am  200  ASN200     -0.0877
     84  N         36.9530   90.5230   39.2230 N.3   224  TYR224     -0.1227
     85  CA        36.1260   90.2400   40.4120 C.3   224  TYR224      0.1736
     86  C         36.6910   90.9850   41.6340 C.2   224  TYR224      0.2595
     87  O         37.8540   91.4250   41.6100 O.2   224  TYR224     -0.2718
     88  CB        36.0770   88.7540   40.7110 C.3   224  TYR224      0.0548
     89  CG        35.5760   87.8900   39.5690 C.ar  224  TYR224     -0.0200
     90  CD1       36.3940   86.9170   39.0060 C.ar  224  TYR224     -0.0009
     91  CD2       34.2870   88.0540   39.0470 C.ar  224  TYR224     -0.0009
     92  CE1       35.9530   86.1250   37.9530 C.ar  224  TYR224      0.0417
     93  CE2       33.8320   87.2590   37.9920 C.ar  224  TYR224      0.0417
     94  CZ        34.6790   86.2990   37.4540 C.ar  224  TYR224      0.1957
     95  OH        34.2770   85.5120   36.4080 O.3   224  TYR224     -0.2866
     96  N         35.8660   91.1460   42.6710 N.am  225  MET225     -0.1965
     97  CA        36.3190   91.7000   43.9440 C.3   225  MET225      0.1736
     98  C         35.8180   90.8680   45.1110 C.2   225  MET225      0.2616
     99  O         34.9300   90.0110   44.9490 O.2   225  MET225     -0.2715
    100  CB        35.9470   93.1850   44.1260 C.3   225  MET225      0.0427
    101  CG        34.4640   93.5330   44.0550 C.3   225  MET225      0.0599
    102  SD        33.5530   93.1640   45.5780 S.3   225  MET225     -0.1393
    103  CE        33.9800   94.5300   46.6600 C.3   225  MET225      0.0692
    104  N         36.4640   91.0840   46.2550 N.am  226  MET226     -0.1963
    105  CA        36.0880   90.4880   47.5340 C.3   226  MET226      0.1736
    106  C         36.2580   91.5650   48.6010 C.2   226  MET226      0.2616
    107  O         37.2700   92.2950   48.6190 O.2   226  MET226     -0.2715
    108  CB        36.9780   89.2970   47.8510 C.3   226  MET226      0.0427
    109  CG        36.7810   88.0700   46.9590 C.3   226  MET226      0.0599
    110  SD        35.2230   87.2110   47.3290 S.3   226  MET226     -0.1393
    111  CE        35.1380   85.9990   45.9750 C.3   226  MET226      0.0692
    112  N         35.3040   91.6420   49.5280 N.am  227  LEU227     -0.1977
    113  CA        35.4570   92.5100   50.7230 C.3   227  LEU227      0.1596
    114  C         36.4850   91.8650   51.6530 C.2   227  LEU227      0.2287
    115  O         36.7350   90.6760   51.5800 O.2   227  LEU227     -0.2864
    116  CB        34.1220   92.6400   51.4400 C.3   227  LEU227      0.0297
    117  CG        32.9260   93.1620   50.7010 C.3   227  LEU227      0.0022
    118  CD1       31.6480   92.8410   51.3890 C.3   227  LEU227      0.0001
    119  CD2       33.0130   94.6690   50.4630 C.3   227  LEU227      0.0001
    120  N         34.9160   88.8980   53.1830 N.3   230  ASP230     -0.1239
    121  CA        34.8470   87.7460   52.2320 C.3   230  ASP230      0.1674
    122  C         36.2010   86.9900   52.2340 C.2   230  ASP230      0.2266
    123  O         36.2850   85.7670   52.3640 O.2   230  ASP230     -0.2867
    124  CB        34.6070   88.2270   50.8110 C.3   230  ASP230      0.1410
    125  CG        33.2270   88.8200   50.5760 C.2   230  ASP230      0.3668
    126  OD1       32.2520   88.3730   51.2070 O.co2 230  ASP230     -0.2456
    127  OD2       33.1380   89.7330   49.7140 O.co2 230  ASP230     -0.2456
@<TRIPOS>BOND
     1    95    94    1
     2    55    54    2
     3    63    62    2
     4    94    92   ar
     5    94    93   ar
     6    62    64   am
     7    62    61    1
     8    49    50    1
     9    49    48    1
    10    52    53    1
    11    52    50   am
    12    92    90   ar
    13    54    53    1
    14    54    57   am
    15    93    91   ar
    16    56    53    1
    17    58    61    1
    18    58    57    1
    19    58    59    1
    20    50    51    2
    21    48    46   am
    22    59    60    2
    23    90    89   ar
    24    47    46    2
    25    91    89   ar
    26    46    45    1
    27    84    85    1
    28    89    88    1
    29    35    34    1
    30    35    36    1
    31    45    44    1
    32    34    33    1
    33    85    88    1
    34    85    86    1
    35    82    81    2
    36    81    83   am
    37    81    80    1
    38    33    32    1
    39    87    86    2
    40    86    96   am
    41    32    29    1
    42    27    26    2
    43    14    13    2
    44    26    25    1
    45    26    28   am
    46    25    24    1
    47    24    18   am
    48    96    97    1
    49    80    77    1
    50    77    76    1
    51    77    78    1
    52    28    29    1
    53    29    30    1
    54    23    21    1
    55    40    39    2
    56    13    16   am
    57    13    12    1
    58    18    17    1
    59    18    19    2
    60    17    16    1
    61    17    20    1
    62    79    78    2
    63    15    12    1
    64    97   100    1
    65    97    98    1
    66   101   100    1
    67   101   102    1
    68    30    37   am
    69    30    31    2
    70    12    11    1
    71    65    66    1
    72    20    21    1
    73    21    22    1
    74    39    38    1
    75    37    38    1
    76    99    98    2
    77    98   104   am
    78    42    41    1
    79    66    67    1
    80    66    69    1
    81    38    41    1
    82     4     3    2
    83   102   103    1
    84    11     3   am
    85    67    68    2
    86   111   110    1
    87     3     2    1
    88    41    43    1
    89   104   105    1
    90    69    70    1
    91   109   110    1
    92   109   108    1
    93   105   108    1
    94   105   106    1
    95     2     1    1
    96     2     5    1
    97    71    70   ar
    98    71    73   ar
    99    70    72   ar
   100     5     6    1
   101   106   107    2
   102   106   112   am
   103    73    75   ar
   104    72    74   ar
   105   112   113    1
   106     6     8   ar
   107     6     7   ar
   108   127   125   ar
   109     8    10   ar
   110    75    74   ar
   111   119   117    1
   112     7     9   ar
   113   125   124    1
   114   125   126   ar
   115   117   118    1
   116   117   116    1
   117   113   116    1
   118   113   114    1
   119   124   121    1
   120    10     9   ar
   121   115   114    2
   122   121   122    1
   123   121   120    1
   124   122   123    2
