@<TRIPOS>MOLECULE
tmp/4jn2C00.pdb
 136 135 0 0 0
SMALL
GASTEIGER

@<TRIPOS>ATOM
      1  N        -65.0920   12.7270  -40.2180 N.3    33  ILE33      -0.1245
      2  CA       -63.9670   12.4580  -41.1010 C.3    33  ILE33       0.1561
      3  C        -63.0850   11.4380  -40.4080 C.2    33  ILE33       0.2260
      4  O        -62.9290   11.5140  -39.1880 O.2    33  ILE33      -0.2867
      5  CB       -63.2080   13.7940  -41.3470 C.3    33  ILE33       0.0252
      6  CG1      -64.1270   14.7990  -42.0990 C.3    33  ILE33       0.0019
      7  CG2      -61.8590   13.5760  -42.0860 C.3    33  ILE33       0.0019
      8  CD1      -63.6930   16.2390  -42.0080 C.3    33  ILE33       0.0001
      9  N        -59.1680    9.6990  -40.4810 N.3    35  ASP35      -0.1239
     10  CA       -57.7900    9.7280  -40.9600 C.3    35  ASP35       0.1674
     11  C        -57.0840    8.4760  -40.4480 C.2    35  ASP35       0.2266
     12  O        -57.4170    7.9820  -39.3760 O.2    35  ASP35      -0.2867
     13  CB       -57.0640   10.9670  -40.4150 C.3    35  ASP35       0.1410
     14  CG       -57.4750   12.2360  -41.1130 C.2    35  ASP35       0.3668
     15  OD1      -58.4260   12.8850  -40.6470 O.co2  35  ASP35      -0.2456
     16  OD2      -56.8420   12.5800  -42.1270 O.co2  35  ASP35      -0.2456
     17  N        -48.7740   10.4480  -41.6400 N.3    47  TRP47      -0.1241
     18  CA       -50.1700   10.4500  -42.0890 C.3    47  TRP47       0.1605
     19  C        -50.2930    9.5730  -43.3410 C.2    47  TRP47       0.2264
     20  O        -49.4840    9.7010  -44.2710 O.2    47  TRP47      -0.2867
     21  CB       -50.6420   11.8840  -42.3690 C.3    47  TRP47       0.0550
     22  CG       -52.0150   11.9550  -42.9690 C.ar   47  TRP47       0.0003
     23  CD1      -53.2100   11.8870  -42.3100 C.ar   47  TRP47       0.0946
     24  CD2      -52.3280   12.1440  -44.3530 C.ar   47  TRP47       0.0152
     25  NE1      -54.2530   11.9950  -43.2050 N.ar   47  TRP47      -0.2442
     26  CE2      -53.7390   12.1850  -44.4650 C.ar   47  TRP47       0.0810
     27  CE3      -51.5520   12.2930  -45.5140 C.ar   47  TRP47       0.0012
     28  CZ2      -54.3930   12.3760  -45.6920 C.ar   47  TRP47       0.0191
     29  CZ3      -52.2020   12.4710  -46.7300 C.ar   47  TRP47       0.0001
     30  CH2      -53.6020   12.4870  -46.8150 C.ar   47  TRP47       0.0015
     31  N        -57.0370    9.9590  -45.7450 N.3    50  VAL50      -0.1245
     32  CA       -58.2960   10.4330  -45.1810 C.3    50  VAL50       0.1561
     33  C        -59.4760    9.9560  -46.0190 C.2    50  VAL50       0.2260
     34  O        -59.3680    9.8280  -47.2390 O.2    50  VAL50      -0.2867
     35  CB       -58.2750   11.9890  -45.0490 C.3    50  VAL50       0.0252
     36  CG1      -58.2610   12.6950  -46.4180 C.3    50  VAL50       0.0019
     37  CG2      -59.4480   12.4940  -44.2010 C.3    50  VAL50       0.0019
     38  N        -63.2890   11.5160  -46.2530 N.3    52  TRP52      -0.1227
     39  CA       -64.1150   12.6410  -45.8350 C.3    52  TRP52       0.1737
     40  C        -65.5460   12.2070  -45.6120 C.2    52  TRP52       0.2595
     41  O        -65.9430   11.1230  -46.0520 O.2    52  TRP52      -0.2718
     42  CB       -64.0850   13.6900  -46.9600 C.3    52  TRP52       0.0564
     43  CG       -64.1340   15.1160  -46.5110 C.ar   52  TRP52       0.0003
     44  CD1      -65.1370   16.0150  -46.7370 C.ar   52  TRP52       0.0946
     45  CD2      -63.0710   15.8420  -45.8900 C.ar   52  TRP52       0.0152
     46  NE1      -64.7590   17.2610  -46.2940 N.ar   52  TRP52      -0.2442
     47  CE2      -63.4860   17.1850  -45.7830 C.ar   52  TRP52       0.0810
     48  CE3      -61.7930   15.4860  -45.4150 C.ar   52  TRP52       0.0012
     49  CZ2      -62.6730   18.1790  -45.2220 C.ar   52  TRP52       0.0191
     50  CZ3      -60.9740   16.4780  -44.8860 C.ar   52  TRP52       0.0001
     51  CH2      -61.4180   17.8060  -44.7840 C.ar   52  TRP52       0.0015
     52  N        -66.3610   13.0790  -44.9620 N.am   53  ALA53      -0.1966
     53  CA       -67.7980   12.8280  -44.8730 C.3    53  ALA53       0.1728
     54  C        -68.2530   12.9130  -46.3460 C.2    53  ALA53       0.2616
     55  O        -67.8250   13.8290  -47.0670 O.2    53  ALA53      -0.2715
     56  CB       -68.4710   13.9210  -44.0640 C.3    53  ALA53       0.0334
     57  N        -68.9690   11.9060  -46.8140 N.am   54  GLY54      -0.1955
     58  CA       -69.3930   11.8610  -48.2150 C.3    54  GLY54       0.1869
     59  C        -68.5630   10.9350  -49.0950 C.2    54  GLY54       0.2309
     60  O        -68.9510   10.6570  -50.2390 O.2    54  GLY54      -0.2863
     61  N        -65.1120   11.2970  -50.2210 N.3    56  SER56      -0.1202
     62  CA       -63.9160   11.7790  -50.9290 C.3    56  SER56       0.2020
     63  C        -62.6720   11.3200  -50.1620 C.2    56  SER56       0.2619
     64  O        -62.6900   11.3180  -48.9310 O.2    56  SER56      -0.2717
     65  CB       -63.9130   13.3020  -51.0340 C.3    56  SER56       0.2103
     66  OG       -64.8920   13.7480  -51.9630 O.3    56  SER56      -0.2182
     67  N        -61.6420   10.8570  -50.8840 N.am   57  THR57      -0.1938
     68  CA       -60.4080   10.3740  -50.2340 C.3    57  THR57       0.2028
     69  C        -59.2070   11.1960  -50.6410 C.2    57  THR57       0.2642
     70  O        -59.2120   11.8670  -51.6750 O.2    57  THR57      -0.2714
     71  CB       -60.1570    8.8770  -50.5350 C.3    57  THR57       0.1808
     72  OG1      -60.1090    8.7030  -51.9600 O.3    57  THR57      -0.2208
     73  CG2      -61.2180    7.9530  -49.9140 C.3    57  THR57       0.0379
     74  N        -58.1730   11.1120  -49.8200 N.am   58  GLY58      -0.1954
     75  CA       -56.8810   11.7350  -50.0640 C.3    58  GLY58       0.1869
     76  C        -55.8500   10.8160  -49.4680 C.2    58  GLY58       0.2309
     77  O        -56.0270   10.3710  -48.3360 O.2    58  GLY58      -0.2863
     78  N        -67.5020   16.6230  -38.7470 N.3   100  TYR100     -0.1241
     79  CA       -67.7090   17.3590  -39.9920 C.3   100  TYR100      0.1605
     80  C        -69.0340   18.0820  -39.7020 C.2   100  TYR100      0.2264
     81  O        -70.0850   17.4330  -39.5760 O.2   100  TYR100     -0.2867
     82  CB       -67.8200   16.4050  -41.1940 C.3   100  TYR100      0.0534
     83  CG       -68.2980   17.0590  -42.4710 C.ar  100  TYR100     -0.0201
     84  CD1      -69.6570   17.1340  -42.7740 C.ar  100  TYR100     -0.0009
     85  CD2      -67.3900   17.5440  -43.4130 C.ar  100  TYR100     -0.0009
     86  CE1      -70.1030   17.6980  -43.9710 C.ar  100  TYR100      0.0417
     87  CE2      -67.8230   18.0910  -44.6230 C.ar  100  TYR100      0.0417
     88  CZ       -69.1800   18.1610  -44.8990 C.ar  100  TYR100      0.1957
     89  OH       -69.6300   18.6780  -46.1020 O.3   100  TYR100     -0.2866
     90  N        -70.0620   21.9700  -44.9210 N.3   103  TYR103     -0.1241
     91  CA       -69.1010   22.0440  -46.0190 C.3   103  TYR103      0.1605
     92  C        -67.7850   22.7740  -45.7120 C.2   103  TYR103      0.2264
     93  O        -66.7310   22.2870  -46.1070 O.2   103  TYR103     -0.2867
     94  CB       -69.7600   22.6290  -47.2770 C.3   103  TYR103      0.0534
     95  CG       -68.9230   22.4050  -48.5160 C.ar  103  TYR103     -0.0201
     96  CD1      -68.0140   23.3660  -48.9520 C.ar  103  TYR103     -0.0009
     97  CD2      -69.0480   21.2370  -49.2620 C.ar  103  TYR103     -0.0009
     98  CE1      -67.2370   23.1620  -50.0920 C.ar  103  TYR103      0.0417
     99  CE2      -68.2950   21.0320  -50.4150 C.ar  103  TYR103      0.0417
    100  CZ       -67.3920   21.9980  -50.8290 C.ar  103  TYR103      0.1957
    101  OH       -66.6580   21.7990  -51.9720 O.3   103  TYR103     -0.2866
    102  N        -65.1830   21.9210  -40.3630 N.3   106  TYR106     -0.1227
    103  CA       -64.8120   20.5370  -40.0870 C.3   106  TYR106      0.1736
    104  C        -63.4730   20.5130  -39.3690 C.2   106  TYR106      0.2595
    105  O        -62.7680   21.5220  -39.2920 O.2   106  TYR106     -0.2718
    106  CB       -64.7540   19.7050  -41.3950 C.3   106  TYR106      0.0548
    107  CG       -63.9750   20.4150  -42.4830 C.ar  106  TYR106     -0.0200
    108  CD1      -64.6320   21.1850  -43.4430 C.ar  106  TYR106     -0.0009
    109  CD2      -62.5770   20.4310  -42.4730 C.ar  106  TYR106     -0.0009
    110  CE1      -63.9220   21.9130  -44.3950 C.ar  106  TYR106      0.0417
    111  CE2      -61.8580   21.1560  -43.4180 C.ar  106  TYR106      0.0417
    112  CZ       -62.5390   21.8900  -44.3800 C.ar  106  TYR106      0.1957
    113  OH       -61.8550   22.6380  -45.2940 O.3   106  TYR106     -0.2866
    114  N        -63.1150   19.3500  -38.8790 N.am  107  ASP107     -0.1960
    115  CA       -61.9570   19.1890  -38.0260 C.3   107  ASP107      0.1840
    116  C        -61.1820   17.9340  -38.4300 C.2   107  ASP107      0.2623
    117  O        -61.4760   17.3150  -39.4520 O.2   107  ASP107     -0.2715
    118  CB       -62.5210   19.1060  -36.5760 C.3   107  ASP107      0.1450
    119  CG       -61.5630   19.2550  -35.4040 C.2   107  ASP107      0.3671
    120  OD1      -62.0050   19.0160  -34.2360 O.co2 107  ASP107     -0.2456
    121  OD2      -60.3760   19.5690  -35.6400 O.co2 107  ASP107     -0.2456
    122  N        -60.1840   17.5740  -37.6350 N.am  108  GLY108     -0.1940
    123  CA       -59.4090   16.3720  -37.8760 C.3   108  GLY108      0.2014
    124  C        -58.6780   15.9360  -36.6300 C.2   108  GLY108      0.2638
    125  O        -58.3560   16.7720  -35.7840 O.2   108  GLY108     -0.2714
    126  N        -58.4320   14.6140  -36.5070 N.am  109  PHE109     -0.1973
    127  CA       -57.5380   14.0270  -35.4970 C.3   109  PHE109      0.1639
    128  C        -57.9480   14.3400  -34.0530 C.2   109  PHE109      0.2290
    129  O        -57.0850   14.4580  -33.1710 O.2   109  PHE109     -0.2864
    130  CB       -56.0960   14.5660  -35.7580 C.3   109  PHE109      0.0560
    131  CG       -55.6340   14.4140  -37.1920 C.ar  109  PHE109     -0.0200
    132  CD1      -54.9780   13.2600  -37.6070 C.ar  109  PHE109     -0.0042
    133  CD2      -55.8720   15.4210  -38.1340 C.ar  109  PHE109     -0.0042
    134  CE1      -54.5650   13.1150  -38.9330 C.ar  109  PHE109     -0.0003
    135  CE2      -55.4740   15.2620  -39.4660 C.ar  109  PHE109     -0.0003
    136  CZ       -54.8310   14.1070  -39.8530 C.ar  109  PHE109     -0.0000
@<TRIPOS>BOND
     1   101   100    1
     2    66    65    1
     3    72    71    1
     4    70    69    2
     5    65    62    1
     6    62    61    1
     7    62    63    1
     8    67    68    1
     9    67    63   am
    10   100    99   ar
    11   100    98   ar
    12    69    68    1
    13    69    74   am
    14    71    68    1
    15    71    73    1
    16    99    97   ar
    17    60    59    2
    18    63    64    2
    19    98    96   ar
    20    75    74    1
    21    75    76    1
    22    76    77    2
    23    97    95   ar
    24    59    58    1
    25    96    95   ar
    26    95    94    1
    27    58    57    1
    28    94    91    1
    29    34    33    2
    30    55    54    2
    31    42    43    1
    32    42    39    1
    33    30    29   ar
    34    30    28   ar
    35    57    54   am
    36    44    43   ar
    37    44    46   ar
    38    29    27   ar
    39    43    45   ar
    40    36    35    1
    41    54    53    1
    42    46    47   ar
    43    38    39    1
    44    93    92    2
    45    89    88    1
    46    41    40    2
    47    91    92    1
    48    91    90    1
    49    33    32    1
    50    45    47   ar
    51    45    48   ar
    52    39    40    1
    53    47    49   ar
    54    31    32    1
    55    28    26   ar
    56    40    52   am
    57    27    24   ar
    58    48    50   ar
    59   113   112    1
    60    49    51   ar
    61    32    35    1
    62    35    37    1
    63    52    53    1
    64    88    87   ar
    65    88    86   ar
    66    50    51   ar
    67    53    56    1
    68    87    85   ar
    69    26    24   ar
    70    26    25   ar
    71   110   112   ar
    72   110   108   ar
    73   112   111   ar
    74    24    22   ar
    75    20    19    2
    76    86    84   ar
    77   108   107   ar
    78   111   109   ar
    79    85    83   ar
    80    19    18    1
    81    25    23   ar
    82    22    21    1
    83    22    23   ar
    84    84    83   ar
    85   107   109   ar
    86   107   106    1
    87    83    82    1
    88    21    18    1
    89    16    14   ar
    90     6     8    1
    91     6     5    1
    92    18    17    1
    93     7     5    1
    94   106   103    1
    95     5     2    1
    96    82    79    1
    97    14    15   ar
    98    14    13    1
    99     2     3    1
   100     2     1    1
   101    10     9    1
   102    10    11    1
   103    10    13    1
   104    11    12    2
   105     3     4    2
   106   102   103    1
   107   103   104    1
   108    79    80    1
   109    79    78    1
   110   136   135   ar
   111   136   134   ar
   112    80    81    2
   113   135   133   ar
   114   117   116    2
   115   104   105    2
   116   104   114   am
   117   134   132   ar
   118   114   115    1
   119   116   115    1
   120   116   122   am
   121   133   131   ar
   122   115   118    1
   123   123   122    1
   124   123   124    1
   125   132   131   ar
   126   131   130    1
   127   124   126   am
   128   124   125    2
   129   118   119    1
   130   126   127    1
   131   130   127    1
   132   121   119   ar
   133   127   128    1
   134   119   120   ar
   135   128   129    2
