@<TRIPOS>MOLECULE
tmp/4jn7A00.pdb
 146 141 0 0 0
SMALL
GASTEIGER

@<TRIPOS>ATOM
      1  N         22.1710  -61.3780   33.3340 N.3    16  ARG16      -0.1245
      2  CA        22.6390  -61.6430   34.6920 C.3    16  ARG16       0.1563
      3  C         21.7770  -60.8790   35.6700 C.2    16  ARG16       0.2260
      4  O         21.4180  -59.7300   35.4080 O.2    16  ARG16      -0.2867
      5  CB        24.1030  -61.2250   34.8310 C.3    16  ARG16       0.0307
      6  CG        25.0270  -62.1140   34.0180 C.3    16  ARG16       0.0489
      7  CD        26.5050  -61.7550   34.1020 C.3    16  ARG16       0.2205
      8  NE        27.0780  -62.0260   35.4220 N.pl3  16  ARG16      -0.0865
      9  CZ        28.3830  -62.1120   35.6610 C.cat  16  ARG16       0.5346
     10  NH1       29.2550  -61.9460   34.6880 N.pl3  16  ARG16       0.1354
     11  NH2       28.8250  -62.3500   36.8880 N.pl3  16  ARG16       0.1354
     12  N         27.9910  -57.0860   43.1920 N.3    36  TYR36      -0.1241
     13  CA        28.4480  -58.0180   42.1660 C.3    36  TYR36       0.1605
     14  C         27.4650  -59.1820   42.0420 C.2    36  TYR36       0.2264
     15  O         26.8330  -59.5780   43.0250 O.2    36  TYR36      -0.2867
     16  CB        29.8290  -58.5950   42.5070 C.3    36  TYR36       0.0534
     17  CG        30.4950  -59.2510   41.3240 C.ar   36  TYR36      -0.0201
     18  CD1       31.1480  -58.4810   40.3850 C.ar   36  TYR36      -0.0009
     19  CD2       30.4590  -60.6280   41.1150 C.ar   36  TYR36      -0.0009
     20  CE1       31.7450  -59.0360   39.2830 C.ar   36  TYR36       0.0417
     21  CE2       31.0680  -61.2010   40.0070 C.ar   36  TYR36       0.0417
     22  CZ        31.7030  -60.3880   39.0860 C.ar   36  TYR36       0.1957
     23  OH        32.3110  -60.9070   37.9750 O.3    36  TYR36      -0.2866
     24  N         35.3070  -59.9220   24.6140 N.3   124  TYR124     -0.1241
     25  CA        35.3470  -61.1790   25.3610 C.3   124  TYR124      0.1605
     26  C         35.3770  -62.4480   24.5260 C.2   124  TYR124      0.2264
     27  O         35.5870  -63.5190   25.0700 O.2   124  TYR124     -0.2867
     28  CB        34.1860  -61.2950   26.3510 C.3   124  TYR124      0.0534
     29  CG        34.0620  -60.1710   27.3440 C.ar  124  TYR124     -0.0201
     30  CD1       35.0830  -59.8540   28.2310 C.ar  124  TYR124     -0.0009
     31  CD2       32.8860  -59.4540   27.4340 C.ar  124  TYR124     -0.0009
     32  CE1       34.9370  -58.8210   29.1570 C.ar  124  TYR124      0.0417
     33  CE2       32.7340  -58.4370   28.3530 C.ar  124  TYR124      0.0417
     34  CZ        33.7600  -58.1210   29.2160 C.ar  124  TYR124      0.1957
     35  OH        33.5740  -57.1070   30.1220 O.3   124  TYR124     -0.2866
     36  N         39.1700  -55.8340   24.6490 N.3   149  LYS149     -0.1245
     37  CA        39.5970  -57.0750   25.2970 C.3   149  LYS149      0.1561
     38  C         38.8940  -58.2740   24.6880 C.2   149  LYS149      0.2260
     39  O         37.6640  -58.3130   24.6160 O.2   149  LYS149     -0.2867
     40  CB        39.3810  -57.0430   26.8150 C.3   149  LYS149      0.0271
     41  CG        39.9760  -58.2530   27.5210 C.3   149  LYS149      0.0035
     42  CD        39.9900  -58.1100   29.0370 C.3   149  LYS149      0.0206
     43  CE        38.6290  -58.3550   29.6360 C.3   149  LYS149      0.1093
     44  NZ        38.6410  -58.1550   31.1050 N.3   149  LYS149     -0.1314
     45  N         42.0470  -61.9030   27.8360 N.3   189  ASP189     -0.1239
     46  CA        41.6200  -62.4640   29.1210 C.3   189  ASP189      0.1674
     47  C         41.5920  -63.9740   29.0180 C.2   189  ASP189      0.2266
     48  O         40.7470  -64.5350   28.3280 O.2   189  ASP189     -0.2867
     49  CB        40.2330  -61.9240   29.4620 C.3   189  ASP189      0.1410
     50  CG        39.7710  -62.3050   30.8480 C.2   189  ASP189      0.3668
     51  OD1       40.3930  -63.1850   31.4820 O.co2 189  ASP189     -0.2456
     52  OD2       38.7710  -61.6760   31.2850 O.co2 189  ASP189     -0.2456
     53  N         41.0480  -65.9550   31.4560 N.3   191  HIS191     -0.1241
     54  CA        39.8600  -66.3780   32.2000 C.3   191  HIS191      0.1621
     55  C         40.0910  -67.5170   33.1870 C.2   191  HIS191      0.2264
     56  O         39.1930  -68.3450   33.4100 O.2   191  HIS191     -0.2867
     57  CB        38.7070  -66.7210   31.2530 C.3   191  HIS191      0.0745
     58  CG        37.3690  -66.3470   31.8000 C.ar  191  HIS191      0.0817
     59  ND1       36.4740  -67.2550   32.3300 N.ar  191  HIS191     -0.2268
     60  CD2       36.7820  -65.1340   31.9130 C.ar  191  HIS191      0.1154
     61  CE1       35.3800  -66.6170   32.7150 C.ar  191  HIS191      0.1986
     62  NE2       35.5440  -65.3290   32.4750 N.ar  191  HIS191     -0.2212
     63  N         40.7970  -59.8000   39.8390 N.3   242  GLU242     -0.1245
     64  CA        39.3510  -59.7210   39.9980 C.3   242  GLU242      0.1567
     65  C         38.8270  -60.6670   41.0520 C.2   242  GLU242      0.2260
     66  O         37.7820  -60.4130   41.6510 O.2   242  GLU242     -0.2867
     67  CB        38.6590  -60.0350   38.6880 C.3   242  GLU242      0.0388
     68  CG        38.8000  -61.4720   38.2300 C.3   242  GLU242      0.1160
     69  CD        38.1560  -61.6850   36.8810 C.2   242  GLU242      0.3649
     70  OE1       38.6410  -61.0850   35.9070 O.co2 242  GLU242     -0.2457
     71  OE2       37.1350  -62.4220   36.8000 O.co2 242  GLU242     -0.2457
     72  N         38.3600  -54.2390   37.4140 N.3   292  HIS292     -0.1241
     73  CA        37.4720  -55.2350   36.8120 C.3   292  HIS292      0.1621
     74  C         36.0500  -54.7060   36.8460 C.2   292  HIS292      0.2264
     75  O         35.5720  -54.2450   37.8830 O.2   292  HIS292     -0.2867
     76  CB        37.5760  -56.5120   37.6290 C.3   292  HIS292      0.0745
     77  CG        36.7200  -57.6490   37.1550 C.ar  292  HIS292      0.0817
     78  ND1       35.5800  -58.0450   37.8260 N.ar  292  HIS292     -0.2268
     79  CD2       36.8820  -58.5110   36.1240 C.ar  292  HIS292      0.1154
     80  CE1       35.0790  -59.1070   37.2170 C.ar  292  HIS292      0.1986
     81  NE2       35.8450  -59.4060   36.1830 N.ar  292  HIS292     -0.2212
     82  N         32.7540  -56.0230   34.6100 N.3   294  PRO294     -0.2116
     83  CA        31.7240  -56.5800   33.7170 C.3   294  PRO294      0.1372
     84  C         30.3140  -56.3330   34.2640 C.2   294  PRO294      0.2244
     85  O         29.3490  -56.9360   33.7860 O.2   294  PRO294     -0.2868
     86  CB        32.0350  -58.0720   33.7520 C.3   294  PRO294      0.0268
     87  CG        32.4690  -58.2960   35.1750 C.3   294  PRO294      0.0207
     88  CD        33.2820  -57.0480   35.5340 C.3   294  PRO294      0.0892
     89  N         37.5170  -51.3080   32.4470 N.3   317  GLU317     -0.1245
     90  CA        36.6770  -52.2460   31.7060 C.3   317  GLU317      0.1567
     91  C         35.2640  -51.6870   31.5610 C.2   317  GLU317      0.2260
     92  O         34.7000  -51.1730   32.5230 O.2   317  GLU317     -0.2867
     93  CB        36.6190  -53.5670   32.4750 C.3   317  GLU317      0.0388
     94  CG        35.8430  -54.6680   31.7630 C.3   317  GLU317      0.1160
     95  CD        36.0350  -56.0260   32.3940 C.2   317  GLU317      0.3649
     96  OE1       36.5770  -56.1220   33.5190 O.co2 317  GLU317     -0.2457
     97  OE2       35.6760  -57.0240   31.7340 O.co2 317  GLU317     -0.2457
     98  N         26.0760  -61.0270   28.3110 N.3   326  TYR326     -0.1241
     99  CA        27.3010  -61.5820   28.8730 C.3   326  TYR326      0.1605
    100  C         27.7930  -62.7910   28.0850 C.2   326  TYR326      0.2264
    101  O         27.0180  -63.6650   27.7080 O.2   326  TYR326     -0.2867
    102  CB        27.1650  -61.9640   30.3570 C.3   326  TYR326      0.0534
    103  CG        28.4580  -62.5720   30.8210 C.ar  326  TYR326     -0.0201
    104  CD1       29.5260  -61.7720   31.1920 C.ar  326  TYR326     -0.0009
    105  CD2       28.6430  -63.9460   30.8030 C.ar  326  TYR326     -0.0009
    106  CE1       30.7400  -62.3270   31.5650 C.ar  326  TYR326      0.0417
    107  CE2       29.8500  -64.5090   31.1790 C.ar  326  TYR326      0.0417
    108  CZ        30.8880  -63.6970   31.5580 C.ar  326  TYR326      0.1957
    109  OH        32.0920  -64.2730   31.9170 O.3   326  TYR326     -0.2866
    110  N         31.7320  -65.2440   27.4670 N.3   328  TYR328     -0.1241
    111  CA        33.1810  -65.4260   27.4210 C.3   328  TYR328      0.1605
    112  C         33.5260  -66.4450   26.3550 C.2   328  TYR328      0.2264
    113  O         33.0270  -67.5740   26.3670 O.2   328  TYR328     -0.2867
    114  CB        33.7970  -65.8860   28.7550 C.3   328  TYR328      0.0534
    115  CG        35.2760  -66.1150   28.5760 C.ar  328  TYR328     -0.0201
    116  CD1       36.1490  -65.0370   28.5180 C.ar  328  TYR328     -0.0009
    117  CD2       35.7890  -67.3890   28.3900 C.ar  328  TYR328     -0.0009
    118  CE1       37.5010  -65.2190   28.3100 C.ar  328  TYR328      0.0417
    119  CE2       37.1420  -67.5860   28.1800 C.ar  328  TYR328      0.0417
    120  CZ        37.9850  -66.4890   28.1320 C.ar  328  TYR328      0.1957
    121  OH        39.3270  -66.7000   27.9350 O.3   328  TYR328     -0.2866
    122  N         21.2550  -67.1880   36.4410 N.3   380  TRP380     -0.1241
    123  CA        22.4740  -67.2030   35.6460 C.3   380  TRP380      0.1605
    124  C         23.4920  -68.0910   36.3250 C.2   380  TRP380      0.2264
    125  O         23.6170  -68.0620   37.5580 O.2   380  TRP380     -0.2867
    126  CB        23.0290  -65.7870   35.5020 C.3   380  TRP380      0.0550
    127  CG        24.3370  -65.7050   34.7480 C.ar  380  TRP380      0.0003
    128  CD1       24.4970  -65.6190   33.3960 C.ar  380  TRP380      0.0946
    129  CD2       25.6570  -65.6850   35.3120 C.ar  380  TRP380      0.0152
    130  NE1       25.8350  -65.5460   33.0850 N.ar  380  TRP380     -0.2442
    131  CE2       26.5680  -65.5900   34.2410 C.ar  380  TRP380      0.0810
    132  CE3       26.1560  -65.7430   36.6150 C.ar  380  TRP380      0.0012
    133  CZ2       27.9540  -65.5460   34.4360 C.ar  380  TRP380      0.0191
    134  CZ3       27.5330  -65.6990   36.8050 C.ar  380  TRP380      0.0001
    135  CH2       28.4100  -65.5980   35.7170 C.ar  380  TRP380      0.0015
    136  N         27.6230  -70.0530   35.6040 N.3   382  ARG382     -0.1245
    137  CA        28.8220  -70.2120   34.8010 C.3   382  ARG382      0.1563
    138  C         28.8460  -71.5510   34.1160 C.2   382  ARG382      0.2260
    139  O         28.2060  -72.4930   34.5450 O.2   382  ARG382     -0.2867
    140  CB        30.0640  -70.0850   35.6800 C.3   382  ARG382      0.0307
    141  CG        30.1960  -68.7150   36.2980 C.3   382  ARG382      0.0489
    142  CD        31.4000  -68.5640   37.2240 C.3   382  ARG382      0.2205
    143  NE        31.3500  -67.2100   37.7520 N.pl3 382  ARG382     -0.0865
    144  CZ        30.5640  -66.8290   38.7550 C.cat 382  ARG382      0.5346
    145  NH1       29.8490  -67.7190   39.4470 N.pl3 382  ARG382      0.1354
    146  NH2       30.4970  -65.5520   39.0710 N.pl3 382  ARG382      0.1354
@<TRIPOS>BOND
     1    26    27    2
     2    26    25    1
     3    24    25    1
     4    39    38    2
     5    36    37    1
     6    38    37    1
     7    37    40    1
     8    25    28    1
     9    28    29    1
    10   112   113    2
    11   112   111    1
    12    40    41    1
    13    29    31   ar
    14    29    30   ar
    15   111   110    1
    16   111   114    1
    17    31    33   ar
    18    41    42    1
    19   101   100    2
    20    45    46    1
    21   121   120    1
    22   100    99    1
    23   120   119   ar
    24   120   118   ar
    25   119   117   ar
    26    30    32   ar
    27   118   116   ar
    28    98    99    1
    29    48    47    2
    30    33    34   ar
    31   117   115   ar
    32   116   115   ar
    33   115   114    1
    34    99   102    1
    35    47    46    1
    36    42    43    1
    37    46    49    1
    38    32    34   ar
    39    34    35    1
    40    49    50    1
    41    43    44    1
    42   102   103    1
    43   105   103   ar
    44   105   107   ar
    45   103   104   ar
    46    50    52   ar
    47    50    51   ar
    48   107   108   ar
    49   104   106   ar
    50    57    58    1
    51    57    54    1
    52    53    54    1
    53   108   106   ar
    54   108   109    1
    55    91    90    1
    56    91    92    2
    57    90    89    1
    58    90    93    1
    59    97    95   ar
    60    94    95    1
    61    94    93    1
    62    58    60   ar
    63    58    59   ar
    64    60    62   ar
    65    54    55    1
    66    59    61   ar
    67    95    96   ar
    68    62    61   ar
    69   130   128   ar
    70   130   131   ar
    71    55    56    2
    72     1     2    1
    73   128   127   ar
    74    83    86    1
    75    83    84    1
    76    83    82    1
    77    86    87    1
    78    85    84    2
    79     6     7    1
    80     6     5    1
    81     7     8    1
    82   138   139    2
    83   138   137    1
    84   131   133   ar
    85   131   129   ar
    86   133   135   ar
    87    82    88    1
    88    10     9    1
    89     2     5    1
    90     2     3    1
    91   127   129   ar
    92   127   126    1
    93   137   136    1
    94   137   140    1
    95    87    88    1
    96   129   132   ar
    97     4     3    2
    98     8     9    2
    99   126   123    1
   100   123   124    1
   101   123   122    1
   102     9    11    1
   103   140   141    1
   104   135   134   ar
   105    70    69   ar
   106    79    81   ar
   107    79    77   ar
   108    81    80   ar
   109   141   142    1
   110   124   125    2
   111   132   134   ar
   112    71    69   ar
   113    73    74    1
   114    73    72    1
   115    73    76    1
   116    74    75    2
   117    69    68    1
   118    77    76    1
   119    77    78   ar
   120    80    78   ar
   121   142   143    1
   122   143   144    2
   123    23    22    1
   124    68    67    1
   125    67    64    1
   126   144   146    1
   127   144   145    1
   128    22    20   ar
   129    22    21   ar
   130    20    18   ar
   131    63    64    1
   132    64    65    1
   133    21    19   ar
   134    18    17   ar
   135    65    66    2
   136    19    17   ar
   137    17    16    1
   138    14    13    1
   139    14    15    2
   140    13    16    1
   141    13    12    1
