@<TRIPOS>MOLECULE
tmp/4jnaB00.pdb
 172 166 0 0 0
SMALL
GASTEIGER

@<TRIPOS>ATOM
      1  N         66.8560   33.9490   15.4210 N.3    36  ARG36      -0.1245
      2  CA        66.6780   32.5380   15.7150 C.3    36  ARG36       0.1563
      3  C         65.2460   32.2320   16.1840 C.2    36  ARG36       0.2260
      4  O         64.6920   31.1710   15.8630 O.2    36  ARG36      -0.2867
      5  CB        67.7010   32.0980   16.7620 C.3    36  ARG36       0.0307
      6  CG        67.6190   30.6200   17.1160 C.3    36  ARG36       0.0489
      7  CD        68.7290   30.2130   18.0540 C.3    36  ARG36       0.2205
      8  NE        68.6020   28.8200   18.4590 N.pl3  36  ARG36      -0.0865
      9  CZ        68.8260   28.3830   19.6940 C.cat  36  ARG36       0.5346
     10  NH1       68.6850   27.0910   19.9730 N.pl3  36  ARG36       0.1354
     11  NH2       69.1920   29.2390   20.6490 N.pl3  36  ARG36       0.1354
     12  N         63.4020   23.5560   21.0800 N.3   129  HIS129     -0.1226
     13  CA        64.7480   23.2480   21.5470 C.3   129  HIS129      0.1752
     14  C         64.8510   23.4050   23.0600 C.2   129  HIS129      0.2596
     15  O         65.4740   22.5950   23.7310 O.2   129  HIS129     -0.2718
     16  CB        65.7780   24.1620   20.8650 C.3   129  HIS129      0.0759
     17  CG        67.1940   23.9030   21.2880 C.ar  129  HIS129      0.0818
     18  ND1       67.9910   22.9530   20.6850 N.ar  129  HIS129     -0.2268
     19  CD2       67.9570   24.4760   22.2530 C.ar  129  HIS129      0.1154
     20  CE1       69.1820   22.9470   21.2610 C.ar  129  HIS129      0.1986
     21  NE2       69.1850   23.8590   22.2190 N.ar  129  HIS129     -0.2212
     22  N         64.2230   24.4410   23.5980 N.am  130  CYS130     -0.1957
     23  CA        64.4440   24.8230   24.9890 C.3   130  CYS130      0.1828
     24  C         63.1800   24.7540   25.8390 C.2   130  CYS130      0.2467
     25  O         62.2160   25.4770   25.5870 O.2   130  CYS130     -0.2730
     26  CB        65.0380   26.2350   25.0510 C.3   130  CYS130      0.0996
     27  SG        65.2160   26.9000   26.7320 S.3   130  CYS130     -0.0797
     28  N         63.1830   23.8880   26.8620 N.am  131  PRO131     -0.2715
     29  CA        61.9950   23.7510   27.7150 C.3   131  PRO131      0.1536
     30  C         61.7660   24.9340   28.6640 C.2   131  PRO131      0.2598
     31  O         60.6490   25.1000   29.1430 O.2   131  PRO131     -0.2715
     32  CB        62.2680   22.4600   28.4940 C.3   131  PRO131      0.0310
     33  CG        63.7380   22.3450   28.5230 C.3   131  PRO131      0.0237
     34  CD        64.2240   22.9070   27.2040 C.3   131  PRO131      0.0939
     35  N         62.7890   25.7450   28.9330 N.am  132  TYR132     -0.1974
     36  CA        62.5630   26.9370   29.7410 C.3   132  TYR132      0.1639
     37  C         61.7520   27.9570   28.9310 C.2   132  TYR132      0.2290
     38  O         61.0180   28.7770   29.4840 O.2   132  TYR132     -0.2864
     39  CB        63.8930   27.5150   30.2500 C.3   132  TYR132      0.0560
     40  CG        64.5980   26.5610   31.1870 C.ar  132  TYR132     -0.0198
     41  CD1       64.2350   26.4830   32.5290 C.ar  132  TYR132     -0.0009
     42  CD2       65.5880   25.6970   30.7240 C.ar  132  TYR132     -0.0009
     43  CE1       64.8580   25.5860   33.3940 C.ar  132  TYR132      0.0417
     44  CE2       66.2230   24.7970   31.5850 C.ar  132  TYR132      0.0417
     45  CZ        65.8520   24.7450   32.9190 C.ar  132  TYR132      0.1957
     46  OH        66.4630   23.8470   33.7790 O.3   132  TYR132     -0.2866
     47  N         73.8880   13.5680   24.9470 N.3   151  LEU151     -0.1245
     48  CA        73.3190   14.6920   25.6810 C.3   151  LEU151      0.1561
     49  C         71.7940   14.6290   25.7580 C.2   151  LEU151      0.2260
     50  O         71.1970   15.1920   26.6730 O.2   151  LEU151     -0.2867
     51  CB        73.7820   16.0280   25.0990 C.3   151  LEU151      0.0270
     52  CG        75.2660   16.3160   25.3260 C.3   151  LEU151      0.0019
     53  CD1       75.6460   17.6820   24.7910 C.3   151  LEU151      0.0001
     54  CD2       75.5980   16.2050   26.8040 C.3   151  LEU151      0.0001
     55  N         70.2240   13.8030   29.0680 N.3   154  LEU154     -0.1245
     56  CA        69.9820   14.8950   30.0030 C.3   154  LEU154      0.1561
     57  C         68.6260   15.5390   29.7580 C.2   154  LEU154      0.2260
     58  O         67.8970   15.8610   30.6980 O.2   154  LEU154     -0.2867
     59  CB        71.0800   15.9480   29.8940 C.3   154  LEU154      0.0270
     60  CG        72.4800   15.4700   30.2760 C.3   154  LEU154      0.0019
     61  CD1       73.4670   16.5910   30.0290 C.3   154  LEU154      0.0001
     62  CD2       72.5290   15.0090   31.7250 C.3   154  LEU154      0.0001
     63  N         65.4060   15.8370   32.2620 N.3   158  LEU158     -0.1245
     64  CA        64.9060   17.1550   32.6380 C.3   158  LEU158      0.1561
     65  C         63.4030   17.2610   32.3520 C.2   158  LEU158      0.2260
     66  O         62.6330   17.8090   33.1380 O.2   158  LEU158     -0.2867
     67  CB        65.6740   18.2210   31.8510 C.3   158  LEU158      0.0270
     68  CG        65.6260   19.6850   32.2800 C.3   158  LEU158      0.0019
     69  CD1       65.9960   19.8260   33.7440 C.3   158  LEU158      0.0001
     70  CD2       66.5740   20.4950   31.4100 C.3   158  LEU158      0.0001
     71  N         67.4420   18.1580   21.0510 N.3   220  MET220     -0.1245
     72  CA        68.7300   18.7090   21.4700 C.3   220  MET220      0.1570
     73  C         69.6240   18.8160   20.2560 C.2   220  MET220      0.2261
     74  O         70.6850   18.2030   20.2120 O.2   220  MET220     -0.2867
     75  CB        69.4180   17.7890   22.4710 C.3   220  MET220      0.0387
     76  CG        68.8900   17.8530   23.8810 C.3   220  MET220      0.0595
     77  SD        70.1650   18.4900   24.9680 S.3   220  MET220     -0.1393
     78  CE        70.0250   20.2400   24.6070 C.3   220  MET220      0.0692
     79  N         73.9420   23.2820   16.6490 N.3   223  MET223     -0.1245
     80  CA        73.8220   24.6150   16.0960 C.3   223  MET223      0.1570
     81  C         75.1600   25.0200   15.4810 C.2   223  MET223      0.2261
     82  O         76.2120   24.5540   15.9100 O.2   223  MET223     -0.2867
     83  CB        73.3780   25.5820   17.1960 C.3   223  MET223      0.0387
     84  CG        72.1000   25.1170   17.8990 C.3   223  MET223      0.0595
     85  SD        71.6270   25.9950   19.4040 S.3   223  MET223     -0.1393
     86  CE        73.2200   26.2050   20.1990 C.3   223  MET223      0.0692
     87  N         78.7970   22.0500   24.0790 N.3   241  PRO241     -0.2102
     88  CA        77.9330   20.8640   24.0830 C.3   241  PRO241      0.1504
     89  C         77.0680   20.7610   22.8280 C.2   241  PRO241      0.2575
     90  O         76.8540   19.6550   22.3410 O.2   241  PRO241     -0.2718
     91  CB        77.0560   21.0820   25.3120 C.3   241  PRO241      0.0282
     92  CG        77.8870   21.9280   26.2110 C.3   241  PRO241      0.0208
     93  CD        78.6170   22.8660   25.2910 C.3   241  PRO241      0.0893
     94  N         76.6040   21.8870   22.2980 N.am  242  LEU242     -0.1980
     95  CA        75.6690   21.8600   21.1700 C.3   242  LEU242      0.1596
     96  C         76.2550   22.3700   19.8510 C.2   242  LEU242      0.2287
     97  O         75.5410   22.4970   18.8600 O.2   242  LEU242     -0.2864
     98  CB        74.4080   22.6620   21.5020 C.3   242  LEU242      0.0297
     99  CG        73.5610   22.1940   22.6860 C.3   242  LEU242      0.0022
    100  CD1       72.4290   23.1760   22.9300 C.3   242  LEU242      0.0001
    101  CD2       73.0090   20.7900   22.4490 C.3   242  LEU242      0.0001
    102  N         81.2640   27.6720   19.8770 N.3   245  TYR245     -0.1241
    103  CA        81.0670   28.9780   20.4950 C.3   245  TYR245      0.1605
    104  C         82.3560   29.8050   20.3960 C.2   245  TYR245      0.2264
    105  O         83.4720   29.2540   20.3760 O.2   245  TYR245     -0.2867
    106  CB        80.5970   28.8570   21.9540 C.3   245  TYR245      0.0534
    107  CG        81.6370   28.3180   22.9200 C.ar  245  TYR245     -0.0201
    108  CD1       82.5950   29.1540   23.4910 C.ar  245  TYR245     -0.0009
    109  CD2       81.6530   26.9720   23.2720 C.ar  245  TYR245     -0.0009
    110  CE1       83.5440   28.6590   24.3770 C.ar  245  TYR245      0.0417
    111  CE2       82.5990   26.4710   24.1540 C.ar  245  TYR245      0.0417
    112  CZ        83.5390   27.3150   24.7020 C.ar  245  TYR245      0.1957
    113  OH        84.4750   26.8080   25.5810 O.3   245  TYR245     -0.2866
    114  N         73.9410   34.2530   21.6140 N.3   264  ASP264     -0.1239
    115  CA        73.9370   32.7990   21.5020 C.3   264  ASP264      0.1674
    116  C         75.2950   32.2270   21.1000 C.2   264  ASP264      0.2266
    117  O         75.5420   31.0360   21.2680 O.2   264  ASP264     -0.2867
    118  CB        72.8820   32.3630   20.4890 C.3   264  ASP264      0.1410
    119  CG        71.5030   32.2070   21.1110 C.2   264  ASP264      0.3668
    120  OD1       71.3320   32.5660   22.2970 O.co2 264  ASP264     -0.2456
    121  OD2       70.5850   31.7280   20.4090 O.co2 264  ASP264     -0.2456
    122  N         78.1070   32.8670   22.4690 N.3   266  THR266     -0.1203
    123  CA        79.0110   32.7800   23.6240 C.3   266  THR266      0.1994
    124  C         78.5860   31.6430   24.5630 C.2   266  THR266      0.2618
    125  O         77.4380   31.1840   24.5090 O.2   266  THR266     -0.2717
    126  CB        79.1120   34.1300   24.3850 C.3   266  THR266      0.1784
    127  OG1       77.8200   34.5040   24.8700 O.3   266  THR266     -0.2211
    128  CG2       79.6340   35.2260   23.4630 C.3   266  THR266      0.0376
    129  N         79.4970   31.2060   25.4300 N.am  267  HIS267     -0.1961
    130  CA        79.3090   29.9560   26.1790 C.3   267  HIS267      0.1787
    131  C         78.1820   29.9640   27.2140 C.2   267  HIS267      0.2620
    132  O         77.7350   28.9040   27.6480 O.2   267  HIS267     -0.2715
    133  CB        80.6280   29.4700   26.8070 C.3   267  HIS267      0.0785
    134  CG        80.9320   30.0570   28.1550 C.ar  267  HIS267      0.0821
    135  ND1       81.1890   31.3990   28.3490 N.ar  267  HIS267     -0.2267
    136  CD2       81.0640   29.4720   29.3720 C.ar  267  HIS267      0.1154
    137  CE1       81.4420   31.6180   29.6280 C.ar  267  HIS267      0.1986
    138  NE2       81.3760   30.4650   30.2700 N.ar  267  HIS267     -0.2212
    139  N         77.7200   31.1490   27.6000 N.am  268  ARG268     -0.1963
    140  CA        76.5830   31.2530   28.5270 C.3   268  ARG268      0.1729
    141  C         75.3540   31.9490   27.9280 C.2   268  ARG268      0.2617
    142  O         74.5580   32.5740   28.6450 O.2   268  ARG268     -0.2715
    143  CB        77.0040   31.9520   29.8260 C.3   268  ARG268      0.0348
    144  CG        77.9250   31.0950   30.7030 C.3   268  ARG268      0.0492
    145  CD        77.1650   29.9390   31.3600 C.3   268  ARG268      0.2205
    146  NE        78.0950   29.0420   32.0500 N.pl3 268  ARG268     -0.0865
    147  CZ        78.5000   27.8680   31.5680 C.cat 268  ARG268      0.5346
    148  NH1       78.0510   27.4340   30.3930 N.pl3 268  ARG268      0.1354
    149  NH2       79.3610   27.1330   32.2550 N.pl3 268  ARG268      0.1354
    150  N         75.1970   31.8350   26.6140 N.am  269  GLY269     -0.1940
    151  CA        74.0000   32.3150   25.9440 C.3   269  GLY269      0.2014
    152  C         72.9340   31.2330   25.8900 C.2   269  GLY269      0.2639
    153  O         73.0300   30.2080   26.5770 O.2   269  GLY269     -0.2714
    154  N         71.9100   31.4550   25.0740 N.am  270  GLY270     -0.1939
    155  CA        70.8720   30.4570   24.8970 C.3   270  GLY270      0.2014
    156  C         69.4680   31.0060   25.0350 C.2   270  GLY270      0.2639
    157  O         68.5170   30.4340   24.4980 O.2   270  GLY270     -0.2714
    158  N         69.3150   32.1050   25.7680 N.am  271  THR271     -0.1950
    159  CA        67.9920   32.7270   25.8840 C.3   271  THR271      0.1897
    160  C         68.0900   34.2270   25.6850 C.2   271  THR271      0.2313
    161  O         69.1860   34.7980   25.6700 O.2   271  THR271     -0.2863
    162  CB        67.3100   32.4590   27.2450 C.3   271  THR271      0.1794
    163  OG1       67.9270   33.2540   28.2630 O.3   271  THR271     -0.2208
    164  CG2       67.3710   30.9550   27.6220 C.3   271  THR271      0.0378
    165  N         69.5210   36.1060   28.7520 N.3   274  LEU274     -0.1245
    166  CA        70.9770   35.9460   28.7550 C.3   274  LEU274      0.1561
    167  C         71.6460   36.8910   27.7460 C.2   274  LEU274      0.2260
    168  O         72.6730   37.5140   28.0530 O.2   274  LEU274     -0.2867
    169  CB        71.3580   34.4820   28.4810 C.3   274  LEU274      0.0270
    170  CG        70.9190   33.5040   29.5770 C.3   274  LEU274      0.0019
    171  CD1       71.2210   32.0410   29.2080 C.3   274  LEU274      0.0001
    172  CD2       71.5770   33.8610   30.9000 C.3   274  LEU274      0.0001
@<TRIPOS>BOND
     1     1     2    1
     2    81    82    2
     3    81    80    1
     4     2     3    1
     5     2     5    1
     6     4     3    2
     7    80    79    1
     8    80    83    1
     9     5     6    1
    10     6     7    1
    11    83    84    1
    12    84    85    1
    13     7     8    1
    14     8     9    2
    15    97    96    2
    16    85    86    1
    17     9    10    1
    18     9    11    1
    19    96    95    1
    20   102   103    1
    21    74    73    2
    22    73    72    1
    23   105   104    2
    24   104   103    1
    25   121   119   ar
    26   118   119    1
    27   118   115    1
    28   103   106    1
    29    18    20   ar
    30    18    17   ar
    31    16    17    1
    32    16    13    1
    33    71    72    1
    34    12    13    1
    35   116   117    2
    36   116   115    1
    37   119   120   ar
    38    95    98    1
    39    95    94    1
    40    20    21   ar
    41    17    19   ar
    42    72    75    1
    43   115   114    1
    44    98    99    1
    45    13    14    1
    46   106   107    1
    47    21    19   ar
    48    94    89   am
    49    90    89    2
    50   101    99    1
    51   122   123    1
    52    75    76    1
    53    99   100    1
    54    89    88    1
    55   107   109   ar
    56   107   108   ar
    57    14    22   am
    58    14    15    2
    59   109   111   ar
    60   128   126    1
    61   108   110   ar
    62    22    23    1
    63   123   126    1
    64   123   124    1
    65    76    77    1
    66    87    88    1
    67    87    93    1
    68    88    91    1
    69   111   112   ar
    70   110   112   ar
    71   126   127    1
    72   157   156    2
    73   125   124    2
    74   124   129   am
    75    78    77    1
    76   112   113    1
    77    53    52    1
    78   155   156    1
    79   155   154    1
    80    47    48    1
    81    23    26    1
    82    23    24    1
    83   156   158   am
    84    26    27    1
    85   154   152   am
    86    51    52    1
    87    51    48    1
    88    93    92    1
    89    91    92    1
    90    52    54    1
    91   129   130    1
    92    25    24    2
    93   161   160    2
    94    48    49    1
    95   160   159    1
    96    49    50    2
    97   158   159    1
    98    24    28   am
    99   159   162    1
   100   152   151    1
   101   152   153    2
   102   151   150    1
   103   130   133    1
   104   130   131    1
   105   150   141   am
   106   133   134    1
   107    28    34    1
   108    28    29    1
   109    34    33    1
   110   131   139   am
   111   131   132    2
   112   162   164    1
   113   162   163    1
   114   139   140    1
   115    29    32    1
   116    29    30    1
   117   167   168    2
   118   167   166    1
   119   141   140    1
   120   141   142    2
   121   134   135   ar
   122   134   136   ar
   123   135   137   ar
   124   169   166    1
   125   169   170    1
   126    32    33    1
   127   140   143    1
   128    30    35   am
   129    30    31    2
   130   165   166    1
   131    37    38    2
   132    37    36    1
   133    35    36    1
   134    55    56    1
   135   171   170    1
   136   136   138   ar
   137   170   172    1
   138   137   138   ar
   139    36    39    1
   140    57    56    1
   141    57    58    2
   142   143   144    1
   143    59    56    1
   144    59    60    1
   145    61    60    1
   146    39    40    1
   147    60    62    1
   148   148   147    1
   149   144   145    1
   150    42    40   ar
   151    42    44   ar
   152    40    41   ar
   153   145   146    1
   154    70    68    1
   155   147   146    2
   156   147   149    1
   157    44    45   ar
   158    67    68    1
   159    67    64    1
   160    63    64    1
   161    68    69    1
   162    65    64    1
   163    65    66    2
   164    41    43   ar
   165    45    43   ar
   166    45    46    1
