@<TRIPOS>MOLECULE
tmp/4jncA00.pdb
 220 214 0 0 0
SMALL
GASTEIGER

@<TRIPOS>ATOM
      1  N        -12.0540   19.4730  -11.3180 N.3    31  PHE31      -0.1228
      2  CA       -12.3000   19.6770   -9.8890 C.3    31  PHE31       0.1721
      3  C        -13.8000   19.6120   -9.5790 C.2    31  PHE31       0.2437
      4  O        -14.6110   20.1810  -10.3130 O.2    31  PHE31      -0.2733
      5  CB       -11.7310   21.0360   -9.4440 C.3    31  PHE31       0.0547
      6  CG       -12.0970   21.4290   -8.0310 C.ar   31  PHE31      -0.0202
      7  CD1      -13.3250   22.0330   -7.7520 C.ar   31  PHE31      -0.0042
      8  CD2      -11.2100   21.2110   -6.9860 C.ar   31  PHE31      -0.0042
      9  CE1      -13.6670   22.3980   -6.4520 C.ar   31  PHE31      -0.0003
     10  CE2      -11.5400   21.5770   -5.6800 C.ar   31  PHE31      -0.0003
     11  CZ       -12.7710   22.1700   -5.4130 C.ar   31  PHE31      -0.0000
     12  N        -14.1760   18.9150   -8.4920 N.am   32  PRO32      -0.2729
     13  CA       -13.3290   18.0580   -7.6750 C.3    32  PRO32       0.1401
     14  C        -13.6510   16.6030   -7.9990 C.2    32  PRO32       0.2269
     15  O        -14.5810   16.0200   -7.4310 O.2    32  PRO32      -0.2865
     16  CB       -13.7580   18.4150   -6.2490 C.3    32  PRO32       0.0296
     17  CG       -15.1510   19.0300   -6.3850 C.3    32  PRO32       0.0237
     18  CD       -15.4840   19.1220   -7.8520 C.3    32  PRO32       0.0939
     19  N        -12.3530   20.5330  -17.5570 N.3    99  ASP99      -0.1225
     20  CA       -12.2870   21.4680  -16.4310 C.3    99  ASP99       0.1805
     21  C        -10.8220   21.8690  -16.1550 C.2    99  ASP99       0.2597
     22  O        -10.1340   22.3100  -17.0780 O.2    99  ASP99      -0.2718
     23  CB       -12.9810   20.8500  -15.2120 C.3    99  ASP99       0.1424
     24  CG       -13.1950   21.8350  -14.1010 C.2    99  ASP99       0.3668
     25  OD1      -14.0860   22.7000  -14.2340 O.co2  99  ASP99      -0.2456
     26  OD2      -12.4820   21.7270  -13.0850 O.co2  99  ASP99      -0.2456
     27  N        -10.3440   21.7170  -14.9170 N.am  100  TRP100     -0.1976
     28  CA        -8.9310   21.9800  -14.5960 C.3   100  TRP100      0.1640
     29  C         -7.9850   21.1020  -15.4170 C.2   100  TRP100      0.2290
     30  O         -6.8820   21.5310  -15.7750 O.2   100  TRP100     -0.2864
     31  CB        -8.6400   21.7930  -13.1000 C.3   100  TRP100      0.0576
     32  CG        -8.5650   23.0740  -12.3040 C.ar  100  TRP100      0.0006
     33  CD1       -9.3050   23.3960  -11.1990 C.ar  100  TRP100      0.0946
     34  CD2       -7.6990   24.1950  -12.5450 C.ar  100  TRP100      0.0152
     35  NE1       -8.9550   24.6470  -10.7390 N.ar  100  TRP100     -0.2442
     36  CE2       -7.9740   25.1590  -11.5450 C.ar  100  TRP100      0.0810
     37  CE3       -6.7200   24.4810  -13.5080 C.ar  100  TRP100      0.0012
     38  CZ2       -7.3110   26.3920  -11.4870 C.ar  100  TRP100      0.0191
     39  CZ3       -6.0580   25.7080  -13.4450 C.ar  100  TRP100      0.0001
     40  CH2       -6.3580   26.6460  -12.4400 C.ar  100  TRP100      0.0015
     41  N         -7.5050   22.7420  -18.7490 N.3   103  MET103     -0.1245
     42  CA        -6.4750   23.7740  -18.6880 C.3   103  MET103      0.1570
     43  C         -5.0860   23.1440  -18.7920 C.2   103  MET103      0.2261
     44  O         -4.2380   23.6290  -19.5470 O.2   103  MET103     -0.2867
     45  CB        -6.5990   24.6030  -17.4060 C.3   103  MET103      0.0387
     46  CG        -5.7400   25.8600  -17.3970 C.3   103  MET103      0.0595
     47  SD        -6.2040   27.0300  -18.6900 S.3   103  MET103     -0.1393
     48  CE        -7.8200   27.5360  -18.1170 C.3   103  MET103      0.0692
     49  N        -13.4120   23.5250  -21.1590 N.3   124  THR124     -0.1204
     50  CA       -12.3760   24.5130  -20.8760 C.3   124  THR124      0.1979
     51  C        -11.7510   25.0600  -22.1560 C.2   124  THR124      0.2459
     52  O        -11.1040   24.3140  -22.8970 O.2   124  THR124     -0.2732
     53  CB       -11.2760   23.9400  -19.9660 C.3   124  THR124      0.1783
     54  OG1      -11.8740   23.3670  -18.8010 O.3   124  THR124     -0.2211
     55  CG2      -10.3290   25.0420  -19.5370 C.3   124  THR124      0.0376
     56  N        -11.9360   26.3700  -22.4140 N.am  125  PRO125     -0.2728
     57  CA       -11.3530   26.9830  -23.6010 C.3   125  PRO125      0.1401
     58  C         -9.8770   27.3190  -23.3970 C.2   125  PRO125      0.2269
     59  O         -9.3980   27.3450  -22.2550 O.2   125  PRO125     -0.2865
     60  CB       -12.1700   28.2670  -23.7600 C.3   125  PRO125      0.0296
     61  CG       -12.5380   28.6430  -22.3540 C.3   125  PRO125      0.0237
     62  CD       -12.6770   27.3490  -21.5920 C.3   125  PRO125      0.0939
     63  N         -7.5200   30.3300  -23.6280 N.3   127  ILE127     -0.1245
     64  CA        -7.3980   31.7790  -23.7130 C.3   127  ILE127      0.1561
     65  C         -5.9750   32.1450  -23.2900 C.2   127  ILE127      0.2260
     66  O         -5.6120   31.9600  -22.1300 O.2   127  ILE127     -0.2867
     67  CB        -8.4390   32.5010  -22.8110 C.3   127  ILE127      0.0252
     68  CG1       -9.8630   32.0240  -23.1390 C.3   127  ILE127      0.0019
     69  CG2       -8.3130   34.0270  -22.9480 C.3   127  ILE127      0.0019
     70  CD1      -10.9340   32.4930  -22.1640 C.3   127  ILE127      0.0001
     71  N        -16.2860   34.0950  -12.6450 N.3   145  PHE145     -0.1241
     72  CA       -15.2040   33.3750  -11.9680 C.3   145  PHE145      0.1605
     73  C        -14.9460   33.8490  -10.5360 C.2   145  PHE145      0.2264
     74  O        -13.8950   33.5550   -9.9610 O.2   145  PHE145     -0.2867
     75  CB       -13.9090   33.4520  -12.7840 C.3   145  PHE145      0.0534
     76  CG       -13.9000   32.5740  -14.0010 C.ar  145  PHE145     -0.0203
     77  CD1      -14.3980   31.2740  -13.9490 C.ar  145  PHE145     -0.0042
     78  CD2      -13.3670   33.0370  -15.1970 C.ar  145  PHE145     -0.0042
     79  CE1      -14.3820   30.4570  -15.0740 C.ar  145  PHE145     -0.0003
     80  CE2      -13.3420   32.2270  -16.3260 C.ar  145  PHE145     -0.0003
     81  CZ       -13.8530   30.9330  -16.2630 C.ar  145  PHE145     -0.0000
     82  N        -16.4260   32.9280   -7.7450 N.3   147  TYR147     -0.1227
     83  CA       -16.4380   31.8070   -6.7990 C.3   147  TYR147      0.1736
     84  C        -15.0250   31.2950   -6.4930 C.2   147  TYR147      0.2595
     85  O        -14.7910   30.7050   -5.4370 O.2   147  TYR147     -0.2718
     86  CB       -17.3000   30.6570   -7.3350 C.3   147  TYR147      0.0548
     87  CG       -16.7080   29.9670   -8.5480 C.ar  147  TYR147     -0.0200
     88  CD1      -16.9640   30.4410   -9.8330 C.ar  147  TYR147     -0.0009
     89  CD2      -15.8810   28.8470   -8.4060 C.ar  147  TYR147     -0.0009
     90  CE1      -16.4160   29.8240  -10.9480 C.ar  147  TYR147      0.0417
     91  CE2      -15.3300   28.2170   -9.5160 C.ar  147  TYR147      0.0417
     92  CZ       -15.6020   28.7150  -10.7830 C.ar  147  TYR147      0.1957
     93  OH       -15.0680   28.1100  -11.8910 O.3   147  TYR147     -0.2866
     94  N        -14.0990   31.5170   -7.4260 N.am  148  GLN148     -0.1979
     95  CA       -12.7000   31.1130   -7.2580 C.3   148  GLN148      0.1601
     96  C        -11.9890   31.9260   -6.1760 C.2   148  GLN148      0.2287
     97  O        -10.9820   31.4790   -5.6190 O.2   148  GLN148     -0.2864
     98  CB       -11.9330   31.2180   -8.5810 C.3   148  GLN148      0.0394
     99  CG       -12.4320   30.2820   -9.6790 C.3   148  GLN148      0.0908
    100  CD       -11.5360   30.2720  -10.9060 C.2   148  GLN148      0.2608
    101  OE1      -10.3530   30.6080  -10.8320 O.2   148  GLN148     -0.2717
    102  NE2      -12.0960   29.8740  -12.0420 N.am  148  GLN148     -0.0878
    103  N        -12.2930   30.2000   -2.9710 N.3   151  PHE151     -0.1241
    104  CA       -11.3510   29.0780   -2.8950 C.3   151  PHE151      0.1605
    105  C         -9.9220   29.4880   -2.5080 C.2   151  PHE151      0.2264
    106  O         -9.0640   28.6230   -2.3110 O.2   151  PHE151     -0.2867
    107  CB       -11.3080   28.2980   -4.2210 C.3   151  PHE151      0.0534
    108  CG       -12.5740   27.5430   -4.5480 C.ar  151  PHE151     -0.0203
    109  CD1      -13.5540   27.3050   -3.5800 C.ar  151  PHE151     -0.0042
    110  CD2      -12.7710   27.0400   -5.8340 C.ar  151  PHE151     -0.0042
    111  CE1      -14.7150   26.6020   -3.8910 C.ar  151  PHE151     -0.0003
    112  CE2      -13.9300   26.3270   -6.1560 C.ar  151  PHE151     -0.0003
    113  CZ       -14.9020   26.1080   -5.1810 C.ar  151  PHE151     -0.0000
    114  N        -23.0540   19.0200   -5.9760 N.3   172  LEU172     -0.1245
    115  CA       -22.2730   19.4120   -7.1450 C.3   172  LEU172      0.1561
    116  C        -22.6900   18.6740   -8.4090 C.2   172  LEU172      0.2260
    117  O        -22.9720   19.3020   -9.4310 O.2   172  LEU172     -0.2867
    118  CB       -20.7710   19.2180   -6.8940 C.3   172  LEU172      0.0270
    119  CG       -20.0670   20.1230   -5.8770 C.3   172  LEU172      0.0019
    120  CD1      -18.6530   19.6230   -5.6370 C.3   172  LEU172      0.0001
    121  CD2      -20.0470   21.5810   -6.3260 C.3   172  LEU172      0.0001
    122  N        -27.1680   25.1610   -6.7750 N.3   181  LEU181     -0.1245
    123  CA       -26.0660   26.0660   -6.4500 C.3   181  LEU181      0.1561
    124  C        -26.0220   27.2630   -7.3900 C.2   181  LEU181      0.2260
    125  O        -26.2810   27.1350   -8.5890 O.2   181  LEU181     -0.2867
    126  CB       -24.7250   25.3300   -6.5340 C.3   181  LEU181      0.0270
    127  CG       -24.5380   24.0340   -5.7490 C.3   181  LEU181      0.0019
    128  CD1      -23.1860   23.4230   -6.0630 C.3   181  LEU181      0.0001
    129  CD2      -24.6820   24.2880   -4.2680 C.3   181  LEU181      0.0001
    130  N        -23.2920   29.6950   -8.6260 N.3   183  MET183     -0.1245
    131  CA       -21.8430   29.9230   -8.6940 C.3   183  MET183      0.1570
    132  C        -21.4670   31.4030   -8.7360 C.2   183  MET183      0.2261
    133  O        -20.4080   31.7940   -8.2420 O.2   183  MET183     -0.2867
    134  CB       -21.2260   29.1940   -9.8920 C.3   183  MET183      0.0387
    135  CG       -21.3280   27.6690   -9.8380 C.3   183  MET183      0.0595
    136  SD       -20.6970   26.9360   -8.3100 S.3   183  MET183     -0.1393
    137  CE       -18.9340   27.1560   -8.4990 C.3   183  MET183      0.0692
    138  N        -20.2990   27.6290   -0.6900 N.3   192  LEU192     -0.1245
    139  CA       -20.9880   26.9460   -1.7780 C.3   192  LEU192      0.1561
    140  C        -22.3710   26.4500   -1.3610 C.2   192  LEU192      0.2260
    141  O        -23.3140   26.5020   -2.1490 O.2   192  LEU192     -0.2867
    142  CB       -20.1560   25.7610   -2.2830 C.3   192  LEU192      0.0270
    143  CG       -18.9280   25.9990   -3.1720 C.3   192  LEU192      0.0019
    144  CD1      -18.0900   24.7310   -3.2600 C.3   192  LEU192      0.0001
    145  CD2      -19.3250   26.4600   -4.5630 C.3   192  LEU192      0.0001
    146  N         -6.2430   26.0610   -7.4740 N.3   230  TYR230     -0.1241
    147  CA        -6.7620   27.4310   -7.5970 C.3   230  TYR230      0.1605
    148  C         -5.8530   28.5100   -7.0180 C.2   230  TYR230      0.2264
    149  O         -6.0690   29.7030   -7.2600 O.2   230  TYR230     -0.2867
    150  CB        -8.1010   27.5500   -6.8690 C.3   230  TYR230      0.0534
    151  CG        -9.2430   26.7910   -7.4910 C.ar  230  TYR230     -0.0201
    152  CD1      -10.0150   27.3690   -8.4940 C.ar  230  TYR230     -0.0009
    153  CD2       -9.5660   25.5050   -7.0610 C.ar  230  TYR230     -0.0009
    154  CE1      -11.0750   26.6880   -9.0650 C.ar  230  TYR230      0.0417
    155  CE2      -10.6280   24.8080   -7.6280 C.ar  230  TYR230      0.0417
    156  CZ       -11.3750   25.4120   -8.6300 C.ar  230  TYR230      0.1957
    157  OH       -12.4230   24.7440   -9.1960 O.3   230  TYR230     -0.2866
    158  N          0.9260   30.7840  -12.3160 N.3   236  ASN236     -0.1240
    159  CA         0.4110   30.2650  -13.5890 C.3   236  ASN236      0.1653
    160  C          0.3840   31.3260  -14.6780 C.2   236  ASN236      0.2266
    161  O          0.6690   31.0400  -15.8390 O.2   236  ASN236     -0.2867
    162  CB        -0.9960   29.6750  -13.4180 C.3   236  ASN236      0.1155
    163  CG        -1.0070   28.4100  -12.5760 C.2   236  ASN236      0.2627
    164  OD1        0.0440   27.9050  -12.1690 O.2   236  ASN236     -0.2716
    165  ND2       -2.2030   27.8920  -12.3070 N.am  236  ASN236     -0.0877
    166  N        -23.3550   24.6390  -19.6190 N.3   260  ASP260     -0.1239
    167  CA       -22.3360   24.9560  -18.6230 C.3   260  ASP260      0.1674
    168  C        -22.3680   26.4710  -18.4540 C.2   260  ASP260      0.2266
    169  O        -21.9170   27.2110  -19.3290 O.2   260  ASP260     -0.2867
    170  CB       -20.9470   24.4600  -19.0460 C.3   260  ASP260      0.1410
    171  CG       -19.8980   24.5980  -17.9380 C.2   260  ASP260      0.3668
    172  OD1      -20.0150   25.4930  -17.0730 O.co2 260  ASP260     -0.2456
    173  OD2      -18.9370   23.8030  -17.9340 O.co2 260  ASP260     -0.2456
    174  N        -20.8700   28.3290  -16.3170 N.3   262  VAL262     -0.1231
    175  CA       -19.5930   28.9000  -15.9040 C.3   262  VAL262      0.1692
    176  C        -18.6550   28.9180  -17.1120 C.2   262  VAL262      0.2591
    177  O        -18.2180   29.9860  -17.5530 O.2   262  VAL262     -0.2718
    178  CB       -18.9800   28.1250  -14.7060 C.3   262  VAL262      0.0266
    179  CG1      -17.5360   28.5560  -14.4510 C.3   262  VAL262      0.0020
    180  CG2      -19.8210   28.3370  -13.4550 C.3   262  VAL262      0.0020
    181  N        -18.3670   27.7350  -17.6520 N.am  263  LEU263     -0.1980
    182  CA       -17.5670   27.6180  -18.8670 C.3   263  LEU263      0.1596
    183  C        -18.4840   27.6260  -20.0900 C.2   263  LEU263      0.2287
    184  O        -18.7430   26.5870  -20.7060 O.2   263  LEU263     -0.2864
    185  CB       -16.6900   26.3600  -18.8240 C.3   263  LEU263      0.0297
    186  CG       -15.7080   26.2570  -17.6510 C.3   263  LEU263      0.0022
    187  CD1      -15.0330   24.8880  -17.6300 C.3   263  LEU263      0.0001
    188  CD2      -14.6660   27.3820  -17.6960 C.3   263  LEU263      0.0001
    189  N        -17.0070   31.5710  -24.4970 N.3   267  MET267     -0.1245
    190  CA       -15.6360   31.7410  -24.0030 C.3   267  MET267      0.1570
    191  C        -14.5810   31.1910  -24.9610 C.2   267  MET267      0.2261
    192  O        -13.4260   31.6240  -24.9340 O.2   267  MET267     -0.2867
    193  CB       -15.4650   31.0580  -22.6460 C.3   267  MET267      0.0387
    194  CG       -15.9030   31.8820  -21.4700 C.3   267  MET267      0.0595
    195  SD       -15.3750   31.1450  -19.9110 S.3   267  MET267     -0.1393
    196  CE       -15.8180   32.4790  -18.8110 C.3   267  MET267      0.0692
    197  N        -22.0950   21.2690  -16.7720 N.3   288  HIS288     -0.1226
    198  CA       -20.6580   21.2660  -16.5200 C.3   288  HIS288      0.1752
    199  C        -20.0490   19.8620  -16.4520 C.2   288  HIS288      0.2596
    200  O        -18.8990   19.6600  -16.8500 O.2   288  HIS288     -0.2718
    201  CB       -20.3010   22.0520  -15.2530 C.3   288  HIS288      0.0759
    202  CG       -18.8470   21.9780  -14.9130 C.ar  288  HIS288      0.0818
    203  ND1      -17.8810   22.6140  -15.6610 N.ar  288  HIS288     -0.2268
    204  CD2      -18.1890   21.2910  -13.9510 C.ar  288  HIS288      0.1154
    205  CE1      -16.6900   22.3400  -15.1610 C.ar  288  HIS288      0.1986
    206  NE2      -16.8490   21.5430  -14.1200 N.ar  288  HIS288     -0.2212
    207  N        -20.8210   18.9000  -15.9560 N.am  289  TRP289     -0.1976
    208  CA       -20.3030   17.5540  -15.6850 C.3   289  TRP289      0.1640
    209  C        -20.4410   16.6670  -16.9190 C.2   289  TRP289      0.2290
    210  O        -21.1400   15.6480  -16.9180 O.2   289  TRP289     -0.2864
    211  CB       -20.9930   16.9810  -14.4440 C.3   289  TRP289      0.0576
    212  CG       -21.0480   18.0210  -13.3560 C.ar  289  TRP289      0.0006
    213  CD1      -22.1250   18.7870  -13.0050 C.ar  289  TRP289      0.0946
    214  CD2      -19.9600   18.4530  -12.5280 C.ar  289  TRP289      0.0152
    215  NE1      -21.7810   19.6530  -11.9940 N.ar  289  TRP289     -0.2442
    216  CE2      -20.4580   19.4700  -11.6820 C.ar  289  TRP289      0.0810
    217  CE3      -18.6150   18.0710  -12.4090 C.ar  289  TRP289      0.0012
    218  CZ2      -19.6610   20.1060  -10.7250 C.ar  289  TRP289      0.0191
    219  CZ3      -17.8210   18.7080  -11.4560 C.ar  289  TRP289      0.0001
    220  CH2      -18.3490   19.7140  -10.6300 C.ar  289  TRP289      0.0015
@<TRIPOS>BOND
     1   191   192    2
     2   191   190    1
     3   189   190    1
     4   190   193    1
     5    60    57    1
     6    60    61    1
     7    64    63    1
     8    64    65    1
     9    64    67    1
    10    57    58    1
    11    57    56    1
    12    58    59    2
    13    65    66    2
    14    68    67    1
    15    68    70    1
    16    69    67    1
    17    52    51    2
    18   193   194    1
    19    56    51   am
    20    56    62    1
    21    61    62    1
    22    51    50    1
    23   194   195    1
    24    49    50    1
    25    50    53    1
    26   184   183    2
    27   183   182    1
    28    53    55    1
    29    53    54    1
    30   195   196    1
    31   166   167    1
    32    44    43    2
    33   169   168    2
    34   170   167    1
    35   170   171    1
    36   182   185    1
    37   182   181    1
    38   185   186    1
    39    43    42    1
    40    41    42    1
    41    47    48    1
    42    47    46    1
    43    42    45    1
    44   167   168    1
    45   171   173   ar
    46   171   172   ar
    47   188   186    1
    48   181   176   am
    49   186   187    1
    50    19    20    1
    51   177   176    2
    52    45    46    1
    53   176   175    1
    54    22    21    2
    55   209   210    2
    56   209   208    1
    57   200   199    2
    58   197   198    1
    59   198   199    1
    60   198   201    1
    61   199   207   am
    62    20    21    1
    63    20    23    1
    64    80    81   ar
    65    80    78   ar
    66   174   175    1
    67    81    79   ar
    68    21    27   am
    69   207   208    1
    70   175   178    1
    71   161   160    2
    72    30    29    2
    73   208   211    1
    74   203   205   ar
    75   203   202   ar
    76    29    28    1
    77   201   202    1
    78    23    24    1
    79    78    76   ar
    80   205   206   ar
    81    79    77   ar
    82    27    28    1
    83   202   204   ar
    84   178   179    1
    85   178   180    1
    86   160   159    1
    87    28    31    1
    88   211   212    1
    89    25    24   ar
    90   206   204   ar
    91    24    26   ar
    92    76    77   ar
    93    76    75    1
    94   159   162    1
    95   159   158    1
    96    37    39   ar
    97    37    34   ar
    98    39    40   ar
    99   162   163    1
   100   212   213   ar
   101   212   214   ar
   102    31    32    1
   103   213   215   ar
   104    75    72    1
   105    71    72    1
   106   163   165   am
   107   163   164    2
   108    34    32   ar
   109    34    36   ar
   110   214   217   ar
   111   214   216   ar
   112    40    38   ar
   113   217   219   ar
   114    32    33   ar
   115   102   100   am
   116   215   216   ar
   117    72    73    1
   118    93    92    1
   119   216   218   ar
   120    36    38   ar
   121    36    35   ar
   122   219   220   ar
   123     1     2    1
   124    33    35   ar
   125    90    92   ar
   126    90    88   ar
   127   100   101    2
   128   100    99    1
   129    92    91   ar
   130   218   220   ar
   131    73    74    2
   132     4     3    2
   133   134   135    1
   134   134   131    1
   135     2     3    1
   136     2     5    1
   137   135   136    1
   138    88    87   ar
   139    99    98    1
   140     3    12   am
   141    91    89   ar
   142     5     6    1
   143   117   116    2
   144   157   156    1
   145   154   156   ar
   146   154   152   ar
   147   132   131    1
   148   132   133    2
   149   131   130    1
   150   156   155   ar
   151   125   124    2
   152    98    95    1
   153    87    89   ar
   154    87    86    1
   155   137   136    1
   156   152   151   ar
   157    12    18    1
   158    12    13    1
   159   116   115    1
   160     6     7   ar
   161     6     8   ar
   162    14    13    1
   163    14    15    2
   164    18    17    1
   165     7     9   ar
   166    82    83    1
   167    13    16    1
   168   155   153   ar
   169   147   146    1
   170   147   148    1
   171   147   150    1
   172   151   153   ar
   173   151   150    1
   174    94    95    1
   175    94    84   am
   176   124   123    1
   177    86    83    1
   178   149   148    2
   179    95    96    1
   180   115   118    1
   181   115   114    1
   182     8    10   ar
   183   118   119    1
   184    83    84    1
   185   122   123    1
   186   126   123    1
   187   126   127    1
   188    84    85    2
   189     9    11   ar
   190    17    16    1
   191   121   119    1
   192    96    97    2
   193   112   110   ar
   194   112   113   ar
   195   128   127    1
   196   119   120    1
   197   110   108   ar
   198   127   129    1
   199    10    11   ar
   200   113   111   ar
   201   145   143    1
   202   108   107    1
   203   108   109   ar
   204   107   104    1
   205   111   109   ar
   206   144   143    1
   207   143   142    1
   208   103   104    1
   209   104   105    1
   210   105   106    2
   211   142   139    1
   212   141   140    2
   213   139   140    1
   214   139   138    1
