@<TRIPOS>MOLECULE
tmp/4jnjA00.pdb
 151 144 0 0 0
SMALL
GASTEIGER

@<TRIPOS>ATOM
      1  N         44.2810   -1.9490  -33.3660 N.3    12  ASN12      -0.1240
      2  CA        44.4750   -1.4930  -31.9910 C.3    12  ASN12       0.1653
      3  C         45.5490   -2.2420  -31.2140 C.2    12  ASN12       0.2266
      4  O         46.1790   -3.1690  -31.7220 O.2    12  ASN12      -0.2867
      5  CB        43.1550   -1.4620  -31.1970 C.3    12  ASN12       0.1155
      6  CG        42.5460   -2.8420  -30.9880 C.2    12  ASN12       0.2627
      7  OD1       43.2200   -3.8700  -31.1090 O.2    12  ASN12      -0.2716
      8  ND2       41.2530   -2.8640  -30.6710 N.am   12  ASN12      -0.0877
      9  N         45.4320   -4.3910  -29.0980 N.3    14  SER14      -0.1217
     10  CA        45.1700   -5.8140  -28.8740 C.3    14  SER14       0.1889
     11  C         45.3340   -6.6600  -30.1340 C.2    14  SER14       0.2288
     12  O         45.1560   -7.8650  -30.0820 O.2    14  SER14      -0.2866
     13  CB        43.7660   -6.0100  -28.3050 C.3    14  SER14       0.2089
     14  OG        43.6580   -5.3190  -27.0720 O.3    14  SER14      -0.2183
     15  N         43.4500   -6.3530  -32.8030 N.3    16  SER16      -0.1217
     16  CA        42.2160   -6.3300  -33.5800 C.3    16  SER16       0.1889
     17  C         42.4170   -5.3790  -34.7420 C.2    16  SER16       0.2288
     18  O         43.1890   -4.4290  -34.6530 O.2    16  SER16      -0.2866
     19  CB        41.0270   -5.8660  -32.7310 C.3    16  SER16       0.2089
     20  OG        40.8970   -6.6570  -31.5460 O.3    16  SER16      -0.2183
     21  N         34.9030   -5.7810  -38.6450 N.3    32  TYR32      -0.1241
     22  CA        35.8300   -5.7510  -37.5170 C.3    32  TYR32       0.1605
     23  C         36.2890   -7.1770  -37.2370 C.2    32  TYR32       0.2264
     24  O         35.4780   -8.1030  -37.2380 O.2    32  TYR32      -0.2867
     25  CB        35.1050   -5.1790  -36.2850 C.3    32  TYR32       0.0534
     26  CG        35.9900   -4.6860  -35.1630 C.ar   32  TYR32      -0.0201
     27  CD1       36.2330   -3.3200  -34.9930 C.ar   32  TYR32      -0.0009
     28  CD2       36.5570   -5.5760  -34.2600 C.ar   32  TYR32      -0.0009
     29  CE1       37.0350   -2.8600  -33.9590 C.ar   32  TYR32       0.0417
     30  CE2       37.3600   -5.1280  -33.2180 C.ar   32  TYR32       0.0417
     31  CZ        37.5890   -3.7670  -33.0740 C.ar   32  TYR32       0.1957
     32  OH        38.3810   -3.3170  -32.0670 O.3    32  TYR32      -0.2866
     33  N         38.2160   -9.1460  -34.3350 N.3    34  ASN34      -0.1240
     34  CA        38.6110   -9.0660  -32.9400 C.3    34  ASN34       0.1653
     35  C         39.7210  -10.0690  -32.5960 C.2    34  ASN34       0.2266
     36  O         39.6100  -11.2600  -32.8870 O.2    34  ASN34      -0.2867
     37  CB        37.3790   -9.3300  -32.0770 C.3    34  ASN34       0.1155
     38  CG        37.7250   -9.5130  -30.6070 C.2    34  ASN34       0.2627
     39  OD1       38.5650   -8.7890  -30.0630 O.2    34  ASN34      -0.2716
     40  ND2       37.0990  -10.5060  -29.9680 N.am   34  ASN34      -0.0877
     41  N         41.3630   -9.5640  -29.3380 N.3    36  ALA36      -0.1245
     42  CA        41.6630   -9.3330  -27.9130 C.3    36  ALA36       0.1562
     43  C         41.6980  -10.6900  -27.2460 C.2    36  ALA36       0.2260
     44  O         40.6940  -11.3810  -27.2210 O.2    36  ALA36      -0.2867
     45  CB        40.6160   -8.4700  -27.2500 C.3    36  ALA36       0.0290
     46  N         38.8430  -12.8940  -25.1290 N.3    39  THR39      -0.1203
     47  CA        37.4720  -12.5560  -25.5190 C.3    39  THR39       0.1994
     48  C         36.8700  -13.5530  -26.5220 C.2    39  THR39       0.2618
     49  O         37.5930  -14.2920  -27.1830 O.2    39  THR39      -0.2717
     50  CB        37.3810  -11.1030  -26.0720 C.3    39  THR39       0.1784
     51  OG1       38.0000  -11.0250  -27.3750 O.3    39  THR39      -0.2211
     52  CG2       38.0670  -10.1220  -25.1110 C.3    39  THR39       0.0376
     53  N         35.5440  -13.5950  -26.5990 N.am   40  GLY40      -0.1942
     54  CA        34.8600  -14.4090  -27.5920 C.3    40  GLY40       0.2014
     55  C         34.9000  -13.7780  -28.9820 C.2    40  GLY40       0.2639
     56  O         35.3730  -12.6570  -29.1440 O.2    40  GLY40      -0.2714
     57  N         34.3910  -14.4990  -29.9800 N.am   41  CYS41      -0.1967
     58  CA        34.1600  -13.9440  -31.3140 C.3    41  CYS41       0.1712
     59  C         35.3960  -13.2840  -31.9050 C.2    41  CYS41       0.2296
     60  O         35.3520  -12.1570  -32.4100 O.2    41  CYS41      -0.2864
     61  CB        32.9820  -12.9750  -31.2940 C.3    41  CYS41       0.0983
     62  SG        31.4300  -13.7600  -30.8220 S.3    41  CYS41      -0.0798
     63  N         28.0630   -8.6510  -31.9070 N.3    63  TRP63      -0.1241
     64  CA        28.8920   -9.8560  -31.9510 C.3    63  TRP63       0.1605
     65  C         28.0430  -11.0750  -32.2050 C.2    63  TRP63       0.2264
     66  O         27.9910  -12.0000  -31.3930 O.2    63  TRP63      -0.2867
     67  CB        29.7140  -10.0290  -30.6750 C.3    63  TRP63       0.0550
     68  CG        30.6060   -8.8630  -30.3950 C.ar   63  TRP63       0.0003
     69  CD1       30.4090   -7.9020  -29.4620 C.ar   63  TRP63       0.0946
     70  CD2       31.8260   -8.5180  -31.0780 C.ar   63  TRP63       0.0152
     71  NE1       31.4320   -6.9860  -29.4920 N.ar   63  TRP63      -0.2442
     72  CE2       32.3200   -7.3400  -30.4780 C.ar   63  TRP63       0.0810
     73  CE3       32.5520   -9.0950  -32.1270 C.ar   63  TRP63       0.0012
     74  CZ2       33.5020   -6.7200  -30.8930 C.ar   63  TRP63       0.0191
     75  CZ3       33.7330   -8.4880  -32.5410 C.ar   63  TRP63       0.0001
     76  CH2       34.1970   -7.3080  -31.9290 C.ar   63  TRP63       0.0015
     77  N         28.3020  -14.1730  -29.6340 N.3    70  CYS70      -0.1235
     78  CA        28.7450  -13.9010  -28.2680 C.3    70  CYS70       0.1677
     79  C         27.6970  -13.1890  -27.4140 C.2    70  CYS70       0.2270
     80  O         27.9890  -12.7880  -26.2900 O.2    70  CYS70      -0.2867
     81  CB        30.0530  -13.1080  -28.2640 C.3    70  CYS70       0.0956
     82  SG        31.4870  -14.0560  -28.8030 S.3    70  CYS70      -0.0801
     83  N         26.4010  -10.2590  -27.3800 N.3    72  SER72      -0.1217
     84  CA        26.9480   -9.0030  -26.9040 C.3    72  SER72       0.1889
     85  C         27.0900   -8.0310  -28.0640 C.2    72  SER72       0.2288
     86  O         26.9270   -8.4110  -29.2310 O.2    72  SER72      -0.2866
     87  CB        28.3360   -9.2500  -26.3080 C.3    72  SER72       0.2089
     88  OG        29.2050   -9.8430  -27.2870 O.3    72  SER72      -0.2183
     89  N         29.4560   -4.1190  -28.9580 N.3    74  THR74      -0.1218
     90  CA        30.3470   -3.0930  -28.4640 C.3    74  THR74       0.1862
     91  C         30.1310   -1.8130  -29.2500 C.2    74  THR74       0.2287
     92  O         29.9640   -1.8450  -30.4680 O.2    74  THR74      -0.2866
     93  CB        31.8270   -3.5090  -28.5520 C.3    74  THR74       0.1770
     94  OG1       32.0250   -4.7350  -27.8280 O.3    74  THR74      -0.2211
     95  CG2       32.7450   -2.3970  -27.9600 C.3    74  THR74       0.0375
     96  N         31.9370    1.9510  -29.7440 N.3    76  TRP76      -0.1241
     97  CA        33.1410    2.7440  -29.5560 C.3    76  TRP76       0.1605
     98  C         32.7840    4.2070  -29.7900 C.2    76  TRP76       0.2264
     99  O         32.0660    4.5230  -30.7420 O.2    76  TRP76      -0.2867
    100  CB        34.1990    2.3740  -30.5950 C.3    76  TRP76       0.0550
    101  CG        34.9390    1.0900  -30.3920 C.ar   76  TRP76       0.0003
    102  CD1       36.1910    0.9530  -29.8940 C.ar   76  TRP76       0.0946
    103  CD2       34.4960   -0.2330  -30.7360 C.ar   76  TRP76       0.0152
    104  NE1       36.5610   -0.3740  -29.8860 N.ar   76  TRP76      -0.2442
    105  CE2       35.5320   -1.1250  -30.3930 C.ar   76  TRP76       0.0810
    106  CE3       33.3220   -0.7500  -31.2990 C.ar   76  TRP76       0.0012
    107  CZ2       35.4400   -2.5070  -30.5950 C.ar   76  TRP76       0.0191
    108  CZ3       33.2290   -2.1250  -31.5110 C.ar   76  TRP76       0.0001
    109  CH2       34.2780   -2.9850  -31.1500 C.ar   76  TRP76       0.0015
    110  N         35.2550    2.3910  -25.2080 N.3    92  TRP92      -0.1241
    111  CA        34.1750    1.5200  -25.6250 C.3    92  TRP92       0.1605
    112  C         33.3060    1.0310  -24.4860 C.2    92  TRP92       0.2264
    113  O         33.7170    1.0130  -23.3160 O.2    92  TRP92      -0.2867
    114  CB        34.6720    0.3460  -26.4690 C.3    92  TRP92       0.0550
    115  CG        35.8060   -0.4090  -25.8710 C.ar   92  TRP92       0.0003
    116  CD1       37.1270   -0.2660  -26.1760 C.ar   92  TRP92       0.0946
    117  CD2       35.7320   -1.4330  -24.8690 C.ar   92  TRP92       0.0152
    118  NE1       37.8810   -1.1300  -25.4250 N.ar   92  TRP92      -0.2442
    119  CE2       37.0550   -1.8510  -24.6050 C.ar   92  TRP92       0.0810
    120  CE3       34.6830   -2.0240  -24.1560 C.ar   92  TRP92       0.0012
    121  CZ2       37.3580   -2.8450  -23.6740 C.ar   92  TRP92       0.0191
    122  CZ3       34.9920   -3.0120  -23.2120 C.ar   92  TRP92       0.0001
    123  CH2       36.3160   -3.4080  -22.9890 C.ar   92  TRP92       0.0015
    124  N         30.8610   -2.3780  -23.8950 N.3    94  LEU94      -0.1245
    125  CA        30.4270   -3.7070  -24.3190 C.3    94  LEU94       0.1561
    126  C         29.2010   -4.1160  -23.5140 C.2    94  LEU94       0.2260
    127  O         29.2720   -4.2930  -22.2810 O.2    94  LEU94      -0.2867
    128  CB        31.5520   -4.7490  -24.1420 C.3    94  LEU94       0.0270
    129  CG        31.3390   -6.1590  -24.7280 C.3    94  LEU94       0.0019
    130  CD1       32.6810   -6.8750  -24.9660 C.3    94  LEU94       0.0001
    131  CD2       30.4290   -7.0380  -23.9080 C.3    94  LEU94       0.0001
    132  N         26.2980   -6.8680  -22.7700 N.3    96  TYR96      -0.1241
    133  CA        26.1060   -8.3130  -22.8710 C.3    96  TYR96       0.1605
    134  C         24.9780   -8.8430  -21.9630 C.2    96  TYR96       0.2264
    135  O         24.4530   -8.1250  -21.1040 O.2    96  TYR96      -0.2867
    136  CB        27.4320   -9.0590  -22.6230 C.3    96  TYR96       0.0534
    137  CG        27.9960   -8.9060  -21.2130 C.ar   96  TYR96      -0.0201
    138  CD1       27.8570   -9.9200  -20.2620 C.ar   96  TYR96      -0.0009
    139  CD2       28.6750   -7.7500  -20.8420 C.ar   96  TYR96      -0.0009
    140  CE1       28.3950   -9.7580  -18.9500 C.ar   96  TYR96       0.0417
    141  CE2       29.2040   -7.5880  -19.5660 C.ar   96  TYR96       0.0417
    142  CZ        29.0670   -8.5920  -18.6250 C.ar   96  TYR96       0.1957
    143  OH        29.6060   -8.3810  -17.3580 O.3    96  TYR96      -0.2866
    144  N         40.4580    1.7100  -26.3630 N.3   109  ASP109     -0.1239
    145  CA        41.2200    1.1640  -27.4730 C.3   109  ASP109      0.1674
    146  C         41.8700    2.3290  -28.2010 C.2   109  ASP109      0.2266
    147  O         41.2300    3.3630  -28.4280 O.2   109  ASP109     -0.2867
    148  CB        40.3050    0.4710  -28.4770 C.3   109  ASP109      0.1410
    149  CG        39.9990   -0.9640  -28.1290 C.2   109  ASP109      0.3668
    150  OD1       40.5850   -1.5140  -27.1740 O.co2 109  ASP109     -0.2456
    151  OD2       39.1560   -1.5420  -28.8450 O.co2 109  ASP109     -0.2456
@<TRIPOS>BOND
     1    21    22    1
     2    22    23    1
     3    22    25    1
     4    24    23    2
     5    25    26    1
     6    26    27   ar
     7    26    28   ar
     8    27    29   ar
     9    17    18    2
    10    17    16    1
    11    33    34    1
    12    28    30   ar
    13    29    31   ar
    14    16    15    1
    15    16    19    1
    16     1     2    1
    17    30    31   ar
    18    31    32    1
    19    34    35    1
    20    34    37    1
    21    36    35    2
    22    19    20    1
    23    75    73   ar
    24    75    76   ar
    25    60    59    2
    26    65    64    1
    27    65    66    2
    28    73    70   ar
    29    37    38    1
    30     2     3    1
    31     2     5    1
    32    64    63    1
    33    64    67    1
    34    76    74   ar
    35    59    58    1
    36     4     3    2
    37   108   106   ar
    38   108   109   ar
    39    58    61    1
    40    58    57    1
    41   106   103   ar
    42    61    62    1
    43     5     6    1
    44   109   107   ar
    45     7     6    2
    46    70    72   ar
    47    70    68   ar
    48     6     8   am
    49    74    72   ar
    50    62    82    1
    51    99    98    2
    52   103   105   ar
    53   103   101   ar
    54    67    68    1
    55    38    39    2
    56    38    40   am
    57   100   101    1
    58   100    97    1
    59   107   105   ar
    60    72    71   ar
    61    92    91    2
    62    68    69   ar
    63   105   104   ar
    64   101   102   ar
    65    11    12    2
    66    11    10    1
    67    57    55   am
    68   102   104   ar
    69    98    97    1
    70    96    97    1
    71    77    78    1
    72    71    69   ar
    73    41    42    1
    74    91    90    1
    75    86    85    2
    76    56    55    2
    77     9    10    1
    78    55    54    1
    79    89    90    1
    80    10    13    1
    81   151   149   ar
    82    82    81    1
    83    93    90    1
    84    93    95    1
    85    93    94    1
    86   148   149    1
    87   148   145    1
    88   147   146    2
    89    13    14    1
    90    78    81    1
    91    78    79    1
    92   146   145    1
    93   149   150   ar
    94    85    84    1
    95    42    45    1
    96    42    43    1
    97    54    53    1
    98   145   144    1
    99    79    80    2
   100    83    84    1
   101    51    50    1
   102    88    87    1
   103    43    44    2
   104    49    48    2
   105    84    87    1
   106    53    48   am
   107    48    47    1
   108   114   115    1
   109   114   111    1
   110   116   115   ar
   111   116   118   ar
   112    50    47    1
   113    50    52    1
   114   115   117   ar
   115   111   110    1
   116   111   112    1
   117    47    46    1
   118   118   119   ar
   119   130   129    1
   120   117   119   ar
   121   117   120   ar
   122   129   128    1
   123   129   131    1
   124   119   121   ar
   125   112   113    2
   126   125   128    1
   127   125   124    1
   128   125   126    1
   129   120   122   ar
   130   121   123   ar
   131   126   127    2
   132   122   123   ar
   133   133   132    1
   134   133   136    1
   135   133   134    1
   136   136   137    1
   137   134   135    2
   138   137   139   ar
   139   137   138   ar
   140   139   141   ar
   141   138   140   ar
   142   141   142   ar
   143   140   142   ar
   144   142   143    1
