@<TRIPOS>MOLECULE
tmp/4jnkD01.pdb
 166 160 0 0 0
SMALL
GASTEIGER

@<TRIPOS>ATOM
      1  N         16.9180   -2.2220   -5.4000 N.3    97  ALA97      -0.1231
      2  CA        15.6540   -2.7930   -5.8240 C.3    97  ALA97       0.1694
      3  C         15.6260   -4.2750   -5.4860 C.2    97  ALA97       0.2592
      4  O         16.6600   -4.9350   -5.4570 O.2    97  ALA97      -0.2718
      5  CB        15.4500   -2.5720   -7.3120 C.3    97  ALA97       0.0304
      6  N         14.4310   -4.7820   -5.2220 N.am   98  ARG98      -0.1966
      7  CA        14.2260   -6.1880   -4.9380 C.3    98  ARG98       0.1729
      8  C         13.9270   -6.9520   -6.2260 C.2    98  ARG98       0.2616
      9  O         13.2100   -6.4580   -7.0990 O.2    98  ARG98      -0.2715
     10  CB        13.0660   -6.3320   -3.9540 C.3    98  ARG98       0.0348
     11  CG        11.8180   -5.4870   -4.3050 C.3    98  ARG98       0.0492
     12  CD        11.1470   -4.9090   -3.0450 C.3    98  ARG98       0.2205
     13  NE        11.5740   -5.6120   -1.8320 N.pl3  98  ARG98      -0.0865
     14  CZ        11.2630   -5.2490   -0.5900 C.cat  98  ARG98       0.5346
     15  NH1       11.7120   -5.9510    0.4460 N.pl3  98  ARG98       0.1354
     16  NH2       10.5060   -4.1840   -0.3810 N.pl3  98  ARG98       0.1354
     17  N         14.4750   -8.1570   -6.3440 N.am   99  GLN99      -0.1977
     18  CA        14.2750   -8.9560   -7.5440 C.3    99  GLN99       0.1601
     19  C         12.8190   -9.3600   -7.7120 C.2    99  GLN99       0.2287
     20  O         12.1510   -9.7310   -6.7490 O.2    99  GLN99      -0.2864
     21  CB        15.1600  -10.2000   -7.5310 C.3    99  GLN99       0.0394
     22  CG        15.1210  -10.9870   -8.8390 C.3    99  GLN99       0.0908
     23  CD        15.9420  -12.2590   -8.7710 C.2    99  GLN99       0.2608
     24  OE1       16.3620  -12.6730   -7.6920 O.2    99  GLN99      -0.2717
     25  NE2       16.1790  -12.8860   -9.9240 N.am   99  GLN99      -0.0878
     26  N         19.1550  -12.3540  -13.4020 N.3   105  ARG105     -0.1245
     27  CA        20.1920  -11.7790  -12.5530 C.3   105  ARG105      0.1563
     28  C         20.7290  -10.4930  -13.1590 C.2   105  ARG105      0.2260
     29  O         20.9020   -9.4950  -12.4670 O.2   105  ARG105     -0.2867
     30  CB        21.3500  -12.7640  -12.3520 C.3   105  ARG105      0.0307
     31  CG        21.0210  -13.9670  -11.4790 C.3   105  ARG105      0.0489
     32  CD        21.9790  -14.0700  -10.2960 C.3   105  ARG105      0.2205
     33  NE        23.3610  -14.3290  -10.6980 N.pl3 105  ARG105     -0.0865
     34  CZ        24.4020  -14.2960   -9.8680 C.cat 105  ARG105      0.5346
     35  NH1       24.2280  -13.9980   -8.5870 N.pl3 105  ARG105      0.1354
     36  NH2       25.6220  -14.5510  -10.3190 N.pl3 105  ARG105      0.1354
     37  N         18.2450   -7.5560  -12.8330 N.3   108  LEU108     -0.1231
     38  CA        18.2120   -7.0980  -11.4510 C.3   108  LEU108      0.1693
     39  C         19.4690   -6.3070  -11.1240 C.2   108  LEU108      0.2591
     40  O         19.3970   -5.2000  -10.5800 O.2   108  LEU108     -0.2718
     41  CB        18.0510   -8.2820  -10.4950 C.3   108  LEU108      0.0284
     42  CG        18.0000   -7.9400   -9.0030 C.3   108  LEU108      0.0019
     43  CD1       19.3930   -7.6720   -8.4510 C.3   108  LEU108      0.0001
     44  CD2       17.0760   -6.7460   -8.7370 C.3   108  LEU108      0.0001
     45  N         20.6290   -6.8600  -11.4670 N.am  109  VAL109     -0.1980
     46  CA        21.8770   -6.1480  -11.1880 C.3   109  VAL109      0.1595
     47  C         21.8870   -4.7910  -11.9090 C.2   109  VAL109      0.2287
     48  O         22.2750   -3.7680  -11.3300 O.2   109  VAL109     -0.2864
     49  CB        23.1200   -6.9810  -11.5780 C.3   109  VAL109      0.0276
     50  CG1       24.3830   -6.1610  -11.3840 C.3   109  VAL109      0.0022
     51  CG2       23.1900   -8.2490  -10.7300 C.3   109  VAL109      0.0022
     52  N         22.0320   -6.2120   -1.9480 N.3   137  ASN137     -0.1226
     53  CA        22.2830   -7.4240   -2.7440 C.3   137  ASN137      0.1770
     54  C         22.0270   -7.2560   -4.2310 C.2   137  ASN137      0.2439
     55  O         21.1620   -6.4720   -4.6170 O.2   137  ASN137     -0.2733
     56  CB        21.4160   -8.5680   -2.2370 C.3   137  ASN137      0.1168
     57  CG        22.1010   -9.3750   -1.1840 C.2   137  ASN137      0.2627
     58  OD1       23.3050   -9.6530   -1.2740 O.2   137  ASN137     -0.2716
     59  ND2       21.3450   -9.7610   -0.1590 N.am  137  ASN137     -0.0877
     60  N         22.7550   -8.0250   -5.0710 N.am  138  PRO138     -0.2718
     61  CA        23.7890   -8.9910   -4.6590 C.3   138  PRO138      0.1535
     62  C         25.0960   -8.3050   -4.2520 C.2   138  PRO138      0.2598
     63  O         25.7530   -7.6360   -5.0550 O.2   138  PRO138     -0.2715
     64  CB        23.9990   -9.8460   -5.9130 C.3   138  PRO138      0.0310
     65  CG        23.5850   -8.9690   -7.0360 C.3   138  PRO138      0.0237
     66  CD        22.4650   -8.1130   -6.5130 C.3   138  PRO138      0.0939
     67  N         25.4770   -8.4960   -2.9980 N.am  139  VAL139     -0.1964
     68  CA        26.4610   -7.6360   -2.3530 C.3   139  VAL139      0.1727
     69  C         27.8490   -7.6530   -3.0110 C.2   139  VAL139      0.2616
     70  O         28.4800   -6.6090   -3.1520 O.2   139  VAL139     -0.2715
     71  CB        26.5410   -7.9140   -0.8280 C.3   139  VAL139      0.0290
     72  CG1       27.0790   -9.3290   -0.5430 C.3   139  VAL139      0.0023
     73  CG2       27.3540   -6.8390   -0.1230 C.3   139  VAL139      0.0023
     74  N         28.3140   -8.8250   -3.4310 N.am  140  ASP140     -0.1957
     75  CA        29.6260   -8.9270   -4.0720 C.3   140  ASP140      0.1840
     76  C         29.6840   -8.1370   -5.3890 C.2   140  ASP140      0.2621
     77  O         30.6310   -7.3900   -5.6450 O.2   140  ASP140     -0.2715
     78  CB        29.9840  -10.4030   -4.2730 C.3   140  ASP140      0.1450
     79  CG        30.0680  -11.1590   -2.9360 C.2   140  ASP140      0.3671
     80  OD1       30.8120  -10.7050   -2.0390 O.co2 140  ASP140     -0.2456
     81  OD2       29.3640  -12.1700   -2.7590 O.co2 140  ASP140     -0.2456
     82  N         28.6600   -8.2860   -6.2150 N.am  141  ILE141     -0.1977
     83  CA        28.5800   -7.5080   -7.4430 C.3   141  ILE141      0.1596
     84  C         28.3750   -6.0090   -7.1760 C.2   141  ILE141      0.2287
     85  O         29.0220   -5.1630   -7.8040 O.2   141  ILE141     -0.2864
     86  CB        27.4570   -8.0290   -8.3500 C.3   141  ILE141      0.0276
     87  CG1       27.6590   -9.5150   -8.6520 C.3   141  ILE141      0.0022
     88  CG2       27.3950   -7.2250   -9.6600 C.3   141  ILE141      0.0022
     89  CD1       26.6790  -10.0570   -9.6770 C.3   141  ILE141      0.0001
     90  N         31.6330  -16.0660   -2.2090 N.3   191  GLU191     -0.1231
     91  CA        30.3710  -15.3990   -2.4890 C.3   191  GLU191      0.1699
     92  C         29.3870  -15.4540   -1.3250 C.2   191  GLU191      0.2592
     93  O         29.1200  -16.5190   -0.7630 O.2   191  GLU191     -0.2718
     94  CB        29.7120  -16.0910   -3.6720 C.3   191  GLU191      0.0402
     95  CG        29.7460  -15.3190   -4.9410 C.3   191  GLU191      0.1161
     96  CD        28.8800  -15.9480   -6.0250 C.2   191  GLU191      0.3649
     97  OE1       29.2970  -16.9740   -6.6060 O.co2 191  GLU191     -0.2457
     98  OE2       27.7830  -15.4130   -6.2850 O.co2 191  GLU191     -0.2457
     99  N         28.8220  -14.3110   -0.9810 N.am  192  HIS192     -0.1962
    100  CA        27.7250  -14.2790   -0.0240 C.3   192  HIS192      0.1787
    101  C         26.5580  -15.0760   -0.5870 C.2   192  HIS192      0.2621
    102  O         26.2850  -15.0280   -1.7920 O.2   192  HIS192     -0.2715
    103  CB        27.3020  -12.8310    0.2310 C.3   192  HIS192      0.0785
    104  CG        26.0140  -12.6940    0.9800 C.ar  192  HIS192      0.0821
    105  ND1       25.8750  -13.0550    2.3060 N.ar  192  HIS192     -0.2267
    106  CD2       24.8020  -12.2370    0.5860 C.ar  192  HIS192      0.1154
    107  CE1       24.6350  -12.8160    2.6970 C.ar  192  HIS192      0.1986
    108  NE2       23.9610  -12.3250    1.6710 N.ar  192  HIS192     -0.2212
    109  N         25.8730  -15.8140    0.2820 N.am  193  GLY193     -0.1940
    110  CA        24.7000  -16.5620   -0.1300 C.3   193  GLY193      0.2014
    111  C         24.9650  -17.9990   -0.5620 C.2   193  GLY193      0.2639
    112  O         25.7550  -18.7240    0.0460 O.2   193  GLY193     -0.2714
    113  N         24.3020  -18.3980   -1.6390 N.am  194  ASP194     -0.1957
    114  CA        24.2470  -19.7950   -2.0640 C.3   194  ASP194      0.1840
    115  C         25.5860  -20.4770   -2.3400 C.2   194  ASP194      0.2622
    116  O         25.7490  -21.6610   -2.0450 O.2   194  ASP194     -0.2715
    117  CB        23.3620  -19.9080   -3.3080 C.3   194  ASP194      0.1450
    118  CG        22.0490  -19.1800   -3.1430 C.2   194  ASP194      0.3671
    119  OD1       22.0310  -17.9380   -3.2990 O.co2 194  ASP194     -0.2456
    120  OD2       21.0420  -19.8500   -2.8470 O.co2 194  ASP194     -0.2456
    121  N         26.5340  -19.7510   -2.9250 N.am  195  SER195     -0.1950
    122  CA        27.8000  -20.3660   -3.3350 C.3   195  SER195      0.1924
    123  C         28.9520  -20.1550   -2.3400 C.2   195  SER195      0.2314
    124  O         30.1150  -20.3980   -2.6730 O.2   195  SER195     -0.2863
    125  CB        28.2090  -19.8400   -4.7090 C.3   195  SER195      0.2116
    126  OG        27.1580  -20.0160   -5.6440 O.3   195  SER195     -0.2180
    127  N         23.2460  -21.4820    4.5070 N.3   234  VAL234     -0.1245
    128  CA        22.6760  -21.1030    3.2180 C.3   234  VAL234      0.1561
    129  C         21.1420  -21.0420    3.2680 C.2   234  VAL234      0.2260
    130  O         20.5470  -20.0740    2.8110 O.2   234  VAL234     -0.2867
    131  CB        23.1250  -22.0890    2.0960 C.3   234  VAL234      0.0252
    132  CG1       22.3030  -21.8890    0.8270 C.3   234  VAL234      0.0019
    133  CG2       24.6180  -21.9210    1.7990 C.3   234  VAL234      0.0019
    134  N         18.8860  -18.3800    5.6740 N.3   237  ALA237     -0.1231
    135  CA        18.6290  -17.0420    5.1470 C.3   237  ALA237      0.1694
    136  C         17.2880  -16.9910    4.4210 C.2   237  ALA237      0.2592
    137  O         16.5050  -16.0560    4.6040 O.2   237  ALA237     -0.2718
    138  CB        19.7590  -16.6130    4.2130 C.3   237  ALA237      0.0304
    139  N         17.0370  -17.9950    3.5810 N.am  238  TYR238     -0.1976
    140  CA        15.7640  -18.1090    2.8880 C.3   238  TYR238      0.1639
    141  C         14.6320  -18.4010    3.8760 C.2   238  TYR238      0.2290
    142  O         13.5020  -17.9410    3.6860 O.2   238  TYR238     -0.2864
    143  CB        15.8030  -19.2250    1.8350 C.3   238  TYR238      0.0560
    144  CG        16.6900  -18.9490    0.6380 C.ar  238  TYR238     -0.0198
    145  CD1       16.2580  -18.1190   -0.3900 C.ar  238  TYR238     -0.0009
    146  CD2       17.9510  -19.5380    0.5200 C.ar  238  TYR238     -0.0009
    147  CE1       17.0520  -17.8670   -1.4960 C.ar  238  TYR238      0.0417
    148  CE2       18.7650  -19.2860   -0.5950 C.ar  238  TYR238      0.0417
    149  CZ        18.3040  -18.4470   -1.5950 C.ar  238  TYR238      0.1957
    150  OH        19.0730  -18.1810   -2.7070 O.3   238  TYR238     -0.2866
    151  N         13.4380  -15.3160    5.6240 N.3   241  ILE241     -0.1245
    152  CA        12.6700  -14.4820    4.7020 C.3   241  ILE241      0.1561
    153  C         11.2470  -15.0180    4.5140 C.2   241  ILE241      0.2260
    154  O         10.2780  -14.2540    4.5090 O.2   241  ILE241     -0.2867
    155  CB        13.3680  -14.3360    3.3390 C.3   241  ILE241      0.0252
    156  CG1       14.7500  -13.6950    3.5190 C.3   241  ILE241      0.0019
    157  CG2       12.4920  -13.5310    2.3770 C.3   241  ILE241      0.0019
    158  CD1       15.5900  -13.6760    2.2550 C.3   241  ILE241      0.0001
    159  N         30.7180  -14.0450  -11.5730 N.3   322  LEU322     -0.1245
    160  CA        30.5880  -12.6190  -11.2900 C.3   322  LEU322      0.1561
    161  C         31.1170  -11.7360  -12.4260 C.2   322  LEU322      0.2260
    162  O         30.4560  -10.7770  -12.8290 O.2   322  LEU322     -0.2867
    163  CB        31.2920  -12.2430   -9.9800 C.3   322  LEU322      0.0270
    164  CG        30.7020  -12.7500   -8.6610 C.3   322  LEU322      0.0019
    165  CD1       31.3960  -12.0840   -7.4730 C.3   322  LEU322      0.0001
    166  CD2       29.2110  -12.5130   -8.6010 C.3   322  LEU322      0.0001
@<TRIPOS>BOND
     1    26    27    1
     2    28    27    1
     3    28    29    2
     4    37    38    1
     5   162   161    2
     6    27    30    1
     7   161   160    1
     8    30    31    1
     9    47    48    2
    10    47    46    1
    11    49    50    1
    12    49    46    1
    13    49    51    1
    14   159   160    1
    15    31    32    1
    16    45    46    1
    17    45    39   am
    18    38    39    1
    19    38    41    1
    20   160   163    1
    21    39    40    2
    22    33    32    1
    23    33    34    2
    24    41    42    1
    25    36    34    1
    26   163   164    1
    27    25    23   am
    28    34    35    1
    29    89    87    1
    30    88    86    1
    31    42    44    1
    32    42    43    1
    33    22    23    1
    34    22    21    1
    35    23    24    2
    36   164   166    1
    37   164   165    1
    38    87    86    1
    39    86    83    1
    40    85    84    2
    41    19    18    1
    42    19    20    2
    43    18    21    1
    44    18    17    1
    45    83    84    1
    46    83    82    1
    47     5     2    1
    48     9     8    2
    49    65    66    1
    50    65    64    1
    51    97    96   ar
    52    66    60    1
    53    17     8   am
    54    98    96   ar
    55     8     7    1
    56    82    76   am
    57    96    95    1
    58    64    61    1
    59     2     3    1
    60     2     1    1
    61    77    76    2
    62   126   125    1
    63     3     4    2
    64     3     6   am
    65    76    75    1
    66     6     7    1
    67    60    61    1
    68    60    54   am
    69    63    62    2
    70    95    94    1
    71     7    10    1
    72   125   122    1
    73    61    62    1
    74    55    54    2
    75    11    10    1
    76    11    12    1
    77    78    75    1
    78    78    79    1
    79    62    67   am
    80    54    53    1
    81    75    74    1
    82    94    91    1
    83    74    69   am
    84   122   121    1
    85   122   123    1
    86   117   118    1
    87   117   114    1
    88   119   118   ar
    89    70    69    2
    90   118   120   ar
    91    12    13    1
    92    69    68    1
    93    67    68    1
    94    79    81   ar
    95    79    80   ar
    96   121   115   am
    97    53    56    1
    98    53    52    1
    99   150   149    1
   100   124   123    2
   101    91    90    1
   102    91    92    1
   103    68    71    1
   104   115   114    1
   105   115   116    2
   106    56    57    1
   107   114   113    1
   108    13    14    2
   109   102   101    2
   110   113   111   am
   111   149   147   ar
   112   149   148   ar
   113   147   145   ar
   114    92    99   am
   115    92    93    2
   116    58    57    2
   117    57    59   am
   118    99   100    1
   119    71    72    1
   120    71    73    1
   121   148   146   ar
   122    14    16    1
   123    14    15    1
   124   101   100    1
   125   101   109   am
   126   111   110    1
   127   111   112    2
   128   145   144   ar
   129   110   109    1
   130   100   103    1
   131   103   104    1
   132   146   144   ar
   133   106   104   ar
   134   106   108   ar
   135   144   143    1
   136   132   131    1
   137   104   105   ar
   138   108   107   ar
   139   133   131    1
   140   143   140    1
   141   131   128    1
   142   158   156    1
   143   105   107   ar
   144   157   155    1
   145   130   129    2
   146   140   139    1
   147   140   141    1
   148   128   129    1
   149   128   127    1
   150   155   156    1
   151   155   152    1
   152   139   136   am
   153   142   141    2
   154   138   135    1
   155   136   137    2
   156   136   135    1
   157   154   153    2
   158   153   152    1
   159   152   151    1
   160   135   134    1
