@<TRIPOS>MOLECULE
tmp/4jnmA00.pdb
 175 166 0 0 0
SMALL
GASTEIGER

@<TRIPOS>ATOM
      1  N         13.7840   -2.7050   -1.8540 N.3   172  TYR172     -0.1241
      2  CA        14.0330   -1.2820   -1.6340 C.3   172  TYR172      0.1605
      3  C         12.7450   -0.4940   -1.3810 C.2   172  TYR172      0.2264
      4  O         12.7620    0.7370   -1.3540 O.2   172  TYR172     -0.2867
      5  CB        14.7810   -0.6680   -2.8260 C.3   172  TYR172      0.0534
      6  CG        16.2210   -1.1150   -2.9620 C.ar  172  TYR172     -0.0201
      7  CD1       17.2190   -0.5540   -2.1740 C.ar  172  TYR172     -0.0009
      8  CD2       16.5830   -2.0880   -3.8840 C.ar  172  TYR172     -0.0009
      9  CE1       18.5360   -0.9570   -2.2940 C.ar  172  TYR172      0.0417
     10  CE2       17.8980   -2.4970   -4.0120 C.ar  172  TYR172      0.0417
     11  CZ        18.8710   -1.9290   -3.2150 C.ar  172  TYR172      0.1957
     12  OH        20.1810   -2.3350   -3.3400 O.3   172  TYR172     -0.2866
     13  N         12.1020    1.9280    3.3810 N.3   175  HIS175     -0.1241
     14  CA        13.3400    2.5580    3.8190 C.3   175  HIS175      0.1621
     15  C         13.3080    2.9210    5.3050 C.2   175  HIS175      0.2264
     16  O         12.2920    3.3800    5.8220 O.2   175  HIS175     -0.2867
     17  CB        13.6310    3.8000    2.9720 C.3   175  HIS175      0.0745
     18  CG        15.0830    4.1550    2.9000 C.ar  175  HIS175      0.0817
     19  ND1       15.9020    3.7330    1.8740 N.ar  175  HIS175     -0.2268
     20  CD2       15.8660    4.8860    3.7290 C.ar  175  HIS175      0.1154
     21  CE1       17.1250    4.1910    2.0730 C.ar  175  HIS175      0.1986
     22  NE2       17.1300    4.8930    3.1910 N.ar  175  HIS175     -0.2212
     23  N         13.9400    5.1320    8.3740 N.3   177  PHE177     -0.1241
     24  CA        14.0740    6.5390    8.7520 C.3   177  PHE177      0.1605
     25  C         14.1530    6.7010   10.2690 C.2   177  PHE177      0.2264
     26  O         13.9630    7.8000   10.7870 O.2   177  PHE177     -0.2867
     27  CB        12.8590    7.3450    8.2780 C.3   177  PHE177      0.0534
     28  CG        12.8370    7.6290    6.8040 C.ar  177  PHE177     -0.0203
     29  CD1       13.9230    7.3290    5.9990 C.ar  177  PHE177     -0.0042
     30  CD2       11.7190    8.2140    6.2240 C.ar  177  PHE177     -0.0042
     31  CE1       13.8930    7.5970    4.6420 C.ar  177  PHE177     -0.0003
     32  CE2       11.6840    8.4860    4.8700 C.ar  177  PHE177     -0.0003
     33  CZ        12.7730    8.1770    4.0770 C.ar  177  PHE177     -0.0000
     34  N         16.4170    6.5190   12.8160 N.3   179  TYR179     -0.1227
     35  CA        17.5920    6.8180   13.6350 C.3   179  TYR179      0.1736
     36  C         17.2690    7.7910   14.7770 C.2   179  TYR179      0.2595
     37  O         17.5950    7.5300   15.9350 O.2   179  TYR179     -0.2718
     38  CB        18.7360    7.3550   12.7650 C.3   179  TYR179      0.0548
     39  CG        20.1260    7.1450   13.3380 C.ar  179  TYR179     -0.0200
     40  CD1       21.2530    7.2600   12.5320 C.ar  179  TYR179     -0.0009
     41  CD2       20.3150    6.8320   14.6790 C.ar  179  TYR179     -0.0009
     42  CE1       22.5250    7.0720   13.0460 C.ar  179  TYR179      0.0417
     43  CE2       21.5830    6.6450   15.2020 C.ar  179  TYR179      0.0417
     44  CZ        22.6830    6.7630   14.3820 C.ar  179  TYR179      0.1957
     45  OH        23.9450    6.5730   14.9010 O.3   179  TYR179     -0.2866
     46  N         16.6210    8.9050   14.4550 N.am  180  ARG180     -0.1980
     47  CA        16.3150    9.9100   15.4650 C.3   180  ARG180      0.1597
     48  C         15.1780    9.4610   16.3810 C.2   180  ARG180      0.2287
     49  O         15.0150    9.9890   17.4800 O.2   180  ARG180     -0.2864
     50  CB        15.9480   11.2360   14.8030 C.3   180  ARG180      0.0334
     51  CG        14.5300   11.2760   14.2580 C.3   180  ARG180      0.0492
     52  CD        14.3440   12.4350   13.2960 C.3   180  ARG180      0.2205
     53  NE        15.1920   12.3030   12.1150 N.pl3 180  ARG180     -0.0865
     54  CZ        15.2090   13.1730   11.1110 C.cat 180  ARG180      0.5346
     55  NH1       14.4220   14.2400   11.1450 N.pl3 180  ARG180      0.1354
     56  NH2       16.0110   12.9790   10.0720 N.pl3 180  ARG180      0.1354
     57  N         18.7490    4.6680    6.3480 N.3   203  ASP203     -0.1239
     58  CA        19.4550    5.9090    6.6440 C.3   203  ASP203      0.1674
     59  C         20.0200    5.8540    8.0570 C.2   203  ASP203      0.2266
     60  O         20.7050    6.7740    8.5050 O.2   203  ASP203     -0.2867
     61  CB        18.5450    7.1290    6.4740 C.3   203  ASP203      0.1410
     62  CG        18.6830    7.7710    5.1060 C.2   203  ASP203      0.3668
     63  OD1       18.6220    7.0380    4.0990 O.co2 203  ASP203     -0.2456
     64  OD2       18.8700    9.0040    5.0380 O.co2 203  ASP203     -0.2456
     65  N         21.7640    4.0390    0.4990 N.3   225  SER225     -0.1202
     66  CA        20.9050    5.2110    0.5720 C.3   225  SER225      0.2020
     67  C         21.1310    6.1290   -0.6230 C.2   225  SER225      0.2618
     68  O         22.0360    5.9080   -1.4250 O.2   225  SER225     -0.2717
     69  CB        21.1410    5.9760    1.8730 C.3   225  SER225      0.2103
     70  OG        20.2610    7.0820    1.9710 O.3   225  SER225     -0.2182
     71  N         20.2950    7.1570   -0.7360 N.am  226  VAL226     -0.1979
     72  CA        20.4020    8.1240   -1.8180 C.3   226  VAL226      0.1595
     73  C         20.4400    9.5360   -1.2460 C.2   226  VAL226      0.2287
     74  O         19.9530    9.7700   -0.1380 O.2   226  VAL226     -0.2864
     75  CB        19.2190    8.0050   -2.8120 C.3   226  VAL226      0.0276
     76  CG1       19.1640    6.6070   -3.4130 C.3   226  VAL226      0.0022
     77  CG2       17.9040    8.3570   -2.1330 C.3   226  VAL226      0.0022
     78  N         19.3240   13.1500   -0.3800 N.3   228  ALA228     -0.1231
     79  CA        17.9710   13.6150   -0.1270 C.3   228  ALA228      0.1694
     80  C         17.9570   14.9090    0.6700 C.2   228  ALA228      0.2592
     81  O         18.9000   15.2130    1.4030 O.2   228  ALA228     -0.2718
     82  CB        17.1710   12.5410    0.5890 C.3   228  ALA228      0.0304
     83  N         16.8750   15.6640    0.5230 N.am  229  ALA229     -0.1966
     84  CA        16.7140   16.9220    1.2380 C.3   229  ALA229      0.1728
     85  C         15.8980   16.7330    2.5060 C.2   229  ALA229      0.2616
     86  O         15.0890   15.8120    2.6030 O.2   229  ALA229     -0.2715
     87  CB        16.0520   17.9580    0.3390 C.3   229  ALA229      0.0334
     88  N         16.1280   17.6080    3.4800 N.am  230  GLU230     -0.1977
     89  CA        15.2600   17.7100    4.6440 C.3   230  GLU230      0.1602
     90  C         14.6180   19.0920    4.6190 C.2   230  GLU230      0.2287
     91  O         14.9180   19.8990    3.7390 O.2   230  GLU230     -0.2864
     92  CB        16.0410   17.4890    5.9440 C.3   230  GLU230      0.0415
     93  CG        17.0190   18.6000    6.2950 C.3   230  GLU230      0.1163
     94  CD        17.8130   18.3070    7.5610 C.2   230  GLU230      0.3649
     95  OE1       17.8620   17.1310    7.9820 O.co2 230  GLU230     -0.2457
     96  OE2       18.3880   19.2520    8.1360 O.co2 230  GLU230     -0.2457
     97  N         19.9240    9.2960   -7.9620 N.3   257  PRO257     -0.2116
     98  CA        18.5750    9.4720   -7.4190 C.3   257  PRO257      0.1372
     99  C         18.5590   10.5580   -6.3500 C.2   257  PRO257      0.2244
    100  O         19.5130   10.6640   -5.5760 O.2   257  PRO257     -0.2868
    101  CB        18.2780    8.1140   -6.7810 C.3   257  PRO257      0.0268
    102  CG        19.1150    7.1500   -7.5440 C.3   257  PRO257      0.0207
    103  CD        20.3710    7.8930   -7.8820 C.3   257  PRO257      0.0892
    104  N         15.8700   12.5220   -3.4460 N.3   259  SER259     -0.1217
    105  CA        14.5910   12.6890   -2.7720 C.3   259  SER259      0.1889
    106  C         14.4760   14.1150   -2.2530 C.2   259  SER259      0.2288
    107  O         15.3820   14.6120   -1.5880 O.2   259  SER259     -0.2866
    108  CB        14.4690   11.6970   -1.6160 C.3   259  SER259      0.2089
    109  OG        13.3560   11.9990   -0.7900 O.3   259  SER259     -0.2183
    110  N         18.0950    5.7920  -14.0990 N.3   289  GLN289     -0.1245
    111  CA        18.9140    5.4040  -12.9560 C.3   289  GLN289      0.1566
    112  C         19.0550    6.5420  -11.9470 C.2   289  GLN289      0.2260
    113  O         19.6470    6.3660  -10.8820 O.2   289  GLN289     -0.2867
    114  CB        20.3000    4.9390  -13.4140 C.3   289  GLN289      0.0367
    115  CG        20.3110    3.6030  -14.1460 C.3   289  GLN289      0.0905
    116  CD        19.8080    3.7060  -15.5760 C.2   289  GLN289      0.2608
    117  OE1       20.1670    4.6300  -16.3100 O.2   289  GLN289     -0.2717
    118  NE2       18.9690    2.7560  -15.9780 N.am  289  GLN289     -0.0878
    119  N         16.2070    9.0630  -10.9120 N.3   291  PRO291     -0.2116
    120  CA        14.9190    9.7590  -10.9380 C.3   291  PRO291      0.1372
    121  C         14.7770   10.7710   -9.8060 C.2   291  PRO291      0.2244
    122  O         15.5260   10.7240   -8.8290 O.2   291  PRO291     -0.2868
    123  CB        13.9220    8.6230  -10.7210 C.3   291  PRO291      0.0268
    124  CG        14.6610    7.6630   -9.8580 C.3   291  PRO291      0.0207
    125  CD        16.0920    7.7180  -10.3180 C.3   291  PRO291      0.0892
    126  N         12.5940   11.7800   -6.6940 N.3   293  ILE293     -0.1245
    127  CA        11.6180   11.1830   -5.8010 C.3   293  ILE293      0.1561
    128  C         10.9470   12.2670   -4.9660 C.2   293  ILE293      0.2260
    129  O         11.5420   12.8040   -4.0310 O.2   293  ILE293     -0.2867
    130  CB        12.2520   10.1140   -4.8960 C.3   293  ILE293      0.0252
    131  CG1       12.9140    9.0270   -5.7500 C.3   293  ILE293      0.0019
    132  CG2       11.2020    9.5030   -3.9890 C.3   293  ILE293      0.0019
    133  CD1       14.3670    8.7740   -5.4070 C.3   293  ILE293      0.0001
    134  N          8.6780   13.7410   -2.1630 N.3   295  ARG295     -0.1245
    135  CA         8.4230   13.2410   -0.8150 C.3   295  ARG295      0.1563
    136  C          7.4470   14.1050   -0.0190 C.2   295  ARG295      0.2260
    137  O          7.8240   15.1500    0.5110 O.2   295  ARG295     -0.2867
    138  CB         9.7410   13.1170   -0.0460 C.3   295  ARG295      0.0307
    139  CG         9.5870   12.6460    1.3850 C.3   295  ARG295      0.0489
    140  CD        10.9030   12.7480    2.1370 C.3   295  ARG295      0.2205
    141  NE        10.6850   12.7390    3.5780 N.pl3 295  ARG295     -0.0865
    142  CZ        11.3790   13.4690    4.4430 C.cat 295  ARG295      0.5346
    143  NH1       11.1030   13.3980    5.7370 N.pl3 295  ARG295      0.1354
    144  NH2       12.3480   14.2660    4.0170 N.pl3 295  ARG295      0.1354
    145  N          9.2920    9.3370   -9.1660 N.3   333  ARG333     -0.1231
    146  CA         8.7500    8.4200   -8.1700 C.3   333  ARG333      0.1694
    147  C          8.3290    9.1670   -6.9060 C.2   333  ARG333      0.2592
    148  O          8.6330   10.3480   -6.7390 O.2   333  ARG333     -0.2718
    149  CB         9.7690    7.3330   -7.8180 C.3   333  ARG333      0.0321
    150  CG        10.0620    6.3440   -8.9440 C.3   333  ARG333      0.0489
    151  CD         8.8660    5.4500   -9.2280 C.3   333  ARG333      0.2205
    152  NE         9.1750    4.4150  -10.2120 N.pl3 333  ARG333     -0.0865
    153  CZ         8.8630    4.4920  -11.5020 C.cat 333  ARG333      0.5346
    154  NH1        8.2260    5.5560  -11.9710 N.pl3 333  ARG333      0.1354
    155  NH2        9.1830    3.5010  -12.3230 N.pl3 333  ARG333      0.1354
    156  N          7.6310    8.4660   -6.0180 N.am  334  VAL334     -0.1966
    157  CA         7.1240    9.0640   -4.7880 C.3   334  VAL334      0.1727
    158  C          7.4970    8.2200   -3.5750 C.2   334  VAL334      0.2616
    159  O          7.4120    6.9930   -3.6160 O.2   334  VAL334     -0.2715
    160  CB         5.5830    9.2000   -4.8290 C.3   334  VAL334      0.0290
    161  CG1        5.0490    9.7420   -3.5120 C.3   334  VAL334      0.0023
    162  CG2        5.1540   10.0870   -5.9870 C.3   334  VAL334      0.0023
    163  N          7.9210    8.8740   -2.4980 N.am  335  ILE335     -0.1977
    164  CA         8.0880    8.1750   -1.2310 C.3   335  ILE335      0.1596
    165  C          7.2270    8.8030   -0.1380 C.2   335  ILE335      0.2287
    166  O          7.2640   10.0140    0.0890 O.2   335  ILE335     -0.2864
    167  CB         9.5760    8.0610   -0.7880 C.3   335  ILE335      0.0276
    168  CG1        9.6880    7.1900    0.4650 C.3   335  ILE335      0.0022
    169  CG2       10.1960    9.4320   -0.5500 C.3   335  ILE335      0.0022
    170  CD1       11.1070    6.8300    0.8490 C.3   335  ILE335      0.0001
    171  N          7.3670    4.1530   -2.8120 N.3   363  ALA363     -0.1245
    172  CA         8.1570    3.4570   -1.8150 C.3   363  ALA363      0.1562
    173  C          7.7490    4.0200   -0.4630 C.2   363  ALA363      0.2260
    174  O          7.0570    5.0360   -0.3930 O.2   363  ALA363     -0.2867
    175  CB         9.6330    3.6630   -2.0580 C.3   363  ALA363      0.0290
@<TRIPOS>BOND
     1   117   116    2
     2   118   116   am
     3   116   115    1
     4   115   114    1
     5   110   111    1
     6   114   111    1
     7   111   112    1
     8   155   153    1
     9   154   153    1
    10   112   113    2
    11   153   152    2
    12   120   119    1
    13   120   123    1
    14   120   121    1
    15   119   125    1
    16   123   124    1
    17   125   124    1
    18   152   151    1
    19   121   122    2
    20   151   150    1
    21   145   146    1
    22   150   149    1
    23   146   149    1
    24   146   147    1
    25    97   103    1
    26    97    98    1
    27   103   102    1
    28   102   101    1
    29    98   101    1
    30    98    99    1
    31   147   148    2
    32   147   156   am
    33   126   127    1
    34    99   100    2
    35   156   157    1
    36   162   160    1
    37   127   128    1
    38   127   130    1
    39   131   133    1
    40   131   130    1
    41   128   129    2
    42   130   132    1
    43   160   157    1
    44   160   161    1
    45   157   158    1
    46    10     8   ar
    47    10    11   ar
    48     8     6   ar
    49   159   158    2
    50   158   163   am
    51   104   105    1
    52    76    75    1
    53    12    11    1
    54    11     9   ar
    55     6     5    1
    56     6     7   ar
    57     5     2    1
    58    75    77    1
    59    75    72    1
    60   171   172    1
    61   105   106    1
    62   105   108    1
    63   163   164    1
    64     9     7   ar
    65   106   107    2
    66   134   135    1
    67   175   172    1
    68     1     2    1
    69    72    73    1
    70    72    71    1
    71   172   173    1
    72     2     3    1
    73   108   109    1
    74    68    67    2
    75     3     4    2
    76    73    74    2
    77   164   167    1
    78   164   165    1
    79   135   138    1
    80   135   136    1
    81   167   169    1
    82   167   168    1
    83    71    67   am
    84    67    66    1
    85   173   174    2
    86    78    79    1
    87   165   166    2
    88    79    82    1
    89    79    80    1
    90   138   139    1
    91   136   137    2
    92    87    84    1
    93   168   170    1
    94    65    66    1
    95    83    80   am
    96    83    84    1
    97    66    69    1
    98    80    81    2
    99    84    85    1
   100   139   140    1
   101    69    70    1
   102    19    21   ar
   103    19    18   ar
   104    21    22   ar
   105   140   141    1
   106    85    86    2
   107    85    88   am
   108    18    17    1
   109    18    20   ar
   110    17    14    1
   111    22    20   ar
   112    13    14    1
   113    88    89    1
   114   141   142    2
   115    91    90    2
   116    14    15    1
   117   144   142    1
   118    33    31   ar
   119    33    32   ar
   120    63    62   ar
   121   142   143    1
   122    90    89    1
   123    31    29   ar
   124    89    92    1
   125    32    30   ar
   126    64    62   ar
   127    62    61    1
   128    15    16    2
   129    92    93    1
   130    29    28   ar
   131    30    28   ar
   132    93    94    1
   133    57    58    1
   134    61    58    1
   135    58    59    1
   136    28    27    1
   137    94    95   ar
   138    94    96   ar
   139    59    60    2
   140    27    24    1
   141    23    24    1
   142    24    25    1
   143    56    54    1
   144    25    26    2
   145    54    55    1
   146    54    53    2
   147    53    52    1
   148    40    42   ar
   149    40    39   ar
   150    38    39    1
   151    38    35    1
   152    34    35    1
   153    42    44   ar
   154    52    51    1
   155    39    41   ar
   156    35    36    1
   157    51    50    1
   158    44    45    1
   159    44    43   ar
   160    46    36   am
   161    46    47    1
   162    41    43   ar
   163    36    37    2
   164    50    47    1
   165    47    48    1
   166    48    49    2
