@<TRIPOS>MOLECULE
tmp/4jnnA00.pdb
 122 122 0 0 0
SMALL
GASTEIGER

@<TRIPOS>ATOM
      1  N         15.1800  119.2100   88.6420 N.3    59  VAL59      -0.1245
      2  CA        15.7140  120.4010   89.2880 C.3    59  VAL59       0.1561
      3  C         17.0620  120.8720   88.7460 C.2    59  VAL59       0.2260
      4  O         17.3320  122.0630   88.7390 O.2    59  VAL59      -0.2867
      5  CB        15.8220  120.1620   90.7890 C.3    59  VAL59       0.0252
      6  CG1       16.9120  121.0270   91.4310 C.3    59  VAL59       0.0019
      7  CG2       14.4610  120.4020   91.3820 C.3    59  VAL59       0.0019
      8  N         15.9240  122.2830   85.1610 N.3    62  ALA62      -0.1245
      9  CA        15.1260  123.5230   85.2240 C.3    62  ALA62       0.1562
     10  C         16.0170  124.7300   85.4930 C.2    62  ALA62       0.2260
     11  O         15.8520  125.7850   84.8550 O.2    62  ALA62      -0.2867
     12  CB        13.9680  123.4450   86.2480 C.3    62  ALA62       0.0290
     13  N          8.2180  129.9860   84.8540 N.3    87  GLN87      -0.1245
     14  CA         7.4000  129.3300   85.8610 C.3    87  GLN87       0.1566
     15  C          6.0040  128.9950   85.3980 C.2    87  GLN87       0.2260
     16  O          5.2240  128.4390   86.1460 O.2    87  GLN87      -0.2867
     17  CB         7.2540  130.1990   87.0960 C.3    87  GLN87       0.0367
     18  CG         8.3970  130.0990   88.0920 C.3    87  GLN87       0.0905
     19  CD         8.8500  128.6680   88.3670 C.2    87  GLN87       0.2608
     20  OE1        8.0920  127.8650   88.9290 O.2    87  GLN87      -0.2717
     21  NE2       10.0890  128.3490   88.0040 N.am   87  GLN87      -0.0878
     22  N          5.3660  121.0940   86.8320 N.3    98  TRP98      -0.1241
     23  CA         4.3530  121.4710   87.8430 C.3    98  TRP98       0.1605
     24  C          3.6620  120.2490   88.4560 C.2    98  TRP98       0.2264
     25  O          3.2950  120.2230   89.6210 O.2    98  TRP98      -0.2867
     26  CB         3.3450  122.4440   87.2440 C.3    98  TRP98       0.0550
     27  CG         3.8500  123.8640   87.3070 C.ar   98  TRP98       0.0003
     28  CD1        4.6350  124.5200   86.3770 C.ar   98  TRP98       0.0946
     29  CD2        3.6750  124.7890   88.4050 C.ar   98  TRP98       0.0152
     30  NE1        4.9460  125.7790   86.8320 N.ar   98  TRP98      -0.2442
     31  CE2        4.3310  125.9850   88.0470 C.ar   98  TRP98       0.0810
     32  CE3        3.0070  124.7220   89.6420 C.ar   98  TRP98       0.0012
     33  CZ2        4.3400  127.0940   88.8840 C.ar   98  TRP98       0.0191
     34  CZ3        3.0190  125.8250   90.4660 C.ar   98  TRP98       0.0001
     35  CH2        3.6940  126.9790   90.0920 C.ar   98  TRP98       0.0015
     36  N          5.8700  118.8990   91.0880 N.3   101  TRP101     -0.1241
     37  CA         5.8990  119.8460   92.2290 C.3   101  TRP101      0.1605
     38  C          4.7650  119.5190   93.1540 C.2   101  TRP101      0.2264
     39  O          4.9800  119.3580   94.3640 O.2   101  TRP101     -0.2867
     40  CB         5.8040  121.3410   91.8250 C.3   101  TRP101      0.0550
     41  CG         6.9470  121.8280   90.9600 C.ar  101  TRP101      0.0003
     42  CD1        6.8830  122.7760   89.9550 C.ar  101  TRP101      0.0946
     43  CD2        8.2900  121.3800   90.9920 C.ar  101  TRP101      0.0152
     44  NE1        8.1220  122.9490   89.3700 N.ar  101  TRP101     -0.2442
     45  CE2        9.0030  122.1020   89.9880 C.ar  101  TRP101      0.0810
     46  CE3        8.9780  120.4380   91.7640 C.ar  101  TRP101      0.0012
     47  CZ2       10.3650  121.8910   89.7430 C.ar  101  TRP101      0.0191
     48  CZ3       10.3390  120.2380   91.5280 C.ar  101  TRP101      0.0001
     49  CH2       11.0150  120.9560   90.5280 C.ar  101  TRP101      0.0015
     50  N          5.1770  118.3610   96.9630 N.3   105  TRP105     -0.1241
     51  CA         4.7010  119.0520   98.1400 C.3   105  TRP105      0.1605
     52  C          4.0510  118.1220   99.1740 C.2   105  TRP105      0.2264
     53  O          4.2650  118.3130  100.3860 O.2   105  TRP105     -0.2867
     54  CB         3.7260  120.1420   97.8080 C.3   105  TRP105      0.0550
     55  CG         4.2040  121.2000   96.9280 C.ar  105  TRP105      0.0003
     56  CD1        5.4910  121.6530   96.7730 C.ar  105  TRP105      0.0946
     57  CD2        3.3820  121.9940   96.0580 C.ar  105  TRP105      0.0152
     58  NE1        5.5040  122.7010   95.8700 N.ar  105  TRP105     -0.2442
     59  CE2        4.2140  122.9200   95.4250 C.ar  105  TRP105      0.0810
     60  CE3        2.0060  122.0290   95.7950 C.ar  105  TRP105      0.0012
     61  CZ2        3.7260  123.8380   94.4850 C.ar  105  TRP105      0.0191
     62  CZ3        1.5240  122.9440   94.9030 C.ar  105  TRP105      0.0001
     63  CH2        2.3770  123.8470   94.2520 C.ar  105  TRP105      0.0015
     64  N         13.6850  119.2970   98.0320 N.3   118  TYR118     -0.1241
     65  CA        12.7500  120.3100   97.5020 C.3   118  TYR118      0.1605
     66  C         13.0350  121.7060   98.0730 C.2   118  TYR118      0.2264
     67  O         12.9460  122.6790   97.3680 O.2   118  TYR118     -0.2867
     68  CB        11.2820  119.9660   97.7100 C.3   118  TYR118      0.0534
     69  CG        10.4020  121.1700   97.3570 C.ar  118  TYR118     -0.0201
     70  CD1       10.0390  121.4170   96.0180 C.ar  118  TYR118     -0.0009
     71  CD2        9.9880  122.0870   98.3330 C.ar  118  TYR118     -0.0009
     72  CE1        9.2890  122.5380   95.6670 C.ar  118  TYR118      0.0417
     73  CE2        9.2200  123.2110   97.9800 C.ar  118  TYR118      0.0417
     74  CZ         8.8820  123.4290   96.6560 C.ar  118  TYR118      0.1957
     75  OH         8.1220  124.5220   96.2670 O.3   118  TYR118     -0.2866
     76  N         16.0060  123.3720   96.3550 N.3   121  ALA121     -0.1231
     77  CA        15.7400  123.8120   94.9900 C.3   121  ALA121      0.1694
     78  C         14.8810  125.0570   95.0450 C.2   121  ALA121      0.2592
     79  O         15.0970  126.0310   94.2970 O.2   121  ALA121     -0.2718
     80  CB        15.0570  122.7200   94.1690 C.3   121  ALA121      0.0304
     81  N         13.9000  125.0380   95.9290 N.am  122  TYR122     -0.1976
     82  CA        13.0350  126.1960   96.0090 C.3   122  TYR122      0.1639
     83  C         13.8710  127.4270   96.4830 C.2   122  TYR122      0.2290
     84  O         13.8360  128.4990   95.8660 O.2   122  TYR122     -0.2864
     85  CB        11.8380  125.9100   96.9370 C.3   122  TYR122      0.0560
     86  CG        11.0980  127.1810   97.2930 C.ar  122  TYR122     -0.0198
     87  CD1       10.0280  127.6460   96.5400 C.ar  122  TYR122     -0.0009
     88  CD2       11.5370  127.9350   98.3550 C.ar  122  TYR122     -0.0009
     89  CE1        9.3920  128.8250   96.8800 C.ar  122  TYR122      0.0417
     90  CE2       10.9440  129.1050   98.6960 C.ar  122  TYR122      0.0417
     91  CZ         9.8730  129.5520   97.9750 C.ar  122  TYR122      0.1957
     92  OH         9.3500  130.7500   98.4360 O.3   122  TYR122     -0.2866
     93  N         15.8610  129.2750   93.9460 N.3   125  TRP125     -0.1241
     94  CA        15.0880  130.0030   92.9760 C.3   125  TRP125      0.1605
     95  C         14.5250  131.2240   93.6990 C.2   125  TRP125      0.2264
     96  O         14.5530  132.3310   93.2070 O.2   125  TRP125     -0.2867
     97  CB        14.0000  129.0560   92.4140 C.3   125  TRP125      0.0550
     98  CG        12.9520  129.7440   91.6450 C.ar  125  TRP125      0.0003
     99  CD1       13.0330  130.2400   90.3490 C.ar  125  TRP125      0.0946
    100  CD2       11.6370  130.0530   92.1180 C.ar  125  TRP125      0.0152
    101  NE1       11.8140  130.8630   90.0050 N.ar  125  TRP125     -0.2442
    102  CE2       10.9480  130.7360   91.0700 C.ar  125  TRP125      0.0810
    103  CE3       10.9560  129.7900   93.3230 C.ar  125  TRP125      0.0012
    104  CZ2        9.6120  131.1800   91.2150 C.ar  125  TRP125      0.0191
    105  CZ3        9.6430  130.2170   93.4540 C.ar  125  TRP125      0.0001
    106  CH2        8.9810  130.9010   92.4090 C.ar  125  TRP125      0.0015
    107  N          2.8310  132.8890   92.4460 N.3   157  ILE157     -0.1231
    108  CA         3.0890  132.0090   91.3320 C.3   157  ILE157      0.1692
    109  C          2.5850  130.5930   91.6210 C.2   157  ILE157      0.2592
    110  O          1.9450  129.9770   90.7740 O.2   157  ILE157     -0.2718
    111  CB         4.6050  131.9490   91.0780 C.3   157  ILE157      0.0266
    112  CG1        5.0490  133.2870   90.4390 C.3   157  ILE157      0.0019
    113  CG2        4.9410  130.6630   90.3350 C.3   157  ILE157      0.0020
    114  CD1        6.5560  133.4820   90.2840 C.3   157  ILE157      0.0001
    115  N          2.8920  130.0880   92.8160 N.am  158  ASP158     -0.1974
    116  CA         2.4200  128.7710   93.2600 C.3   158  ASP158      0.1709
    117  C          0.8840  128.7050   93.3630 C.2   158  ASP158      0.2293
    118  O          0.2590  127.7570   92.8850 O.2   158  ASP158     -0.2864
    119  CB         3.0780  128.4070   94.6170 C.3   158  ASP158      0.1436
    120  CG         4.5370  127.8610   94.4570 C.2   158  ASP158      0.3671
    121  OD1        4.9810  127.5350   93.3250 O.co2 158  ASP158     -0.2456
    122  OD2        5.2460  127.7460   95.4730 O.co2 158  ASP158     -0.2456
@<TRIPOS>BOND
     1    13    14    1
     2    11    10    2
     3     8     9    1
     4     9    10    1
     5     9    12    1
     6    15    14    1
     7    15    16    2
     8    14    17    1
     9    28    30   ar
    10    28    27   ar
    11    22    23    1
    12    30    31   ar
    13    17    18    1
    14    26    27    1
    15    26    23    1
    16    27    29   ar
    17    23    24    1
    18    21    19   am
    19    31    29   ar
    20    31    33   ar
    21    18    19    1
    22    19    20    2
    23    29    32   ar
    24    24    25    2
    25     1     2    1
    26     4     3    2
    27     3     2    1
    28    33    35   ar
    29     2     5    1
    30    44    42   ar
    31    44    45   ar
    32    32    34   ar
    33    47    45   ar
    34    47    49   ar
    35    42    41   ar
    36    45    43   ar
    37   101    99   ar
    38   101   102   ar
    39    35    34   ar
    40   114   112    1
    41   113   111    1
    42    99    98   ar
    43   112   111    1
    44    49    48   ar
    45   110   109    2
    46     5     7    1
    47     5     6    1
    48    41    43   ar
    49    41    40    1
    50    43    46   ar
    51   102   104   ar
    52   102   100   ar
    53   111   108    1
    54    36    37    1
    55   104   106   ar
    56   108   109    1
    57   108   107    1
    58    48    46   ar
    59   109   115   am
    60    98   100   ar
    61    98    97    1
    62    40    37    1
    63   100   103   ar
    64    37    38    1
    65   106   105   ar
    66    97    94    1
    67   115   116    1
    68   118   117    2
    69    94    95    1
    70    94    93    1
    71    38    39    2
    72    96    95    2
    73   116   117    1
    74   116   119    1
    75   103   105   ar
    76   121   120   ar
    77    80    77    1
    78    63    61   ar
    79    63    62   ar
    80    79    78    2
    81   120   119    1
    82   120   122   ar
    83    61    59   ar
    84    62    60   ar
    85    77    78    1
    86    77    76    1
    87    78    81   am
    88    59    58   ar
    89    59    57   ar
    90    72    70   ar
    91    72    74   ar
    92    60    57   ar
    93    84    83    2
    94    58    56   ar
    95    81    82    1
    96    82    83    1
    97    82    85    1
    98    70    69   ar
    99    57    55   ar
   100    75    74    1
   101    87    89   ar
   102    87    86   ar
   103    74    73   ar
   104    56    55   ar
   105    89    91   ar
   106    55    54    1
   107    85    86    1
   108    50    51    1
   109    86    88   ar
   110    69    68    1
   111    69    71   ar
   112    67    66    2
   113    65    68    1
   114    65    64    1
   115    65    66    1
   116    54    51    1
   117    91    92    1
   118    91    90   ar
   119    73    71   ar
   120    51    52    1
   121    88    90   ar
   122    52    53    2
