@<TRIPOS>MOLECULE
tmp/4jnoA00.pdb
 129 126 0 0 0
SMALL
GASTEIGER

@<TRIPOS>ATOM
      1  N        -47.3630   12.2330  -20.2310 N.3   308  GLY308     -0.1210
      2  CA       -48.1660   13.4420  -20.2310 C.3   308  GLY308      0.1956
      3  C        -48.5880   13.8660  -21.6240 C.2   308  GLY308      0.2612
      4  O        -48.4870   15.0400  -21.9800 O.2   308  GLY308     -0.2717
      5  N        -49.0620   12.9080  -22.4140 N.am  309  CYS309     -0.1956
      6  CA       -49.5270   13.1970  -23.7640 C.3   309  CYS309      0.1843
      7  C        -50.7010   12.2980  -24.1380 C.2   309  CYS309      0.2625
      8  O        -51.0150   11.3450  -23.4260 O.2   309  CYS309     -0.2714
      9  CB       -48.3890   13.0240  -24.7720 C.3   309  CYS309      0.0997
     10  SG       -47.0350   14.2080  -24.5790 S.3   309  CYS309     -0.0797
     11  N        -51.3440   12.6080  -25.2590 N.am  310  ASN310     -0.1958
     12  CA       -52.5130   11.8600  -25.7050 C.3   310  ASN310      0.1819
     13  C        -52.6430   11.8790  -27.2230 C.2   310  ASN310      0.2621
     14  O        -52.1310   12.7810  -27.8870 O.2   310  ASN310     -0.2715
     15  CB       -53.7800   12.4370  -25.0710 C.3   310  ASN310      0.1195
     16  CG       -55.0260   11.6550  -25.4410 C.2   310  ASN310      0.2630
     17  OD1      -54.9610   10.4590  -25.7260 O.2   310  ASN310     -0.2716
     18  ND2      -56.1690   12.3300  -25.4410 N.am  310  ASN310     -0.0877
     19  N        -53.3300   10.8790  -27.7680 N.am  311  TYR311     -0.1960
     20  CA       -53.5460   10.7870  -29.2080 C.3   311  TYR311      0.1771
     21  C        -54.0610   12.1060  -29.7710 C.2   311  TYR311      0.2619
     22  O        -54.7970   12.8330  -29.1040 O.2   311  TYR311     -0.2715
     23  CB       -54.5410    9.6710  -29.5300 C.3   311  TYR311      0.0574
     24  CG       -54.0130    8.2770  -29.2720 C.ar  311  TYR311     -0.0198
     25  CD1      -53.2700    7.6070  -30.2340 C.ar  311  TYR311     -0.0009
     26  CD2      -54.2640    7.6300  -28.0700 C.ar  311  TYR311     -0.0009
     27  CE1      -52.7870    6.3320  -30.0050 C.ar  311  TYR311      0.0417
     28  CE2      -53.7860    6.3560  -27.8310 C.ar  311  TYR311      0.0417
     29  CZ       -53.0480    5.7110  -28.8020 C.ar  311  TYR311      0.1957
     30  OH       -52.5710    4.4420  -28.5680 O.3   311  TYR311     -0.2866
     31  N        -53.6680   12.4080  -31.0040 N.am  312  LYS312     -0.1977
     32  CA       -54.1360   13.6100  -31.6800 C.3   312  LYS312      0.1596
     33  C        -55.6310   13.4860  -31.9490 C.2   312  LYS312      0.2287
     34  O        -56.0570   12.6810  -32.7770 O.2   312  LYS312     -0.2864
     35  CB       -53.3790   13.8190  -32.9930 C.3   312  LYS312      0.0298
     36  CG       -51.8660   13.8920  -32.8370 C.3   312  LYS312      0.0038
     37  CD       -51.4460   15.0200  -31.9070 C.3   312  LYS312      0.0206
     38  CE       -49.9330   15.0870  -31.7630 C.3   312  LYS312      0.1093
     39  NZ       -49.5030   16.1720  -30.8380 N.3   312  LYS312     -0.1314
     40  N        -58.5330   21.4010  -34.8060 N.3   317  LYS317     -0.1245
     41  CA       -58.5310   22.7190  -34.1890 C.3   317  LYS317      0.1561
     42  C        -58.1970   23.7860  -35.2220 C.2   317  LYS317      0.2260
     43  O        -57.3880   23.5600  -36.1220 O.2   317  LYS317     -0.2867
     44  CB       -57.5170   22.7710  -33.0450 C.3   317  LYS317      0.0271
     45  CG       -57.8280   21.8220  -31.8980 C.3   317  LYS317      0.0035
     46  CD       -56.7370   21.8490  -30.8390 C.3   317  LYS317      0.0206
     47  CE       -56.5960   23.2270  -30.2100 C.3   317  LYS317      0.1093
     48  NZ       -55.5200   23.2650  -29.1840 N.3   317  LYS317     -0.1314
     49  N        -48.7970   22.4730  -33.7670 N.3   338  ARG338     -0.1231
     50  CA       -47.9670   23.1190  -32.7580 C.3   338  ARG338      0.1694
     51  C        -48.7270   23.2740  -31.4460 C.2   338  ARG338      0.2592
     52  O        -48.1570   23.1240  -30.3650 O.2   338  ARG338     -0.2718
     53  CB       -47.5000   24.4910  -33.2500 C.3   338  ARG338      0.0321
     54  CG       -46.8020   25.3280  -32.1900 C.3   338  ARG338      0.0489
     55  CD       -45.5710   24.6250  -31.6420 C.3   338  ARG338      0.2205
     56  NE       -44.9120   25.4030  -30.5950 N.pl3 338  ARG338     -0.0865
     57  CZ       -45.2560   25.3830  -29.3090 C.cat 338  ARG338      0.5346
     58  NH1      -46.2620   24.6270  -28.8890 N.pl3 338  ARG338      0.1354
     59  NH2      -44.5910   26.1280  -28.4380 N.pl3 338  ARG338      0.1354
     60  N        -50.0180   23.5730  -31.5490 N.am  339  GLN339     -0.1966
     61  CA       -50.8550   23.7780  -30.3730 C.3   339  GLN339      0.1733
     62  C        -50.8970   22.5260  -29.5040 C.2   339  GLN339      0.2617
     63  O        -51.1640   22.6030  -28.3040 O.2   339  GLN339     -0.2715
     64  CB       -52.2780   24.1600  -30.7900 C.3   339  GLN339      0.0408
     65  CG       -52.3660   25.4180  -31.6410 C.3   339  GLN339      0.0908
     66  CD       -53.7870   25.7520  -32.0480 C.2   339  GLN339      0.2608
     67  OE1      -54.7140   25.6540  -31.2440 O.2   339  GLN339     -0.2717
     68  NE2      -53.9670   26.1440  -33.3040 N.am  339  GLN339     -0.0878
     69  N        -50.6350   21.3750  -30.1150 N.am  340  THR340     -0.1937
     70  CA       -50.7090   20.1000  -29.4130 C.3   340  THR340      0.2028
     71  C        -49.3720   19.3620  -29.4400 C.2   340  THR340      0.2642
     72  O        -49.3270   18.1410  -29.2860 O.2   340  THR340     -0.2714
     73  CB       -51.7790   19.1900  -30.0440 C.3   340  THR340      0.1808
     74  OG1      -51.3020   18.6820  -31.2950 O.3   340  THR340     -0.2208
     75  CG2      -53.0740   19.9610  -30.2710 C.3   340  THR340      0.0379
     76  N        -48.2850   20.1030  -29.6370 N.am  341  LEU341     -0.1963
     77  CA       -46.9530   19.5090  -29.6750 C.3   341  LEU341      0.1728
     78  C        -46.6160   18.8600  -28.3340 C.2   341  LEU341      0.2616
     79  O        -46.6250   19.5230  -27.2970 O.2   341  LEU341     -0.2715
     80  CB       -45.9080   20.5730  -30.0150 C.3   341  LEU341      0.0311
     81  CG       -44.4890   20.0550  -30.2610 C.3   341  LEU341      0.0022
     82  CD1      -44.4160   19.2830  -31.5690 C.3   341  LEU341      0.0001
     83  CD2      -43.4890   21.1990  -30.2550 C.3   341  LEU341      0.0001
     84  N        -46.3120   17.5660  -28.3600 N.am  342  CYS342     -0.1954
     85  CA       -46.0340   16.8160  -27.1390 C.3   342  CYS342      0.1843
     86  C        -44.7520   17.2990  -26.4680 C.2   342  CYS342      0.2625
     87  O        -43.6690   17.2120  -27.0440 O.2   342  CYS342     -0.2714
     88  CB       -45.9280   15.3200  -27.4480 C.3   342  CYS342      0.0997
     89  SG       -45.5960   14.2780  -26.0090 S.3   342  CYS342     -0.0797
     90  N        -44.8890   17.8160  -25.2510 N.am  343  LEU343     -0.1963
     91  CA       -43.7440   18.2460  -24.4560 C.3   343  LEU343      0.1728
     92  C        -43.6390   17.4590  -23.1470 C.2   343  LEU343      0.2616
     93  O        -42.5440   17.2640  -22.6220 O.2   343  LEU343     -0.2715
     94  CB       -43.8390   19.7450  -24.1670 C.3   343  LEU343      0.0311
     95  CG       -43.9040   20.6450  -25.4060 C.3   343  LEU343      0.0022
     96  CD1      -44.0960   22.0970  -25.0020 C.3   343  LEU343      0.0001
     97  CD2      -42.6540   20.4860  -26.2580 C.3   343  LEU343      0.0001
     98  N        -44.7770   17.0110  -22.6230 N.am  344  GLY344     -0.1955
     99  CA       -44.7950   16.1800  -21.4320 C.3   344  GLY344      0.1869
    100  C        -44.8240   16.9630  -20.1320 C.2   344  GLY344      0.2309
    101  O        -44.9350   18.1890  -20.1320 O.2   344  GLY344     -0.2863
    102  N        -47.3520    9.6630  -32.3260 N.3   371  LEU371     -0.1245
    103  CA       -48.7070   10.1940  -32.4140 C.3   371  LEU371      0.1561
    104  C        -48.9960   10.7230  -33.8150 C.2   371  LEU371      0.2260
    105  O        -50.0820   10.5120  -34.3550 O.2   371  LEU371     -0.2867
    106  CB       -48.9140   11.3020  -31.3800 C.3   371  LEU371      0.0270
    107  CG       -48.7560   10.8880  -29.9140 C.3   371  LEU371      0.0019
    108  CD1      -49.0360   12.0640  -28.9920 C.3   371  LEU371      0.0001
    109  CD2      -49.6610    9.7130  -29.5790 C.3   371  LEU371      0.0001
    110  N        -45.8660   29.3780  -25.1680 N.3   407  ASP407     -0.1239
    111  CA       -46.9620   28.8610  -24.3570 C.3   407  ASP407      0.1674
    112  C        -46.4390   28.3440  -23.0220 C.2   407  ASP407      0.2266
    113  O        -45.2300   28.2890  -22.7990 O.2   407  ASP407     -0.2867
    114  CB       -47.7120   27.7520  -25.1020 C.3   407  ASP407      0.1410
    115  CG       -46.8170   26.5860  -25.4690 C.2   407  ASP407      0.3668
    116  OD1      -46.6020   25.7050  -24.6090 O.co2 407  ASP407     -0.2456
    117  OD2      -46.3340   26.5470  -26.6200 O.co2 407  ASP407     -0.2456
    118  N        -46.2510   25.2910  -21.4240 N.3   409  TYR409     -0.1241
    119  CA       -45.3210   24.1700  -21.4950 C.3   409  TYR409      0.1605
    120  C        -44.1500   24.4810  -22.4230 C.2   409  TYR409      0.2264
    121  O        -43.0970   23.8480  -22.3400 O.2   409  TYR409     -0.2867
    122  CB       -46.0460   22.9050  -21.9560 C.3   409  TYR409      0.0534
    123  CG       -47.0880   22.4200  -20.9730 C.ar  409  TYR409     -0.0201
    124  CD1      -46.7480   21.5470  -19.9470 C.ar  409  TYR409     -0.0009
    125  CD2      -48.4080   22.8380  -21.0660 C.ar  409  TYR409     -0.0009
    126  CE1      -47.6950   21.1030  -19.0450 C.ar  409  TYR409      0.0417
    127  CE2      -49.3620   22.3990  -20.1680 C.ar  409  TYR409      0.0417
    128  CZ       -49.0000   21.5320  -19.1600 C.ar  409  TYR409      0.1957
    129  OH       -49.9470   21.0920  -18.2640 O.3   409  TYR409     -0.2866
@<TRIPOS>BOND
     1    43    42    2
     2    42    41    1
     3    40    41    1
     4   105   104    2
     5    41    44    1
     6   104   103    1
     7    49    50    1
     8    68    66   am
     9    53    50    1
    10    53    54    1
    11    44    45    1
    12    35    36    1
    13    35    32    1
    14    36    37    1
    15    34    33    2
    16    50    51    1
    17   103   102    1
    18   103   106    1
    19    54    55    1
    20    66    65    1
    21    66    67    2
    22    33    32    1
    23    37    38    1
    24    45    46    1
    25    38    39    1
    26    32    31    1
    27    55    56    1
    28    65    64    1
    29    82    81    1
    30    60    51   am
    31    60    61    1
    32    51    52    2
    33   106   107    1
    34    74    73    1
    35    31    21   am
    36    46    47    1
    37    64    61    1
    38    56    57    2
    39    61    62    1
    40    75    73    1
    41    81    83    1
    42    81    80    1
    43    25    27   ar
    44    25    24   ar
    45    47    48    1
    46    69    62   am
    47    69    70    1
    48    73    70    1
    49    80    77    1
    50    27    29   ar
    51   107   109    1
    52   107   108    1
    53    21    20    1
    54    21    22    2
    55    77    76    1
    56    77    78    1
    57    76    71   am
    58    23    24    1
    59    23    20    1
    60    62    63    2
    61    71    70    1
    62    71    72    2
    63    57    58    1
    64    57    59    1
    65    24    26   ar
    66    20    19    1
    67    29    30    1
    68    29    28   ar
    69    84    78   am
    70    84    85    1
    71    78    79    2
    72    26    28   ar
    73    14    13    2
    74    19    13   am
    75    88    85    1
    76    88    89    1
    77    13    12    1
    78    85    86    1
    79    87    86    2
    80   117   115   ar
    81    86    90   am
    82    97    95    1
    83    89    10    1
    84    17    16    2
    85    12    11    1
    86    12    15    1
    87   115   114    1
    88   115   116   ar
    89    18    16   am
    90    16    15    1
    91    95    96    1
    92    95    94    1
    93    11     7   am
    94    90    91    1
    95   110   111    1
    96   114   111    1
    97     9    10    1
    98     9     6    1
    99    91    94    1
   100    91    92    1
   101   111   112    1
   102     7     6    1
   103     7     8    2
   104     6     5    1
   105    92    98   am
   106    92    93    2
   107   112   113    2
   108    98    99    1
   109   120   121    2
   110   120   119    1
   111     5     3   am
   112     4     3    2
   113   122   119    1
   114   122   123    1
   115     3     2    1
   116   119   118    1
   117    99   100    1
   118   125   123   ar
   119   125   127   ar
   120   123   124   ar
   121     2     1    1
   122   127   128   ar
   123   101   100    2
   124   124   126   ar
   125   128   126   ar
   126   128   129    1
