@<TRIPOS>MOLECULE
tmp/4jnoA01.pdb
 106 100 0 0 0
SMALL
GASTEIGER

@<TRIPOS>ATOM
      1  N         -2.8180   13.1110   20.0410 N.3     6  ALA6       -0.1231
      2  CA        -1.7660   13.2230   19.0380 C.3     6  ALA6        0.1694
      3  C         -2.2750   12.7680   17.6750 C.2     6  ALA6        0.2592
      4  O         -2.1060   13.4650   16.6740 O.2     6  ALA6       -0.2718
      5  CB        -0.5540   12.4030   19.4510 C.3     6  ALA6        0.0304
      6  N         -2.9080   11.6000   17.6450 N.am    7  CYS7       -0.1956
      7  CA        -3.4730   11.0710   16.4110 C.3     7  CYS7        0.1843
      8  C         -4.6820   11.9110   16.0050 C.2     7  CYS7        0.2626
      9  O         -4.5580   12.8340   15.2010 O.2     7  CYS7       -0.2714
     10  CB        -3.8620    9.5990   16.5890 C.3     7  CYS7        0.0997
     11  SG        -2.4570    8.4830   16.8310 S.3     7  CYS7       -0.0797
     12  N         -5.8380   11.6160   16.5920 N.am    8  GLY8       -0.1940
     13  CA        -7.0640   12.3310   16.2790 C.3     8  GLY8        0.2014
     14  C         -8.2180   11.3990   15.9600 C.2     8  GLY8        0.2638
     15  O         -8.0120   10.2750   15.5020 O.2     8  GLY8       -0.2714
     16  N         -9.4390   11.8680   16.2040 N.am    9  ILE9       -0.1977
     17  CA       -10.6340   11.0660   15.9650 C.3     9  ILE9        0.1596
     18  C        -10.6730   10.5720   14.5220 C.2     9  ILE9        0.2287
     19  O        -10.3090   11.2970   13.5960 O.2     9  ILE9       -0.2864
     20  CB       -11.9160   11.8630   16.2640 C.3     9  ILE9        0.0276
     21  CG1      -11.9040   12.3640   17.7100 C.3     9  ILE9        0.0022
     22  CG2      -13.1480   11.0040   16.0190 C.3     9  ILE9        0.0022
     23  CD1      -11.9300   13.8700   17.8330 C.3     9  ILE9        0.0001
     24  N        -12.4590    9.1470   11.0010 N.3    11  ARG11      -0.1245
     25  CA       -13.6550    9.4200   10.2130 C.3    11  ARG11       0.1563
     26  C        -14.3680    8.1210    9.8520 C.2    11  ARG11       0.2260
     27  O        -13.8540    7.3120    9.0800 O.2    11  ARG11      -0.2867
     28  CB       -13.2960   10.2020    8.9480 C.3    11  ARG11       0.0307
     29  CG       -12.7580   11.5940    9.2330 C.3    11  ARG11       0.0489
     30  CD       -12.5270   12.3980    7.9610 C.3    11  ARG11       0.2205
     31  NE       -11.4920   11.8190    7.1080 N.pl3  11  ARG11      -0.0865
     32  CZ       -10.1930   11.8290    7.3890 C.cat  11  ARG11       0.5346
     33  NH1       -9.7500   12.3730    8.5140 N.pl3  11  ARG11       0.1354
     34  NH2       -9.3300   11.2810    6.5460 N.pl3  11  ARG11       0.1354
     35  N         -4.4130    6.8210    5.8310 N.3    34  ILE34      -0.1231
     36  CA        -4.0870    8.2280    6.0340 C.3    34  ILE34       0.1692
     37  C         -4.1010    8.5890    7.5150 C.2    34  ILE34       0.2592
     38  O         -3.1910    9.2530    8.0060 O.2    34  ILE34      -0.2718
     39  CB        -5.0660    9.1480    5.2790 C.3    34  ILE34       0.0266
     40  CG1       -4.8780    8.9890    3.7680 C.3    34  ILE34       0.0019
     41  CG2       -4.8530   10.6010    5.6830 C.3    34  ILE34       0.0020
     42  CD1       -5.8780    9.7650    2.9370 C.3    34  ILE34       0.0001
     43  N         -5.1300    8.1410    8.2270 N.am   35  GLN35      -0.1966
     44  CA        -5.2770    8.4720    9.6390 C.3    35  GLN35       0.1733
     45  C         -4.5420    7.4830   10.5400 C.2    35  GLN35       0.2616
     46  O         -4.7980    7.4250   11.7430 O.2    35  GLN35      -0.2715
     47  CB        -6.7570    8.5190   10.0260 C.3    35  GLN35       0.0408
     48  CG        -7.5700    9.5400    9.2450 C.3    35  GLN35       0.0908
     49  CD        -8.9170    9.8210    9.8810 C.2    35  GLN35       0.2608
     50  OE1       -9.9460    9.3120    9.4370 O.2    35  GLN35      -0.2717
     51  NE2       -8.9170   10.6410   10.9260 N.am   35  GLN35      -0.0878
     52  N         -3.6310    6.7060    9.9610 N.am   36  LEU36      -0.1977
     53  CA        -2.8570    5.7430   10.7330 C.3    36  LEU36       0.1596
     54  C         -2.1080    6.4520   11.8580 C.2    36  LEU36       0.2287
     55  O         -1.3360    7.3780   11.6140 O.2    36  LEU36      -0.2864
     56  CB        -1.8710    5.0020    9.8290 C.3    36  LEU36       0.0297
     57  CG        -1.0610    3.8920   10.5030 C.3    36  LEU36       0.0022
     58  CD1       -1.9730    2.7630   10.9610 C.3    36  LEU36       0.0001
     59  CD2        0.0150    3.3680    9.5650 C.3    36  LEU36       0.0001
     60  N          0.4310    7.6260   13.8070 N.3    38  ILE38      -0.1231
     61  CA         1.8880    7.6780   13.7420 C.3    38  ILE38       0.1692
     62  C          2.4250    9.0210   14.2350 C.2    38  ILE38       0.2591
     63  O          3.5870    9.3530   14.0040 O.2    38  ILE38      -0.2718
     64  CB         2.3900    7.4510   12.3040 C.3    38  ILE38       0.0266
     65  CG1        1.8840    8.5650   11.3820 C.3    38  ILE38       0.0019
     66  CG2        1.9400    6.0890   11.7970 C.3    38  ILE38       0.0020
     67  CD1        2.4020    8.4720    9.9620 C.3    38  ILE38       0.0001
     68  N          1.5780    9.7870   14.9160 N.am   39  ALA39      -0.1980
     69  CA         1.9620   11.1110   15.3920 C.3    39  ALA39       0.1597
     70  C          2.8450   11.0220   16.6350 C.2    39  ALA39       0.2287
     71  O          3.6520   11.9150   16.8970 O.2    39  ALA39      -0.2864
     72  CB         0.7240   11.9430   15.6850 C.3    39  ALA39       0.0319
     73  N          3.1570   11.7760    1.3650 N.3   102  GLY102     -0.1210
     74  CA         2.7360   13.0760    1.8520 C.3   102  GLY102      0.1956
     75  C          2.3790   13.0600    3.3250 C.2   102  GLY102      0.2612
     76  O          2.3680   12.0060    3.9620 O.2   102  GLY102     -0.2717
     77  N          2.0870   14.2380    3.8670 N.am  103  GLY103     -0.1942
     78  CA         1.7050   14.3680    5.2600 C.3   103  GLY103      0.2014
     79  C          2.7420   13.7920    6.2050 C.2   103  GLY103      0.2639
     80  O          3.9400   14.0230    6.0440 O.2   103  GLY103     -0.2714
     81  N          2.2750   13.0360    7.1940 N.am  104  ASN104     -0.1958
     82  CA         3.1560   12.4440    8.1910 C.3   104  ASN104      0.1819
     83  C          3.6830   11.0840    7.7470 C.2   104  ASN104      0.2621
     84  O          4.5820   10.5240    8.3720 O.2   104  ASN104     -0.2715
     85  CB         2.4230   12.2990    9.5260 C.3   104  ASN104      0.1195
     86  CG         1.8260   13.6060   10.0090 C.2   104  ASN104      0.2630
     87  OD1        0.6250   13.6950   10.2690 O.2   104  ASN104     -0.2716
     88  ND2        2.6620   14.6300   10.1340 N.am  104  ASN104     -0.0877
     89  N          3.1140   10.5530    6.6700 N.am  105  THR105     -0.1951
     90  CA         3.5460    9.2680    6.1340 C.3   105  THR105      0.1897
     91  C          5.0240    9.3160    5.7640 C.2   105  THR105      0.2313
     92  O          5.7630    8.3580    5.9900 O.2   105  THR105     -0.2863
     93  CB         2.7290    8.8790    4.8890 C.3   105  THR105      0.1794
     94  OG1        1.3310    8.9130    5.2020 O.3   105  THR105     -0.2208
     95  CG2        3.1080    7.4850    4.4130 C.3   105  THR105      0.0378
     96  N          6.8980   12.1560    6.7110 N.3   107  ARG107     -0.1245
     97  CA         7.5100   12.9010    7.8050 C.3   107  ARG107      0.1563
     98  C          7.9800   11.9470    8.8970 C.2   107  ARG107      0.2260
     99  O          9.0110   12.1720    9.5320 O.2   107  ARG107     -0.2867
    100  CB         6.5100   13.9040    8.3810 C.3   107  ARG107      0.0307
    101  CG         7.1470   15.0960    9.0760 C.3   107  ARG107      0.0489
    102  CD         6.1160   16.1770    9.3590 C.3   107  ARG107      0.2205
    103  NE         5.4640   16.6390    8.1360 N.pl3 107  ARG107     -0.0865
    104  CZ         4.4230   17.4660    8.1020 C.cat 107  ARG107      0.5346
    105  NH1        3.8970   17.9310    9.2280 N.pl3 107  ARG107      0.1354
    106  NH2        3.9030   17.8260    6.9380 N.pl3 107  ARG107      0.1354
@<TRIPOS>BOND
     1    73    74    1
     2    74    75    1
     3    42    40    1
     4    75    77   am
     5    75    76    2
     6    40    39    1
     7    77    78    1
     8    95    93    1
     9    93    94    1
    10    93    90    1
    11    78    79    1
    12    39    41    1
    13    39    36    1
    14    91    92    2
    15    91    90    1
    16    35    36    1
    17    36    37    1
    18    80    79    2
    19    90    89    1
    20    79    81   am
    21    34    32    1
    22    89    83   am
    23    96    97    1
    24   106   104    1
    25    31    32    2
    26    31    30    1
    27    81    82    1
    28    32    33    1
    29    37    38    2
    30    37    43   am
    31    83    82    1
    32    83    84    2
    33    97   100    1
    34    97    98    1
    35    30    29    1
    36   104   103    2
    37   104   105    1
    38   103   102    1
    39    82    85    1
    40    43    44    1
    41   100   101    1
    42    98    99    2
    43    28    29    1
    44    28    25    1
    45   101   102    1
    46    27    26    2
    47    48    49    1
    48    48    47    1
    49    50    49    2
    50    85    86    1
    51    59    57    1
    52    44    47    1
    53    44    45    1
    54    56    57    1
    55    56    53    1
    56    26    25    1
    57    49    51   am
    58    52    45   am
    59    52    53    1
    60    67    65    1
    61    86    88   am
    62    86    87    2
    63    25    24    1
    64    57    58    1
    65    45    46    2
    66    53    54    1
    67    65    64    1
    68    55    54    2
    69    66    64    1
    70    64    61    1
    71    19    18    2
    72    61    60    1
    73    61    62    1
    74    63    62    2
    75    62    68   am
    76    18    17    1
    77    68    69    1
    78     9     8    2
    79    69    72    1
    80    69    70    1
    81    15    14    2
    82    14    16   am
    83    14    13    1
    84    17    16    1
    85    17    20    1
    86     8     7    1
    87     8    12   am
    88    22    20    1
    89    20    21    1
    90    13    12    1
    91     7    10    1
    92     7     6    1
    93    10    11    1
    94    70    71    2
    95     4     3    2
    96     6     3   am
    97     3     2    1
    98    21    23    1
    99     2     5    1
   100     2     1    1
