@<TRIPOS>MOLECULE
tmp/4jnzA01.pdb
 112 106 0 0 0
SMALL
GASTEIGER

@<TRIPOS>ATOM
      1  N         16.0440   54.2130   55.5330 N.3   168  ASP168     -0.1239
      2  CA        16.7150   53.2960   54.6120 C.3   168  ASP168      0.1674
      3  C         17.8430   54.0490   53.9350 C.2   168  ASP168      0.2266
      4  O         17.6070   55.0010   53.1850 O.2   168  ASP168     -0.2867
      5  CB        15.7030   52.7660   53.5720 C.3   168  ASP168      0.1410
      6  CG        16.3590   52.0360   52.3900 C.2   168  ASP168      0.3668
      7  OD1       15.6220   51.6850   51.4440 O.co2 168  ASP168     -0.2456
      8  OD2       17.5800   51.7960   52.3810 O.co2 168  ASP168     -0.2456
      9  N         19.2410   46.1260   54.1050 N.3   212  LYS212     -0.1245
     10  CA        19.1910   45.1050   53.0620 C.3   212  LYS212      0.1561
     11  C         20.3670   44.1470   53.2130 C.2   212  LYS212      0.2260
     12  O         21.5190   44.5730   53.2070 O.2   212  LYS212     -0.2867
     13  CB        19.2680   45.7610   51.6760 C.3   212  LYS212      0.0271
     14  CG        17.9710   46.4250   51.2340 C.3   212  LYS212      0.0035
     15  CD        18.2420   47.6940   50.4320 C.3   212  LYS212      0.0206
     16  CE        18.6290   48.8550   51.3510 C.3   212  LYS212      0.1093
     17  NZ        18.7990   50.1410   50.6070 N.3   212  LYS212     -0.1314
     18  N         14.8330   44.0210   55.4400 N.3   253  ASN253     -0.1225
     19  CA        13.9910   44.0720   54.2380 C.3   253  ASN253      0.1785
     20  C         13.9860   42.7450   53.5030 C.2   253  ASN253      0.2597
     21  O         14.9540   41.9820   53.5700 O.2   253  ASN253     -0.2718
     22  CB        14.4660   45.1590   53.2560 C.3   253  ASN253      0.1169
     23  CG        14.1570   46.5590   53.7330 C.2   253  ASN253      0.2627
     24  OD1       13.4810   46.7460   54.7460 O.2   253  ASN253     -0.2716
     25  ND2       14.6290   47.5530   52.9950 N.am  253  ASN253     -0.0877
     26  N         12.8960   42.4770   52.7870 N.am  254  ALA254     -0.1979
     27  CA        12.7800   41.2540   52.0150 C.3   254  ALA254      0.1597
     28  C         13.0930   41.6030   50.5660 C.2   254  ALA254      0.2287
     29  O         12.6390   42.6360   50.0600 O.2   254  ALA254     -0.2864
     30  CB        11.3730   40.6730   52.1510 C.3   254  ALA254      0.0319
     31  N          6.8600   43.0130   59.3680 N.3   314  ARG314     -0.1245
     32  CA         6.2400   43.8840   58.3780 C.3   314  ARG314      0.1563
     33  C          5.6440   43.0080   57.2940 C.2   314  ARG314      0.2260
     34  O          6.3670   42.2990   56.5930 O.2   314  ARG314     -0.2867
     35  CB         7.2730   44.8200   57.7360 C.3   314  ARG314      0.0307
     36  CG         6.6440   45.8210   56.7550 C.3   314  ARG314      0.0489
     37  CD         7.7180   46.4700   55.8800 C.3   314  ARG314      0.2205
     38  NE         8.5790   47.3520   56.6690 N.pl3 314  ARG314     -0.0865
     39  CZ         9.8050   47.7280   56.3150 C.cat 314  ARG314      0.5346
     40  NH1       10.3530   47.3000   55.1810 N.pl3 314  ARG314      0.1354
     41  NH2       10.4940   48.5320   57.1090 N.pl3 314  ARG314      0.1354
     42  N          7.7250   44.0390   46.2530 N.3   319  ALA319     -0.1231
     43  CA         8.2150   45.0910   45.3500 C.3   319  ALA319      0.1694
     44  C          8.8630   44.5980   44.0600 C.2   319  ALA319      0.2592
     45  O          9.1490   45.3980   43.1460 O.2   319  ALA319     -0.2718
     46  CB         9.1860   46.0090   46.1100 C.3   319  ALA319      0.0304
     47  N          9.0850   43.2910   43.9610 N.am  320  TYR320     -0.1976
     48  CA         9.8960   42.7520   42.8730 C.3   320  TYR320      0.1639
     49  C          9.1290   41.8930   41.8710 C.2   320  TYR320      0.2290
     50  O          9.7290   41.1090   41.1530 O.2   320  TYR320     -0.2864
     51  CB        11.0770   41.9440   43.4410 C.3   320  TYR320      0.0560
     52  CG        11.9480   42.7230   44.4090 C.ar  320  TYR320     -0.0198
     53  CD1       13.1540   43.2920   43.9960 C.ar  320  TYR320     -0.0009
     54  CD2       11.5700   42.8780   45.7380 C.ar  320  TYR320     -0.0009
     55  CE1       13.9580   44.0080   44.9000 C.ar  320  TYR320      0.0417
     56  CE2       12.3550   43.5940   46.6400 C.ar  320  TYR320      0.0417
     57  CZ        13.5390   44.1490   46.2190 C.ar  320  TYR320      0.1957
     58  OH        14.3010   44.8450   47.1400 O.3   320  TYR320     -0.2866
     59  N          5.2160   54.1990   52.3350 N.3   396  LEU396     -0.1245
     60  CA         6.4310   54.7380   51.7550 C.3   396  LEU396      0.1561
     61  C          6.3170   56.2480   51.6530 C.2   396  LEU396      0.2260
     62  O          5.2710   56.7740   51.2700 O.2   396  LEU396     -0.2867
     63  CB         6.6650   54.1630   50.3490 C.3   396  LEU396      0.0270
     64  CG         6.8240   52.6560   50.1630 C.3   396  LEU396      0.0019
     65  CD1        7.1270   52.3260   48.6780 C.3   396  LEU396      0.0001
     66  CD2        7.9390   52.1450   51.0590 C.3   396  LEU396      0.0001
     67  N          8.3660   54.9080   55.7640 N.3   423  TYR423     -0.1241
     68  CA         9.6320   54.3690   55.2890 C.3   423  TYR423      0.1605
     69  C         10.3450   55.4930   54.5510 C.2   423  TYR423      0.2264
     70  O          9.8110   56.0370   53.5840 O.2   423  TYR423     -0.2867
     71  CB         9.3610   53.2070   54.3340 C.3   423  TYR423      0.0534
     72  CG        10.5880   52.4380   53.8940 C.ar  423  TYR423     -0.0201
     73  CD1       11.0170   51.3250   54.6060 C.ar  423  TYR423     -0.0009
     74  CD2       11.3030   52.8090   52.7540 C.ar  423  TYR423     -0.0009
     75  CE1       12.1380   50.6100   54.2170 C.ar  423  TYR423      0.0417
     76  CE2       12.4250   52.0900   52.3510 C.ar  423  TYR423      0.0417
     77  CZ        12.8300   50.9860   53.0930 C.ar  423  TYR423      0.1957
     78  OH        13.9370   50.2570   52.7160 O.3   423  TYR423     -0.2866
     79  N         15.6440   51.6070   43.5200 N.3   435  TYR435     -0.1241
     80  CA        14.4520   51.9300   44.2970 C.3   435  TYR435      0.1605
     81  C         13.4370   52.6800   43.4240 C.2   435  TYR435      0.2264
     82  O         12.2470   52.3530   43.3930 O.2   435  TYR435     -0.2867
     83  CB        14.8460   52.7670   45.5240 C.3   435  TYR435      0.0534
     84  CG        13.7150   53.0430   46.4820 C.ar  435  TYR435     -0.0201
     85  CD1       13.4370   52.1700   47.5250 C.ar  435  TYR435     -0.0009
     86  CD2       12.9230   54.1790   46.3470 C.ar  435  TYR435     -0.0009
     87  CE1       12.3890   52.4230   48.4190 C.ar  435  TYR435      0.0417
     88  CE2       11.8790   54.4380   47.2290 C.ar  435  TYR435      0.0417
     89  CZ        11.6190   53.5580   48.2600 C.ar  435  TYR435      0.1957
     90  OH        10.5850   53.8160   49.1320 O.3   435  TYR435     -0.2866
     91  N         11.5430   50.4770   40.9550 N.3   438  ARG438     -0.1231
     92  CA        10.4530   49.7370   41.5920 C.3   438  ARG438      0.1694
     93  C          9.2290   50.6190   41.9000 C.2   438  ARG438      0.2591
     94  O          8.0900   50.1570   41.8190 O.2   438  ARG438     -0.2718
     95  CB        10.9490   48.9750   42.8370 C.3   438  ARG438      0.0321
     96  CG        11.9720   47.8630   42.4960 C.3   438  ARG438      0.0489
     97  CD        12.2840   46.9680   43.7090 C.3   438  ARG438      0.2205
     98  NE        12.9450   47.6960   44.7930 N.pl3 438  ARG438     -0.0865
     99  CZ        14.2650   47.8350   44.9050 C.cat 438  ARG438      0.5346
    100  NH1       15.0770   47.3030   43.9920 N.pl3 438  ARG438      0.1354
    101  NH2       14.7740   48.5120   45.9250 N.pl3 438  ARG438      0.1354
    102  N          9.4600   51.8880   42.2310 N.am  439  ARG439     -0.1980
    103  CA         8.3500   52.8190   42.4550 C.3   439  ARG439      0.1597
    104  C          7.6090   53.1210   41.1530 C.2   439  ARG439      0.2287
    105  O          6.3970   53.3330   41.1580 O.2   439  ARG439     -0.2864
    106  CB         8.8470   54.1320   43.0810 C.3   439  ARG439      0.0334
    107  CG         9.5990   53.9730   44.3940 C.3   439  ARG439      0.0492
    108  CD         8.6810   53.6170   45.5610 C.3   439  ARG439      0.2205
    109  NE         8.2060   52.2290   45.5680 N.pl3 439  ARG439     -0.0865
    110  CZ         8.9680   51.1720   45.8450 C.cat 439  ARG439      0.5346
    111  NH1       10.2660   51.3260   46.0880 N.pl3 439  ARG439      0.1354
    112  NH2        8.4380   49.9550   45.8590 N.pl3 439  ARG439      0.1354
@<TRIPOS>BOND
     1    91    92    1
     2    50    49    2
     3   104   105    2
     4   104   103    1
     5    92    93    1
     6    92    95    1
     7    94    93    2
     8    49    48    1
     9    93   102   am
    10   102   103    1
    11   103   106    1
    12    96    95    1
    13    96    97    1
    14    48    51    1
    15    48    47    1
    16   106   107    1
    17    45    44    2
    18    82    81    2
    19    81    80    1
    20    51    52    1
    21    79    80    1
    22    97    98    1
    23    47    44   am
    24   100    99    1
    25    53    52   ar
    26    53    55   ar
    27    44    43    1
    28    80    83    1
    29   107   108    1
    30    52    54   ar
    31    98    99    2
    32    55    57   ar
    33    99   101    1
    34    43    46    1
    35    43    42    1
    36    83    84    1
    37   108   109    1
    38   109   110    2
    39    54    56   ar
    40   110   112    1
    41   110   111    1
    42    57    56   ar
    43    57    58    1
    44    86    84   ar
    45    86    88   ar
    46    84    85   ar
    47    88    89   ar
    48    85    87   ar
    49    89    87   ar
    50    89    90    1
    51    65    64    1
    52    29    28    2
    53    64    63    1
    54    64    66    1
    55    63    60    1
    56    15    14    1
    57    15    16    1
    58    28    27    1
    59    17    16    1
    60    14    13    1
    61    62    61    2
    62     7     6   ar
    63    61    60    1
    64    13    10    1
    65    60    59    1
    66    27    30    1
    67    27    26    1
    68    76    74   ar
    69    76    77   ar
    70     8     6   ar
    71     6     5    1
    72    78    77    1
    73    74    72   ar
    74    26    20   am
    75    25    23   am
    76    10    11    1
    77    10     9    1
    78    77    75   ar
    79     4     3    2
    80    12    11    2
    81    22    23    1
    82    22    19    1
    83    20    21    2
    84    20    19    1
    85     5     2    1
    86    70    69    2
    87    23    24    2
    88    72    71    1
    89    72    73   ar
    90     3     2    1
    91    75    73   ar
    92    19    18    1
    93    71    68    1
    94    69    68    1
    95     2     1    1
    96    40    39    1
    97    68    67    1
    98    37    38    1
    99    37    36    1
   100    39    38    2
   101    39    41    1
   102    34    33    2
   103    36    35    1
   104    33    32    1
   105    35    32    1
   106    32    31    1
