@<TRIPOS>MOLECULE
tmp/4jnzA02.pdb
 109 103 0 0 0
SMALL
GASTEIGER

@<TRIPOS>ATOM
      1  N          2.8340   61.0320   28.6860 N.3   105  ASN105     -0.1240
      2  CA         2.8890   62.0860   29.6930 C.3   105  ASN105      0.1653
      3  C          3.6950   63.3140   29.2840 C.2   105  ASN105      0.2266
      4  O          4.2290   64.0160   30.1430 O.2   105  ASN105     -0.2867
      5  CB         3.4540   61.5340   31.0030 C.3   105  ASN105      0.1155
      6  CG         2.4140   60.8120   31.8240 C.2   105  ASN105      0.2627
      7  OD1        2.1720   59.6210   31.6330 O.2   105  ASN105     -0.2716
      8  ND2        1.7920   61.5300   32.7510 N.am  105  ASN105     -0.0877
      9  N          2.6720   66.4820   31.2550 N.3   108  THR108     -0.1203
     10  CA         3.2590   66.6010   32.5930 C.3   108  THR108      0.1994
     11  C          4.7410   66.9890   32.5430 C.2   108  THR108      0.2617
     12  O          5.1990   67.8170   33.3340 O.2   108  THR108     -0.2717
     13  CB         3.0860   65.2990   33.4140 C.3   108  THR108      0.1784
     14  OG1        1.7110   64.8940   33.3980 O.3   108  THR108     -0.2211
     15  CG2        3.5340   65.5030   34.8610 C.3   108  THR108      0.0376
     16  N          5.4830   66.3960   31.6090 N.am  109  TRP109     -0.1975
     17  CA         6.8890   66.7500   31.3980 C.3   109  TRP109      0.1640
     18  C          7.0320   68.1770   30.8640 C.2   109  TRP109      0.2290
     19  O          8.1190   68.7520   30.9000 O.2   109  TRP109     -0.2864
     20  CB         7.5760   65.7660   30.4340 C.3   109  TRP109      0.0576
     21  CG         8.0020   64.4630   31.0630 C.ar  109  TRP109      0.0006
     22  CD1        7.4390   63.2320   30.8690 C.ar  109  TRP109      0.0946
     23  CD2        9.0840   64.2670   31.9860 C.ar  109  TRP109      0.0152
     24  NE1        8.1020   62.2850   31.6170 N.ar  109  TRP109     -0.2442
     25  CE2        9.1150   62.8950   32.3120 C.ar  109  TRP109      0.0810
     26  CE3       10.0250   65.1210   32.5720 C.ar  109  TRP109      0.0012
     27  CZ2       10.0540   62.3570   33.1970 C.ar  109  TRP109      0.0191
     28  CZ3       10.9570   64.5870   33.4490 C.ar  109  TRP109      0.0001
     29  CH2       10.9630   63.2180   33.7550 C.ar  109  TRP109      0.0015
     30  N          7.6030   71.4140   33.2510 N.3   112  LEU112     -0.1245
     31  CA         8.9890   71.5430   33.6810 C.3   112  LEU112      0.1561
     32  C          9.7950   72.4790   32.7900 C.2   112  LEU112      0.2260
     33  O         10.7880   73.0630   33.2270 O.2   112  LEU112     -0.2867
     34  CB         9.6660   70.1720   33.6960 C.3   112  LEU112      0.0270
     35  CG         9.7880   69.4990   35.0600 C.3   112  LEU112      0.0019
     36  CD1       10.7450   68.3220   34.9930 C.3   112  LEU112      0.0001
     37  CD2       10.2560   70.5090   36.0870 C.3   112  LEU112      0.0001
     38  N         14.6760   63.5420   38.5810 N.3   137  LEU137     -0.1231
     39  CA        13.4540   64.3330   38.5570 C.3   137  LEU137      0.1693
     40  C         12.2800   63.5420   39.1340 C.2   137  LEU137      0.2591
     41  O         11.5500   64.0410   39.9910 O.2   137  LEU137     -0.2718
     42  CB        13.1530   64.7970   37.1280 C.3   137  LEU137      0.0284
     43  CG        13.6030   66.2020   36.7020 C.3   137  LEU137      0.0019
     44  CD1       14.5850   66.8100   37.6920 C.3   137  LEU137      0.0001
     45  CD2       14.1960   66.1850   35.3000 C.3   137  LEU137      0.0001
     46  N         12.1090   62.3030   38.6800 N.am  138  MET138     -0.1979
     47  CA        11.0140   61.4690   39.1720 C.3   138  MET138      0.1605
     48  C         11.2640   60.9020   40.5770 C.2   138  MET138      0.2287
     49  O         10.3190   60.6620   41.3370 O.2   138  MET138     -0.2864
     50  CB        10.7140   60.3330   38.1820 C.3   138  MET138      0.0413
     51  CG        10.1340   60.7980   36.8530 C.3   138  MET138      0.0598
     52  SD         9.6720   59.4170   35.7820 S.3   138  MET138     -0.1393
     53  CE        11.2800   58.7140   35.4530 C.3   138  MET138      0.0692
     54  N         10.6370   62.8680   44.7540 N.3   141  GLN141     -0.1231
     55  CA         9.4580   62.7960   45.6200 C.3   141  GLN141      0.1698
     56  C          9.5270   61.6170   46.5870 C.2   141  GLN141      0.2592
     57  O          8.8430   61.6080   47.6080 O.2   141  GLN141     -0.2718
     58  CB         8.1630   62.7380   44.7860 C.3   141  GLN141      0.0381
     59  CG         7.9750   61.4420   43.9890 C.3   141  GLN141      0.0905
     60  CD         6.8830   61.5460   42.9290 C.2   141  GLN141      0.2608
     61  OE1        5.7170   61.7920   43.2380 O.2   141  GLN141     -0.2717
     62  NE2        7.2630   61.3530   41.6700 N.am  141  GLN141     -0.0878
     63  N         10.3740   60.6350   46.2840 N.am  142  PHE142     -0.1976
     64  CA        10.4580   59.4260   47.1110 C.3   142  PHE142      0.1639
     65  C         11.5930   59.4550   48.1300 C.2   142  PHE142      0.2290
     66  O         11.7170   58.5440   48.9500 O.2   142  PHE142     -0.2864
     67  CB        10.6070   58.1870   46.2220 C.3   142  PHE142      0.0560
     68  CG         9.5010   58.0250   45.2300 C.ar  142  PHE142     -0.0200
     69  CD1        9.7540   58.1050   43.8680 C.ar  142  PHE142     -0.0042
     70  CD2        8.2030   57.7920   45.6570 C.ar  142  PHE142     -0.0042
     71  CE1        8.7310   57.9560   42.9480 C.ar  142  PHE142     -0.0003
     72  CE2        7.1740   57.6410   44.7430 C.ar  142  PHE142     -0.0003
     73  CZ         7.4400   57.7230   43.3860 C.ar  142  PHE142     -0.0000
     74  N          8.3360   53.1540   40.0390 N.3   440  LEU440     -0.1245
     75  CA         7.7010   53.3930   38.7480 C.3   440  LEU440      0.1561
     76  C          6.7940   52.2210   38.4050 C.2   440  LEU440      0.2260
     77  O          5.6830   52.4080   37.9000 O.2   440  LEU440     -0.2867
     78  CB         8.7400   53.5870   37.6430 C.3   440  LEU440      0.0270
     79  CG         9.5790   54.8590   37.7000 C.3   440  LEU440      0.0019
     80  CD1       10.4100   54.9870   36.4310 C.3   440  LEU440      0.0001
     81  CD2        8.6920   56.0730   37.8850 C.3   440  LEU440      0.0001
     82  N          3.7200   52.4550   40.8210 N.3   443  ASN443     -0.1240
     83  CA         2.8060   53.5620   40.5210 C.3   443  ASN443      0.1653
     84  C          2.1740   53.4840   39.1360 C.2   443  ASN443      0.2266
     85  O          1.0400   53.9260   38.9360 O.2   443  ASN443     -0.2867
     86  CB         3.5110   54.9100   40.7000 C.3   443  ASN443      0.1155
     87  CG         3.6630   55.2950   42.1590 C.2   443  ASN443      0.2627
     88  OD1        2.7520   55.8750   42.7590 O.2   443  ASN443     -0.2716
     89  ND2        4.8120   54.9700   42.7420 N.am  443  ASN443     -0.0877
     90  N         -2.9900   52.7140   43.8150 N.3   450  VAL450     -0.1231
     91  CA        -2.6010   54.1180   43.6620 C.3   450  VAL450      0.1692
     92  C         -2.7750   54.6100   42.2180 C.2   450  VAL450      0.2592
     93  O         -2.9400   55.8060   41.9810 O.2   450  VAL450     -0.2718
     94  CB        -1.1550   54.3930   44.1400 C.3   450  VAL450      0.0266
     95  CG1       -1.0080   54.0830   45.6400 C.3   450  VAL450      0.0020
     96  CG2       -0.1430   53.6060   43.2990 C.3   450  VAL450      0.0020
     97  N         -2.7480   53.6880   41.2610 N.am  451  ASN451     -0.1974
     98  CA        -2.9880   54.0340   39.8610 C.3   451  ASN451      0.1688
     99  C         -4.4900   54.1280   39.6090 C.2   451  ASN451      0.2292
    100  O         -4.9870   55.0720   38.9800 O.2   451  ASN451     -0.2864
    101  CB        -2.3690   52.9750   38.9390 C.3   451  ASN451      0.1181
    102  CG        -2.3880   53.3760   37.4620 C.2   451  ASN451      0.2629
    103  OD1       -3.3900   53.1900   36.7610 O.2   451  ASN451     -0.2716
    104  ND2       -1.2660   53.9000   36.9770 N.am  451  ASN451     -0.0877
    105  N         -6.4720   57.2160   41.0000 N.3   454  ALA454     -0.1245
    106  CA        -6.2510   58.4690   40.2770 C.3   454  ALA454      0.1562
    107  C         -7.2260   58.6020   39.1140 C.2   454  ALA454      0.2260
    108  O         -7.4870   59.7050   38.6180 O.2   454  ALA454     -0.2867
    109  CB        -4.8140   58.5420   39.7710 C.3   454  ALA454      0.0290
@<TRIPOS>BOND
     1     1     2    1
     2     3     2    1
     3     3     4    2
     4     2     5    1
     5    20    21    1
     6    20    17    1
     7    18    19    2
     8    18    17    1
     9    22    21   ar
    10    22    24   ar
    11     5     6    1
    12    21    23   ar
    13     9    10    1
    14    17    16    1
    15    16    11   am
    16    24    25   ar
    17     7     6    2
    18     6     8   am
    19    23    25   ar
    20    23    26   ar
    21    25    27   ar
    22    11    10    1
    23    11    12    2
    24    26    28   ar
    25    10    13    1
    26    32    33    2
    27    32    31    1
    28    27    29   ar
    29    30    31    1
    30    14    13    1
    31    13    15    1
    32    28    29   ar
    33    31    34    1
    34    34    35    1
    35    36    35    1
    36    35    37    1
    37    45    43    1
    38    53    52    1
    39    52    51    1
    40    80    79    1
    41    43    42    1
    42    43    44    1
    43   103   102    2
    44    51    50    1
    45   104   102   am
    46    42    39    1
    47   102   101    1
    48    78    79    1
    49    78    75    1
    50    79    81    1
    51    77    76    2
    52    50    47    1
    53    76    75    1
    54    39    38    1
    55    39    40    1
    56   108   107    2
    57    46    40   am
    58    46    47    1
    59    75    74    1
    60    85    84    2
    61   101    98    1
    62   100    99    2
    63   107   106    1
    64    40    41    2
    65    84    83    1
    66    47    48    1
    67    99    98    1
    68   109   106    1
    69    98    97    1
    70   106   105    1
    71    83    86    1
    72    83    82    1
    73    48    49    2
    74    86    87    1
    75    97    92   am
    76    62    60   am
    77    93    92    2
    78    87    89   am
    79    87    88    2
    80    92    91    1
    81    60    61    2
    82    60    59    1
    83    71    73   ar
    84    71    69   ar
    85    96    94    1
    86    73    72   ar
    87    91    90    1
    88    91    94    1
    89    69    68   ar
    90    59    58    1
    91    94    95    1
    92    72    70   ar
    93    54    55    1
    94    58    55    1
    95    68    70   ar
    96    68    67    1
    97    55    56    1
    98    67    64    1
    99    63    56   am
   100    63    64    1
   101    56    57    2
   102    64    65    1
   103    65    66    2
