@<TRIPOS>MOLECULE
tmp/4jo1D00.pdb
 136 133 0 0 0
SMALL
GASTEIGER

@<TRIPOS>ATOM
      1  N          2.3020  -35.0430   35.8360 N.3    29  TYR29      -0.1241
      2  CA         1.4180  -34.3200   36.7550 C.3    29  TYR29       0.1605
      3  C          0.8650  -33.0260   36.1460 C.2    29  TYR29       0.2264
      4  O          1.6200  -32.2230   35.5890 O.2    29  TYR29      -0.2867
      5  CB         2.1370  -34.0370   38.0740 C.3    29  TYR29       0.0534
      6  CG         1.2400  -33.4270   39.1330 C.ar   29  TYR29      -0.0201
      7  CD1        1.3140  -32.0780   39.4370 C.ar   29  TYR29      -0.0009
      8  CD2        0.3220  -34.2030   39.8210 C.ar   29  TYR29      -0.0009
      9  CE1        0.4930  -31.5190   40.4060 C.ar   29  TYR29       0.0417
     10  CE2       -0.5020  -33.6570   40.7880 C.ar   29  TYR29       0.0417
     11  CZ        -0.4140  -32.3160   41.0740 C.ar   29  TYR29       0.1957
     12  OH        -1.2280  -31.7680   42.0400 O.3    29  TYR29      -0.2866
     13  N          3.9850  -31.1480   33.9650 N.3    33  ASN33      -0.1225
     14  CA         5.1680  -31.1380   34.8310 C.3    33  ASN33       0.1785
     15  C          6.2870  -31.8970   34.1330 C.2    33  ASN33       0.2597
     16  O          6.5120  -33.0860   34.3990 O.2    33  ASN33      -0.2718
     17  CB         4.8600  -31.7600   36.1910 C.3    33  ASN33       0.1169
     18  CG         5.8520  -31.3500   37.2690 C.2    33  ASN33       0.2627
     19  OD1        6.6510  -30.4230   37.0960 O.2    33  ASN33      -0.2716
     20  ND2        5.7960  -32.0430   38.4030 N.am   33  ASN33      -0.0877
     21  N          6.9740  -31.1990   33.2250 N.am   34  LEU34      -0.1966
     22  CA         8.0130  -31.8020   32.3780 C.3    34  LEU34       0.1728
     23  C          9.0800  -30.7520   32.1150 C.2    34  LEU34       0.2616
     24  O          8.7470  -29.5990   31.7980 O.2    34  LEU34      -0.2715
     25  CB         7.3920  -32.2800   31.0540 C.3    34  LEU34       0.0311
     26  CG         8.1180  -33.1440   30.0060 C.3    34  LEU34       0.0022
     27  CD1        9.2400  -32.3950   29.2560 C.3    34  LEU34       0.0001
     28  CD2        8.5970  -34.4940   30.5700 C.3    34  LEU34       0.0001
     29  N         10.3540  -31.1360   32.2400 N.am   35  ALA35      -0.1977
     30  CA        11.4530  -30.1900   32.0690 C.3    35  ALA35       0.1597
     31  C         12.5720  -30.7410   31.1710 C.2    35  ALA35       0.2287
     32  O         12.7080  -31.9440   31.0130 O.2    35  ALA35      -0.2864
     33  CB        12.0190  -29.7860   33.4250 C.3    35  ALA35       0.0319
     34  N         16.8830  -30.4490   30.2010 N.3    37  PHE37      -0.1241
     35  CA        18.1840  -30.0870   30.7520 C.3    37  PHE37       0.1605
     36  C         19.3040  -30.2360   29.7410 C.2    37  PHE37       0.2264
     37  O         19.2300  -31.0780   28.8430 O.2    37  PHE37      -0.2867
     38  CB        18.5550  -30.9910   31.9440 C.3    37  PHE37       0.0534
     39  CG        17.6580  -30.8320   33.1380 C.ar   37  PHE37      -0.0203
     40  CD1       16.4830  -31.5510   33.2250 C.ar   37  PHE37      -0.0042
     41  CD2       17.9970  -29.9680   34.1780 C.ar   37  PHE37      -0.0042
     42  CE1       15.6490  -31.4120   34.3200 C.ar   37  PHE37      -0.0003
     43  CE2       17.1620  -29.8190   35.2740 C.ar   37  PHE37      -0.0003
     44  CZ        15.9860  -30.5460   35.3430 C.ar   37  PHE37      -0.0000
     45  N         19.0560  -26.3770   33.9870 N.3    47  LEU47      -0.1245
     46  CA        17.6420  -26.3280   33.6360 C.3    47  LEU47       0.1561
     47  C         17.4550  -25.3730   32.4670 C.2    47  LEU47       0.2260
     48  O         17.8880  -24.2320   32.5390 O.2    47  LEU47      -0.2867
     49  CB        16.7980  -25.8450   34.8380 C.3    47  LEU47       0.0270
     50  CG        15.2860  -25.7180   34.6240 C.3    47  LEU47       0.0019
     51  CD1       14.6560  -27.0660   34.2560 C.3    47  LEU47       0.0001
     52  CD2       14.5860  -25.1240   35.8490 C.3    47  LEU47       0.0001
     53  N         10.9480  -25.5530   31.7790 N.3    50  TYR50      -0.1227
     54  CA        10.0960  -26.2560   32.7410 C.3    50  TYR50       0.1736
     55  C          8.6320  -25.9980   32.4220 C.2    50  TYR50       0.2595
     56  O          8.3190  -25.1330   31.5890 O.2    50  TYR50      -0.2718
     57  CB        10.4290  -25.8590   34.1880 C.3    50  TYR50       0.0548
     58  CG        10.1380  -24.4020   34.5010 C.ar   50  TYR50      -0.0200
     59  CD1       11.0610  -23.4020   34.1900 C.ar   50  TYR50      -0.0009
     60  CD2        8.9380  -24.0270   35.0940 C.ar   50  TYR50      -0.0009
     61  CE1       10.7970  -22.0620   34.4680 C.ar   50  TYR50       0.0417
     62  CE2        8.6630  -22.6970   35.3750 C.ar   50  TYR50       0.0417
     63  CZ         9.5930  -21.7200   35.0620 C.ar   50  TYR50       0.1957
     64  OH         9.3180  -20.4030   35.3450 O.3    50  TYR50      -0.2866
     65  N          7.7430  -26.7640   33.0590 N.am   51  ASP51      -0.1974
     66  CA         6.3180  -26.6980   32.7500 C.3    51  ASP51       0.1709
     67  C          6.0660  -26.9030   31.2440 C.2    51  ASP51       0.2293
     68  O          5.2020  -26.2370   30.6530 O.2    51  ASP51      -0.2864
     69  CB         5.7290  -25.3520   33.2140 C.3    51  ASP51       0.1436
     70  CG         5.5160  -25.2790   34.7280 C.2    51  ASP51       0.3671
     71  OD1        5.0090  -24.2410   35.2010 O.co2  51  ASP51      -0.2456
     72  OD2        5.8400  -26.2450   35.4470 O.co2  51  ASP51      -0.2456
     73  N         13.6160  -21.0840   31.2740 N.3    56  ALA56      -0.1231
     74  CA        14.2550  -20.7220   32.5370 C.3    56  ALA56       0.1694
     75  C         14.9560  -19.3800   32.3750 C.2    56  ALA56       0.2592
     76  O         15.4170  -19.0430   31.2880 O.2    56  ALA56      -0.2718
     77  CB        15.2430  -21.7950   32.9870 C.3    56  ALA56       0.0304
     78  N         15.0180  -18.6090   33.4550 N.am   57  SER57      -0.1952
     79  CA        15.5860  -17.2700   33.3940 C.3    57  SER57       0.1924
     80  C         17.0340  -17.3210   32.8950 C.2    57  SER57       0.2314
     81  O         17.8340  -18.1190   33.3760 O.2    57  SER57      -0.2863
     82  CB        15.4960  -16.6020   34.7750 C.3    57  SER57       0.2116
     83  OG        15.9390  -15.2560   34.7310 O.3    57  SER57      -0.2180
     84  N         12.8980  -34.6260   32.0120 N.3    90  LEU90      -0.1231
     85  CA        12.5470  -35.1240   33.3370 C.3    90  LEU90       0.1693
     86  C         11.0490  -34.9530   33.5850 C.2    90  LEU90       0.2593
     87  O         10.5350  -33.8490   33.5000 O.2    90  LEU90      -0.2718
     88  CB        13.3070  -34.3640   34.4370 C.3    90  LEU90       0.0284
     89  CG        12.7750  -34.4800   35.8770 C.3    90  LEU90       0.0019
     90  CD1       13.0680  -35.8750   36.4560 C.3    90  LEU90       0.0001
     91  CD2       13.3150  -33.3720   36.8110 C.3    90  LEU90       0.0001
     92  N         10.3690  -36.0430   33.9260 N.am   91  GLY91      -0.1942
     93  CA         8.9410  -35.9930   34.2330 C.3    91  GLY91       0.2014
     94  C          8.6330  -35.9900   35.7220 C.2    91  GLY91       0.2639
     95  O          9.2720  -36.7200   36.4890 O.2    91  GLY91      -0.2714
     96  N          7.6760  -35.1480   36.1300 N.am   92  GLY92      -0.1939
     97  CA         7.1120  -35.1680   37.4730 C.3    92  GLY92       0.2014
     98  C          5.7350  -35.8170   37.4170 C.2    92  GLY92       0.2639
     99  O          4.9370  -35.4990   36.5320 O.2    92  GLY92      -0.2714
    100  N          5.4620  -36.7390   38.3400 N.am   93  TYR93      -0.1959
    101  CA         4.2610  -37.5810   38.2650 C.3    93  TYR93       0.1771
    102  C          3.3840  -37.4920   39.5110 C.2    93  TYR93       0.2620
    103  O          3.8010  -36.9450   40.5280 O.2    93  TYR93      -0.2715
    104  CB         4.6520  -39.0410   37.9970 C.3    93  TYR93       0.0574
    105  CG         5.3070  -39.2100   36.6470 C.ar   93  TYR93      -0.0198
    106  CD1        4.5330  -39.3700   35.5010 C.ar   93  TYR93      -0.0009
    107  CD2        6.6980  -39.1560   36.5090 C.ar   93  TYR93      -0.0009
    108  CE1        5.1180  -39.4950   34.2540 C.ar   93  TYR93       0.0417
    109  CE2        7.2980  -39.2830   35.2580 C.ar   93  TYR93       0.0417
    110  CZ         6.4950  -39.4520   34.1370 C.ar   93  TYR93       0.1957
    111  OH         7.0630  -39.5760   32.8890 O.3    93  TYR93      -0.2866
    112  N          2.1700  -38.0350   39.4350 N.am   94  ASP94      -0.1957
    113  CA         1.3090  -38.1030   40.6190 C.3    94  ASP94       0.1840
    114  C          1.8830  -39.0950   41.6480 C.2    94  ASP94       0.2622
    115  O          1.8940  -40.3040   41.4000 O.2    94  ASP94      -0.2715
    116  CB        -0.1100  -38.5230   40.2030 C.3    94  ASP94       0.1450
    117  CG        -1.1140  -38.4020   41.3370 C.2    94  ASP94       0.3671
    118  OD1       -0.8140  -38.8140   42.4840 O.co2  94  ASP94      -0.2456
    119  OD2       -2.2160  -37.8810   41.0730 O.co2  94  ASP94      -0.2456
    120  N          2.3450  -38.5950   42.7960 N.am   95  CYS95      -0.1968
    121  CA         2.9820  -39.4520   43.8070 C.3    95  CYS95       0.1712
    122  C          2.0860  -40.5670   44.3600 C.2    95  CYS95       0.2296
    123  O          2.5880  -41.5640   44.8850 O.2    95  CYS95      -0.2864
    124  CB         3.4970  -38.6260   44.9950 C.3    95  CYS95       0.0983
    125  SG         4.8440  -37.5050   44.6200 S.3    95  CYS95      -0.0798
    126  N          7.3620  -40.4600   42.0740 N.3   100  CYS100     -0.1221
    127  CA         7.1650  -39.0260   41.8780 C.3   100  CYS100      0.1808
    128  C          7.8470  -38.4530   40.6290 C.2   100  CYS100      0.2601
    129  O          7.4890  -37.3630   40.1870 O.2   100  CYS100     -0.2717
    130  CB         7.6410  -38.2370   43.1010 C.3   100  CYS100      0.0970
    131  SG         6.6440  -38.4730   44.6000 S.3   100  CYS100     -0.0800
    132  N          8.8240  -39.1690   40.0760 N.am  101  ALA101     -0.1979
    133  CA         9.6430  -38.6120   38.9920 C.3   101  ALA101      0.1597
    134  C         10.3650  -39.6900   38.1690 C.2   101  ALA101      0.2287
    135  O         10.5400  -40.8070   38.6400 O.2   101  ALA101     -0.2864
    136  CB        10.6440  -37.6150   39.5540 C.3   101  ALA101      0.0319
@<TRIPOS>BOND
     1    37    36    2
     2    27    26    1
     3    36    35    1
     4    26    28    1
     5    26    25    1
     6    34    35    1
     7    68    67    2
     8    35    38    1
     9    32    31    2
    10    25    22    1
    11    31    30    1
    12    67    66    1
    13    73    74    1
    14    76    75    2
    15    56    55    2
    16    53    54    1
    17    24    23    2
    18    38    39    1
    19    84    85    1
    20    30    29    1
    21    30    33    1
    22    23    29   am
    23    23    22    1
    24    75    74    1
    25    75    78   am
    26    22    21    1
    27    55    54    1
    28    55    65   am
    29    47    48    2
    30    47    46    1
    31    74    77    1
    32    54    57    1
    33    66    65    1
    34    66    69    1
    35   111   110    1
    36    80    81    2
    37    80    79    1
    38    39    40   ar
    39    39    41   ar
    40    69    70    1
    41    21    15   am
    42    40    42   ar
    43    85    86    1
    44    85    88    1
    45    79    78    1
    46    79    82    1
    47    87    86    2
    48    86    92   am
    49    46    45    1
    50    46    49    1
    51    92    93    1
    52    13    14    1
    53    15    16    2
    54    15    14    1
    55   110   108   ar
    56   110   109   ar
    57    41    43   ar
    58    57    58    1
    59    59    61   ar
    60    59    58   ar
    61    93    94    1
    62   108   106   ar
    63    51    50    1
    64    42    44   ar
    65    88    89    1
    66    61    63   ar
    67    58    60   ar
    68    50    49    1
    69    50    52    1
    70    70    71   ar
    71    70    72   ar
    72    83    82    1
    73    14    17    1
    74    63    64    1
    75    63    62   ar
    76    60    62   ar
    77   109   107   ar
    78    43    44   ar
    79   106   105   ar
    80     4     3    2
    81    94    96   am
    82    94    95    2
    83     1     2    1
    84    89    90    1
    85    89    91    1
    86    96    97    1
    87     3     2    1
    88    17    18    1
    89   107   105   ar
    90    99    98    2
    91   105   104    1
    92     2     5    1
    93    19    18    2
    94    18    20   am
    95    98    97    1
    96    98   100   am
    97   104   101    1
    98     5     6    1
    99   134   135    2
   100   134   133    1
   101   101   100    1
   102   101   102    1
   103   133   136    1
   104   133   132    1
   105     6     7   ar
   106     6     8   ar
   107   112   102   am
   108   112   113    1
   109     7     9   ar
   110   102   103    2
   111     8    10   ar
   112   132   128   am
   113   129   128    2
   114   116   113    1
   115   116   117    1
   116     9    11   ar
   117   113   114    1
   118   128   127    1
   119    10    11   ar
   120   119   117   ar
   121    11    12    1
   122   117   118   ar
   123   115   114    2
   124   114   120   am
   125   127   126    1
   126   127   130    1
   127   120   121    1
   128   130   131    1
   129   121   122    1
   130   121   124    1
   131   122   123    2
   132   131   125    1
   133   125   124    1
