@<TRIPOS>MOLECULE
tmp/4jo2D00.pdb
 125 123 0 0 0
SMALL
GASTEIGER

@<TRIPOS>ATOM
      1  N          2.2260  -35.1170   36.0920 N.3    29  TYR29      -0.1241
      2  CA         1.3940  -34.4370   37.0790 C.3    29  TYR29       0.1605
      3  C          0.9170  -33.0930   36.5350 C.2    29  TYR29       0.2264
      4  O          1.7260  -32.2740   36.0830 O.2    29  TYR29      -0.2867
      5  CB         2.1370  -34.2540   38.4120 C.3    29  TYR29       0.0534
      6  CG         1.3040  -33.5420   39.4590 C.ar   29  TYR29      -0.0201
      7  CD1        0.2540  -34.1910   40.1020 C.ar   29  TYR29      -0.0009
      8  CD2        1.5590  -32.2200   39.7930 C.ar   29  TYR29      -0.0009
      9  CE1       -0.5170  -33.5450   41.0470 C.ar   29  TYR29       0.0417
     10  CE2        0.7990  -31.5640   40.7470 C.ar   29  TYR29       0.0417
     11  CZ        -0.2400  -32.2280   41.3650 C.ar   29  TYR29       0.1957
     12  OH        -0.9960  -31.5590   42.3040 O.3    29  TYR29      -0.2866
     13  N          3.9720  -30.8940   34.1230 N.3    33  ASN33      -0.1225
     14  CA         5.1530  -30.9620   34.9890 C.3    33  ASN33       0.1785
     15  C          6.3080  -31.7170   34.3130 C.2    33  ASN33       0.2597
     16  O          6.5750  -32.8770   34.6260 O.2    33  ASN33      -0.2718
     17  CB         4.7880  -31.6030   36.3370 C.3    33  ASN33       0.1169
     18  CG         5.8330  -31.3590   37.4170 C.2    33  ASN33       0.2627
     19  OD1        6.6410  -30.4400   37.3240 O.2    33  ASN33      -0.2716
     20  ND2        5.8100  -32.1850   38.4540 N.am   33  ASN33      -0.0877
     21  N          6.9790  -31.0480   33.3770 N.am   34  LEU34      -0.1966
     22  CA         7.9950  -31.6790   32.5480 C.3    34  LEU34       0.1728
     23  C          9.0810  -30.6590   32.2240 C.2    34  LEU34       0.2616
     24  O          8.7820  -29.5080   31.8890 O.2    34  LEU34      -0.2715
     25  CB         7.3460  -32.2280   31.2660 C.3    34  LEU34       0.0311
     26  CG         8.0640  -33.1140   30.2240 C.3    34  LEU34       0.0022
     27  CD1        9.1320  -32.3580   29.4380 C.3    34  LEU34       0.0001
     28  CD2        8.6260  -34.4260   30.8130 C.3    34  LEU34       0.0001
     29  N         10.3400  -31.0790   32.3020 N.am   35  ALA35      -0.1977
     30  CA        11.4380  -30.1460   32.0860 C.3    35  ALA35       0.1597
     31  C         12.4970  -30.6520   31.1080 C.2    35  ALA35       0.2287
     32  O         12.6200  -31.8410   30.8690 O.2    35  ALA35      -0.2864
     33  CB        12.0840  -29.7340   33.4260 C.3    35  ALA35       0.0319
     34  N         16.7150  -30.4520   30.2020 N.3    37  PHE37      -0.1241
     35  CA        18.0180  -30.1770   30.7800 C.3    37  PHE37       0.1605
     36  C         19.1190  -30.3440   29.7370 C.2    37  PHE37       0.2264
     37  O         18.9730  -31.1110   28.7930 O.2    37  PHE37      -0.2867
     38  CB        18.3070  -31.1450   31.9320 C.3    37  PHE37       0.0534
     39  CG        17.4990  -30.8910   33.1580 C.ar   37  PHE37      -0.0203
     40  CD1       16.2310  -31.4260   33.2880 C.ar   37  PHE37      -0.0042
     41  CD2       18.0000  -30.1190   34.1810 C.ar   37  PHE37      -0.0042
     42  CE1       15.4800  -31.1830   34.4130 C.ar   37  PHE37      -0.0003
     43  CE2       17.2540  -29.8790   35.2980 C.ar   37  PHE37      -0.0003
     44  CZ        15.9960  -30.4080   35.4170 C.ar   37  PHE37      -0.0000
     45  N         19.2170  -26.4910   33.8640 N.3    47  LEU47      -0.1245
     46  CA        17.7830  -26.3560   33.6070 C.3    47  LEU47       0.1561
     47  C         17.5240  -25.3040   32.5370 C.2    47  LEU47       0.2260
     48  O         17.9410  -24.1680   32.6850 O.2    47  LEU47      -0.2867
     49  CB        17.0530  -25.9660   34.8930 C.3    47  LEU47       0.0270
     50  CG        15.5350  -25.8190   34.7990 C.3    47  LEU47       0.0019
     51  CD1       14.8820  -27.1740   34.6040 C.3    47  LEU47       0.0001
     52  CD2       14.9670  -25.1190   36.0300 C.3    47  LEU47       0.0001
     53  N         11.0350  -25.4780   31.9520 N.3    50  TYR50      -0.1227
     54  CA        10.1800  -26.1730   32.8990 C.3    50  TYR50       0.1736
     55  C          8.7120  -25.8900   32.5680 C.2    50  TYR50       0.2595
     56  O          8.4160  -25.0420   31.7150 O.2    50  TYR50      -0.2718
     57  CB        10.5290  -25.7550   34.3290 C.3    50  TYR50       0.0548
     58  CG        10.2590  -24.2900   34.6420 C.ar   50  TYR50      -0.0200
     59  CD1        9.0520  -23.8910   35.2190 C.ar   50  TYR50      -0.0009
     60  CD2       11.2000  -23.3140   34.3630 C.ar   50  TYR50      -0.0009
     61  CE1        8.7950  -22.5650   35.5020 C.ar   50  TYR50       0.0417
     62  CE2       10.9540  -21.9780   34.6490 C.ar   50  TYR50       0.0417
     63  CZ         9.7530  -21.6110   35.2170 C.ar   50  TYR50       0.1957
     64  OH         9.5060  -20.2820   35.4970 O.3    50  TYR50      -0.2866
     65  N          7.8030  -26.5990   33.2430 N.am   51  ASP51      -0.1974
     66  CA         6.3670  -26.5090   32.9590 C.3    51  ASP51       0.1709
     67  C          6.0890  -26.7440   31.4720 C.2    51  ASP51       0.2293
     68  O          5.2280  -26.0820   30.8960 O.2    51  ASP51      -0.2864
     69  CB         5.8100  -25.1400   33.3720 C.3    51  ASP51       0.1436
     70  CG         5.6620  -24.9840   34.8840 C.2    51  ASP51       0.3671
     71  OD1        6.1750  -25.8260   35.6500 O.co2  51  ASP51      -0.2456
     72  OD2        5.0320  -23.9930   35.3100 O.co2  51  ASP51      -0.2456
     73  N         12.8360  -34.4410   32.1540 N.3    90  LEU90      -0.1231
     74  CA        12.4560  -34.8890   33.5000 C.3    90  LEU90       0.1693
     75  C         10.9410  -34.9240   33.7380 C.2    90  LEU90       0.2593
     76  O         10.2690  -33.8980   33.6480 O.2    90  LEU90      -0.2718
     77  CB        13.1360  -34.0180   34.5610 C.3    90  LEU90       0.0284
     78  CG        12.7160  -34.2760   36.0110 C.3    90  LEU90       0.0019
     79  CD1       13.0470  -35.7280   36.4460 C.3    90  LEU90       0.0001
     80  CD2       13.3300  -33.2500   36.9450 C.3    90  LEU90       0.0001
     81  N         10.4110  -36.1010   34.0690 N.am   91  GLY91      -0.1942
     82  CA         8.9860  -36.2580   34.3290 C.3    91  GLY91       0.2014
     83  C          8.5950  -36.0620   35.7880 C.2    91  GLY91       0.2639
     84  O          9.3430  -36.4320   36.6840 O.2    91  GLY91      -0.2714
     85  N          7.4180  -35.4910   36.0310 N.am   92  GLY92      -0.1939
     86  CA         6.9790  -35.1930   37.3860 C.3    92  GLY92       0.2014
     87  C          5.5950  -35.7510   37.5960 C.2    92  GLY92       0.2639
     88  O          4.7010  -35.4110   36.8360 O.2    92  GLY92      -0.2714
     89  N          5.4130  -36.5880   38.6200 N.am   93  TYR93      -0.1959
     90  CA         4.2140  -37.4310   38.7360 C.3    93  TYR93       0.1771
     91  C          3.4750  -37.3350   40.0560 C.2    93  TYR93       0.2620
     92  O          3.9660  -36.7550   41.0160 O.2    93  TYR93      -0.2715
     93  CB         4.5610  -38.9060   38.4740 C.3    93  TYR93       0.0574
     94  CG         5.2090  -39.0920   37.1360 C.ar   93  TYR93      -0.0198
     95  CD1        4.4420  -39.3380   36.0070 C.ar   93  TYR93      -0.0009
     96  CD2        6.5880  -38.9650   36.9830 C.ar   93  TYR93      -0.0009
     97  CE1        5.0250  -39.4820   34.7740 C.ar   93  TYR93       0.0417
     98  CE2        7.1840  -39.1090   35.7350 C.ar   93  TYR93       0.0417
     99  CZ         6.3910  -39.3670   34.6420 C.ar   93  TYR93       0.1957
    100  OH         6.9580  -39.4980   33.4050 O.3    93  TYR93      -0.2866
    101  N          2.2790  -37.9130   40.0850 N.am   94  ASP94      -0.1957
    102  CA         1.4800  -37.9890   41.3000 C.3    94  ASP94       0.1840
    103  C          2.0710  -39.0350   42.2410 C.2    94  ASP94       0.2622
    104  O          2.0480  -40.2320   41.9510 O.2    94  ASP94      -0.2715
    105  CB         0.0300  -38.3390   40.9620 C.3    94  ASP94       0.1450
    106  CG        -0.9130  -38.0770   42.1100 C.2    94  ASP94       0.3671
    107  OD1       -0.8540  -38.8130   43.1200 O.co2  94  ASP94      -0.2456
    108  OD2       -1.7240  -37.1320   41.9970 O.co2  94  ASP94      -0.2456
    109  N          2.5980  -38.5720   43.3690 N.am   95  CYS95      -0.1968
    110  CA         3.3140  -39.4250   44.3070 C.3    95  CYS95       0.1712
    111  C          2.4590  -40.5220   44.9450 C.2    95  CYS95       0.2296
    112  O          2.9930  -41.4570   45.5510 O.2    95  CYS95      -0.2864
    113  CB         3.9440  -38.5640   45.3950 C.3    95  CYS95       0.0983
    114  SG         5.2890  -37.5570   44.7870 S.3    95  CYS95      -0.0798
    115  N          7.4010  -40.4470   42.2030 N.3   100  CYS100     -0.1221
    116  CA         7.2060  -39.0190   41.9970 C.3   100  CYS100      0.1808
    117  C          7.8260  -38.5160   40.6980 C.2   100  CYS100      0.2601
    118  O          7.4220  -37.4810   40.1820 O.2   100  CYS100     -0.2717
    119  CB         7.7660  -38.2100   43.1820 C.3   100  CYS100      0.0970
    120  SG         7.0650  -38.5780   44.8340 S.3   100  CYS100     -0.0800
    121  N          8.8070  -39.2330   40.1630 N.am  101  ALA101     -0.1979
    122  CA         9.5920  -38.6670   39.0590 C.3   101  ALA101      0.1597
    123  C         10.3380  -39.7060   38.2290 C.2   101  ALA101      0.2287
    124  O         10.5000  -40.8440   38.6660 O.2   101  ALA101     -0.2864
    125  CB        10.5660  -37.6070   39.5910 C.3   101  ALA101      0.0319
@<TRIPOS>BOND
     1    37    36    2
     2    27    26    1
     3    36    35    1
     4    34    35    1
     5    26    28    1
     6    26    25    1
     7    35    38    1
     8    32    31    2
     9    68    67    2
    10    31    30    1
    11    25    22    1
    12    67    66    1
    13    56    55    2
    14    24    23    2
    15    38    39    1
    16    53    54    1
    17    30    29    1
    18    30    33    1
    19    73    74    1
    20    23    29   am
    21    23    22    1
    22    47    48    2
    23    47    46    1
    24    22    21    1
    25    55    54    1
    26    55    65   am
    27    54    57    1
    28    66    65    1
    29    66    69    1
    30    39    40   ar
    31    39    41   ar
    32    40    42   ar
    33    69    70    1
    34    21    15   am
    35   100    99    1
    36    74    75    1
    37    74    77    1
    38    46    45    1
    39    46    49    1
    40    76    75    2
    41    75    81   am
    42    81    82    1
    43    13    14    1
    44    41    43   ar
    45    15    16    2
    46    15    14    1
    47    57    58    1
    48    82    83    1
    49    60    58   ar
    50    60    62   ar
    51    42    44   ar
    52    77    78    1
    53    51    50    1
    54    58    59   ar
    55    99    97   ar
    56    99    98   ar
    57    62    63   ar
    58    97    95   ar
    59    50    49    1
    60    50    52    1
    61    70    72   ar
    62    70    71   ar
    63    14    17    1
    64    63    64    1
    65    63    61   ar
    66    59    61   ar
    67    43    44   ar
    68    98    96   ar
    69    83    85   am
    70    83    84    2
    71    95    94   ar
    72    78    79    1
    73    78    80    1
    74    85    86    1
    75     4     3    2
    76     1     2    1
    77    17    18    1
    78     3     2    1
    79    88    87    2
    80    96    94   ar
    81     2     5    1
    82    94    93    1
    83    19    18    2
    84    86    87    1
    85    18    20   am
    86    87    89   am
    87   123   124    2
    88   123   122    1
    89     5     6    1
    90    93    90    1
    91    89    90    1
    92    90    91    1
    93   122   125    1
    94   122   121    1
    95     6     8   ar
    96     6     7   ar
    97     8    10   ar
    98    91   101   am
    99    91    92    2
   100   101   102    1
   101     7     9   ar
   102   121   117   am
   103   118   117    2
   104   117   116    1
   105    10    11   ar
   106   105   102    1
   107   105   106    1
   108     9    11   ar
   109   102   103    1
   110    11    12    1
   111   104   103    2
   112   116   115    1
   113   116   119    1
   114   108   106   ar
   115   106   107   ar
   116   103   109   am
   117   119   120    1
   118   109   110    1
   119   110   111    1
   120   110   113    1
   121   114   120    1
   122   114   113    1
   123   111   112    2
