@<TRIPOS>MOLECULE
tmp/4jo3B00.pdb
 144 139 0 0 0
SMALL
GASTEIGER

@<TRIPOS>ATOM
      1  N         18.2380   30.9820   54.1730 N.3    30  ASN30      -0.1240
      2  CA        18.8120   31.9100   55.1380 C.3    30  ASN30       0.1653
      3  C         20.3340   31.9610   55.0710 C.2    30  ASN30       0.2266
      4  O         20.9820   32.5900   55.9030 O.2    30  ASN30      -0.2867
      5  CB        18.3540   31.5540   56.5480 C.3    30  ASN30       0.1155
      6  CG        18.8740   30.2190   56.9970 C.2    30  ASN30       0.2627
      7  OD1       19.5250   30.1130   58.0400 O.2    30  ASN30      -0.2716
      8  ND2       18.6030   29.1830   56.2080 N.am   30  ASN30      -0.0877
      9  N         22.2410   36.4330   50.8430 N.3    33  TYR33      -0.1241
     10  CA        21.4340   37.5180   50.3280 C.3    33  TYR33       0.1605
     11  C         21.4010   37.3610   48.8160 C.2    33  TYR33       0.2264
     12  O         22.3550   36.8490   48.2120 O.2    33  TYR33      -0.2867
     13  CB        22.0220   38.8730   50.6910 C.3    33  TYR33       0.0534
     14  CG        21.8380   39.2560   52.1300 C.ar   33  TYR33      -0.0201
     15  CD1       20.8250   40.1180   52.5150 C.ar   33  TYR33      -0.0009
     16  CD2       22.6880   38.7630   53.1080 C.ar   33  TYR33      -0.0009
     17  CE1       20.6670   40.4780   53.8330 C.ar   33  TYR33       0.0417
     18  CE2       22.5370   39.1150   54.4230 C.ar   33  TYR33       0.0417
     19  CZ        21.5240   39.9700   54.7800 C.ar   33  TYR33       0.1957
     20  OH        21.3800   40.3220   56.0930 O.3    33  TYR33      -0.2866
     21  N         17.3260   39.3480   51.9550 N.3    52  TYR52      -0.1241
     22  CA        17.6490   38.1340   52.6840 C.3    52  TYR52       0.1605
     23  C         17.0180   36.8760   52.0770 C.2    52  TYR52       0.2264
     24  O         15.8100   36.8030   51.8780 O.2    52  TYR52      -0.2867
     25  CB        17.2090   38.3070   54.1380 C.3    52  TYR52       0.0534
     26  CG        17.7240   37.2480   55.0830 C.ar   52  TYR52      -0.0201
     27  CD1       19.0480   36.8380   55.0380 C.ar   52  TYR52      -0.0009
     28  CD2       16.8890   36.6760   56.0330 C.ar   52  TYR52      -0.0009
     29  CE1       19.5190   35.8710   55.8940 C.ar   52  TYR52       0.0417
     30  CE2       17.3500   35.7170   56.8950 C.ar   52  TYR52       0.0417
     31  CZ        18.6640   35.3140   56.8230 C.ar   52  TYR52       0.1957
     32  OH        19.1330   34.3540   57.6880 O.3    52  TYR52      -0.2866
     33  N         13.8590   33.6970   55.8390 N.3    55  GLY55      -0.1210
     34  CA        12.4370   33.9660   55.9410 C.3    55  GLY55       0.1956
     35  C         12.1020   35.3710   56.3930 C.2    55  GLY55       0.2611
     36  O         11.1010   35.9530   55.9660 O.2    55  GLY55      -0.2717
     37  N         12.9390   35.9180   57.2680 N.am   56  ARG56      -0.1979
     38  CA        12.7230   37.2680   57.7720 C.3    56  ARG56       0.1597
     39  C         12.8630   38.2810   56.6380 C.2    56  ARG56       0.2287
     40  O         13.6750   38.0960   55.7280 O.2    56  ARG56      -0.2864
     41  CB        13.7170   37.5810   58.8920 C.3    56  ARG56       0.0334
     42  CG        13.2310   38.6150   59.8970 C.3    56  ARG56       0.0492
     43  CD        14.2640   38.8080   60.9890 C.3    56  ARG56       0.2205
     44  NE        14.8070   37.5290   61.4340 N.pl3  56  ARG56      -0.0865
     45  CZ        14.2920   36.8020   62.4210 C.cat  56  ARG56       0.5346
     46  NH1       14.8560   35.6450   62.7610 N.pl3  56  ARG56       0.1354
     47  NH2       13.2160   37.2360   63.0710 N.pl3  56  ARG56       0.1354
     48  N         14.4550   41.1850   55.4030 N.3    58  ILE58      -0.1245
     49  CA        15.5540   42.1270   55.5630 C.3    58  ILE58       0.1561
     50  C         16.0560   42.6140   54.2010 C.2    58  ILE58       0.2260
     51  O         16.4760   41.8210   53.3650 O.2    58  ILE58      -0.2867
     52  CB        16.7120   41.4990   56.3430 C.3    58  ILE58       0.0252
     53  CG1       16.1670   40.5080   57.3750 C.3    58  ILE58       0.0019
     54  CG2       17.5550   42.5820   56.9870 C.3    58  ILE58       0.0019
     55  CD1       17.2270   39.9160   58.2740 C.3    58  ILE58       0.0001
     56  N         18.4400   45.7020   52.1200 N.3    60  PHE60      -0.1241
     57  CA        19.3990   46.7950   52.1690 C.3    60  PHE60       0.1605
     58  C         19.5290   47.4590   50.8100 C.2    60  PHE60       0.2264
     59  O         19.6210   46.7960   49.7730 O.2    60  PHE60      -0.2867
     60  CB        20.7610   46.3060   52.6630 C.3    60  PHE60       0.0534
     61  CG        20.7420   45.8240   54.0800 C.ar   60  PHE60      -0.0203
     62  CD1       20.7970   46.7280   55.1290 C.ar   60  PHE60      -0.0042
     63  CD2       20.6510   44.4760   54.3670 C.ar   60  PHE60      -0.0042
     64  CE1       20.7750   46.2980   56.4380 C.ar   60  PHE60      -0.0003
     65  CE2       20.6290   44.0390   55.6670 C.ar   60  PHE60      -0.0003
     66  CZ        20.6930   44.9490   56.7090 C.ar   60  PHE60      -0.0000
     67  N         27.5840   35.4700   53.4710 N.3   101  PHE101     -0.1241
     68  CA        27.8000   36.2120   54.6970 C.3   101  PHE101      0.1605
     69  C         28.0750   35.2570   55.8410 C.2   101  PHE101      0.2264
     70  O         27.6090   34.1170   55.8410 O.2   101  PHE101     -0.2867
     71  CB        26.6040   37.1090   55.0240 C.3   101  PHE101      0.0534
     72  CG        25.3720   36.3600   55.4350 C.ar  101  PHE101     -0.0203
     73  CD1       25.1430   36.0580   56.7680 C.ar  101  PHE101     -0.0042
     74  CD2       24.4350   35.9760   54.4960 C.ar  101  PHE101     -0.0042
     75  CE1       24.0020   35.3740   57.1560 C.ar  101  PHE101     -0.0003
     76  CE2       23.2850   35.2920   54.8710 C.ar  101  PHE101     -0.0003
     77  CZ        23.0670   34.9870   56.2060 C.ar  101  PHE101     -0.0000
     78  N         27.3770   34.8120   59.8190 N.3   103  ALA103     -0.1231
     79  CA        26.5300   35.2940   60.9070 C.3   103  ALA103      0.1694
     80  C         27.3340   35.3960   62.2020 C.2   103  ALA103      0.2591
     81  O         27.4240   34.4300   62.9520 O.2   103  ALA103     -0.2718
     82  CB        25.3390   34.3680   61.1020 C.3   103  ALA103      0.0304
     83  N         27.9340   36.5530   62.4610 N.am  104  VAL104     -0.1980
     84  CA        28.5960   36.7590   63.7400 C.3   104  VAL104      0.1595
     85  C         27.5260   37.0580   64.7780 C.2   104  VAL104      0.2287
     86  O         26.4320   37.5110   64.4410 O.2   104  VAL104     -0.2864
     87  CB        29.5940   37.9310   63.7190 C.3   104  VAL104      0.0276
     88  CG1       30.5870   37.7710   62.5910 C.3   104  VAL104      0.0022
     89  CG2       28.8540   39.2490   63.6140 C.3   104  VAL104      0.0022
     90  N         26.4320   39.0890   68.4080 N.3   106  VAL106     -0.1245
     91  CA        26.7140   40.1460   69.3710 C.3   106  VAL106      0.1561
     92  C         25.8230   39.8580   70.5910 C.2   106  VAL106      0.2260
     93  O         25.1680   38.8150   70.6460 O.2   106  VAL106     -0.2867
     94  CB        26.4720   41.5560   68.7680 C.3   106  VAL106      0.0252
     95  CG1       26.9350   42.6470   69.7190 C.3   106  VAL106      0.0019
     96  CG2       27.2010   41.6930   67.4350 C.3   106  VAL106      0.0019
     97  N         21.7220   38.8070   69.7970 N.3   109  GLY109     -0.1210
     98  CA        21.2580   38.4700   68.4600 C.3   109  GLY109      0.1956
     99  C         22.4020   38.3200   67.4730 C.2   109  GLY109      0.2613
    100  O         23.4940   38.8470   67.6890 O.2   109  GLY109     -0.2717
    101  N         22.1560   37.5890   66.3890 N.am  110  THR110     -0.1938
    102  CA        23.1690   37.4020   65.3540 C.3   110  THR110      0.2028
    103  C         23.0260   38.4270   64.2260 C.2   110  THR110      0.2642
    104  O         21.9190   38.8570   63.8920 O.2   110  THR110     -0.2714
    105  CB        23.1520   35.9680   64.7830 C.3   110  THR110      0.1808
    106  OG1       21.7990   35.5610   64.5460 O.3   110  THR110     -0.2208
    107  CG2       23.7860   35.0000   65.7620 C.3   110  THR110      0.0379
    108  N         24.1560   38.8190   63.6500 N.am  111  TYR111     -0.1959
    109  CA        24.1680   39.7850   62.5610 C.3   111  TYR111      0.1771
    110  C         24.9630   39.2620   61.3700 C.2   111  TYR111      0.2620
    111  O         25.8750   38.4520   61.5350 O.2   111  TYR111     -0.2715
    112  CB        24.7480   41.1120   63.0460 C.3   111  TYR111      0.0574
    113  CG        23.9520   41.7300   64.1720 C.ar  111  TYR111     -0.0198
    114  CD1       22.9140   42.6110   63.9050 C.ar  111  TYR111     -0.0009
    115  CD2       24.2300   41.4270   65.5000 C.ar  111  TYR111     -0.0009
    116  CE1       22.1800   43.1780   64.9260 C.ar  111  TYR111      0.0417
    117  CE2       23.5020   41.9920   66.5300 C.ar  111  TYR111      0.0417
    118  CZ        22.4770   42.8680   66.2360 C.ar  111  TYR111      0.1957
    119  OH        21.7370   43.4430   67.2420 O.3   111  TYR111     -0.2866
    120  N         24.6050   39.7210   60.1710 N.am  112  SER112     -0.1936
    121  CA        25.3170   39.3290   58.9590 C.3   112  SER112      0.2055
    122  C         26.4640   40.2810   58.6950 C.2   112  SER112      0.2643
    123  O         26.3500   41.4850   58.9440 O.2   112  SER112     -0.2714
    124  CB        24.3800   39.2890   57.7460 C.3   112  SER112      0.2130
    125  OG        23.8260   40.5590   57.4670 O.3   112  SER112     -0.2179
    126  N         27.5730   39.7150   58.2230 N.am  113  THR113     -0.1950
    127  CA        28.7220   40.4750   57.7440 C.3   113  THR113      0.1897
    128  C         29.5750   39.5600   56.8530 C.2   113  THR113      0.2313
    129  O         29.1440   38.4550   56.4990 O.2   113  THR113     -0.2863
    130  CB        29.5540   41.0650   58.9050 C.3   113  THR113      0.1794
    131  OG1       30.5470   41.9650   58.3900 O.3   113  THR113     -0.2208
    132  CG2       30.2250   39.9630   59.7070 C.3   113  THR113      0.0378
    133  N         30.3990   39.9500   53.5690 N.3   115  TYR115     -0.1241
    134  CA        29.6910   39.8020   52.3120 C.3   115  TYR115      0.1605
    135  C         30.6420   39.6570   51.1310 C.2   115  TYR115      0.2264
    136  O         31.5700   40.4590   50.9500 O.2   115  TYR115     -0.2867
    137  CB        28.8160   41.0210   52.0530 C.3   115  TYR115      0.0534
    138  CG        27.8550   41.3250   53.1550 C.ar  115  TYR115     -0.0201
    139  CD1       26.6570   40.6510   53.2500 C.ar  115  TYR115     -0.0009
    140  CD2       28.1430   42.2960   54.1040 C.ar  115  TYR115     -0.0009
    141  CE1       25.7710   40.9300   54.2520 C.ar  115  TYR115      0.0417
    142  CE2       27.2550   42.5850   55.1150 C.ar  115  TYR115      0.0417
    143  CZ        26.0730   41.8990   55.1830 C.ar  115  TYR115      0.1957
    144  OH        25.1750   42.1730   56.1800 O.3   115  TYR115     -0.2866
@<TRIPOS>BOND
     1    12    11    2
     2    11    10    1
     3    59    58    2
     4    10    13    1
     5    10     9    1
     6    13    14    1
     7    58    57    1
     8   136   135    2
     9   135   134    1
    10    24    23    2
    11    21    22    1
    12   137   134    1
    13   137   138    1
    14    23    22    1
    15    56    57    1
    16    14    15   ar
    17    14    16   ar
    18    57    60    1
    19   134   133    1
    20    15    17   ar
    21    60    61    1
    22    22    25    1
    23    16    18   ar
    24   138   139   ar
    25   138   140   ar
    26   139   141   ar
    27    51    50    2
    28    67    68    1
    29    17    19   ar
    30    61    63   ar
    31    61    62   ar
    32   140   142   ar
    33    25    26    1
    34     1     2    1
    35    50    49    1
    36   141   143   ar
    37    63    65   ar
    38    18    19   ar
    39    74    76   ar
    40    74    72   ar
    41    68    71    1
    42    68    69    1
    43    19    20    1
    44    76    77   ar
    45    71    72    1
    46    27    26   ar
    47    27    29   ar
    48     3     2    1
    49     3     4    2
    50    26    28   ar
    51   142   143   ar
    52    62    64   ar
    53     2     5    1
    54   143   144    1
    55    48    49    1
    56    72    73   ar
    57    49    52    1
    58    65    66   ar
    59    40    39    2
    60    33    34    1
    61    69    70    2
    62    29    31   ar
    63    34    35    1
    64    36    35    2
    65    28    30   ar
    66    77    75   ar
    67     8     6   am
    68    52    54    1
    69    52    53    1
    70    35    37   am
    71    64    66   ar
    72   129   128    2
    73     5     6    1
    74    39    38    1
    75    73    75   ar
    76    31    30   ar
    77    31    32    1
    78   128   127    1
    79     6     7    2
    80    37    38    1
    81    53    55    1
    82   125   124    1
    83   127   126    1
    84   127   130    1
    85   124   121    1
    86    38    41    1
    87   126   122   am
    88   131   130    1
    89   122   123    2
    90   122   121    1
    91    41    42    1
    92   130   132    1
    93   121   120    1
    94    78    79    1
    95    42    43    1
    96   120   110   am
    97    79    82    1
    98    79    80    1
    99    43    44    1
   100   110   111    2
   101   110   109    1
   102    44    45    2
   103    80    83   am
   104    80    81    2
   105    45    46    1
   106    45    47    1
   107    83    84    1
   108   109   112    1
   109   109   108    1
   110    88    87    1
   111   112   113    1
   112    89    87    1
   113   108   103   am
   114    87    84    1
   115    84    85    1
   116   104   103    2
   117   114   113   ar
   118   114   116   ar
   119   113   115   ar
   120   103   102    1
   121    86    85    2
   122   106   105    1
   123   105   102    1
   124   105   107    1
   125   116   118   ar
   126   102   101    1
   127   115   117   ar
   128   118   117   ar
   129   118   119    1
   130   101    99   am
   131    96    94    1
   132    99   100    2
   133    99    98    1
   134    90    91    1
   135    98    97    1
   136    94    91    1
   137    94    95    1
   138    91    92    1
   139    92    93    2
