@<TRIPOS>MOLECULE
tmp/4jo4D00.pdb
 107 104 0 0 0
SMALL
GASTEIGER

@<TRIPOS>ATOM
      1  N         22.4050   36.7250   50.8370 N.3    33  TYR33      -0.1241
      2  CA        21.4850   37.6910   50.2620 C.3    33  TYR33       0.1605
      3  C         21.4950   37.5230   48.7470 C.2    33  TYR33       0.2264
      4  O         22.4350   36.9510   48.1890 O.2    33  TYR33      -0.2867
      5  CB        21.8800   39.1260   50.6400 C.3    33  TYR33       0.0534
      6  CG        21.7830   39.4550   52.1210 C.ar   33  TYR33      -0.0201
      7  CD1       20.7890   40.3000   52.6070 C.ar   33  TYR33      -0.0009
      8  CD2       22.6950   38.9310   53.0270 C.ar   33  TYR33      -0.0009
      9  CE1       20.7070   40.6030   53.9580 C.ar   33  TYR33       0.0417
     10  CE2       22.6230   39.2270   54.3720 C.ar   33  TYR33       0.0417
     11  CZ        21.6290   40.0640   54.8340 C.ar   33  TYR33       0.1957
     12  OH        21.5690   40.3570   56.1770 O.3    33  TYR33      -0.2866
     13  N         17.5500   39.5380   51.7890 N.3    52  TYR52      -0.1241
     14  CA        17.8700   38.3190   52.5290 C.3    52  TYR52       0.1605
     15  C         17.2110   37.0820   51.9260 C.2    52  TYR52       0.2264
     16  O         16.0330   37.0970   51.5720 O.2    52  TYR52      -0.2867
     17  CB        17.4270   38.4970   53.9830 C.3    52  TYR52       0.0534
     18  CG        17.9300   37.4520   54.9550 C.ar   52  TYR52      -0.0201
     19  CD1       19.2740   37.1190   55.0170 C.ar   52  TYR52      -0.0009
     20  CD2       17.0610   36.8290   55.8390 C.ar   52  TYR52      -0.0009
     21  CE1       19.7300   36.1820   55.9080 C.ar   52  TYR52       0.0417
     22  CE2       17.5110   35.8860   56.7360 C.ar   52  TYR52       0.0417
     23  CZ        18.8420   35.5670   56.7680 C.ar   52  TYR52       0.1957
     24  OH        19.2930   34.6310   57.6720 O.3    52  TYR52      -0.2866
     25  N         13.2130   35.9300   57.3440 N.3    56  ARG56      -0.1245
     26  CA        13.0450   37.3020   57.8040 C.3    56  ARG56       0.1563
     27  C         13.0810   38.2530   56.6050 C.2    56  ARG56       0.2260
     28  O         13.8040   38.0260   55.6330 O.2    56  ARG56      -0.2867
     29  CB        14.1520   37.6830   58.7960 C.3    56  ARG56       0.0307
     30  CG        13.9180   37.2530   60.2490 C.3    56  ARG56       0.0489
     31  CD        15.1590   37.5120   61.1030 C.3    56  ARG56       0.2205
     32  NE        16.2350   36.5670   60.7950 N.pl3  56  ARG56      -0.0865
     33  CZ        17.5130   36.7230   61.1450 C.cat  56  ARG56       0.5346
     34  NH1       18.4090   35.7970   60.8120 N.pl3  56  ARG56       0.1354
     35  NH2       17.9030   37.8020   61.8200 N.pl3  56  ARG56       0.1354
     36  N         14.5820   41.2450   55.3460 N.3    58  ILE58      -0.1245
     37  CA        15.6600   42.1950   55.5560 C.3    58  ILE58       0.1561
     38  C         16.2140   42.6610   54.2230 C.2    58  ILE58       0.2260
     39  O         16.6220   41.8480   53.3930 O.2    58  ILE58      -0.2867
     40  CB        16.8010   41.5740   56.3550 C.3    58  ILE58       0.0252
     41  CG1       16.2540   40.8330   57.5780 C.3    58  ILE58       0.0019
     42  CG2       17.8260   42.6450   56.7430 C.3    58  ILE58       0.0019
     43  CD1       17.3310   40.1440   58.3950 C.3    58  ILE58       0.0001
     44  N         18.6070   45.9130   52.1590 N.3    60  PHE60      -0.1241
     45  CA        19.5160   47.0470   52.2230 C.3    60  PHE60       0.1605
     46  C         19.6070   47.7190   50.8590 C.2    60  PHE60       0.2264
     47  O         19.5880   47.0450   49.8270 O.2    60  PHE60      -0.2867
     48  CB        20.9110   46.6050   52.6750 C.3    60  PHE60       0.0534
     49  CG        20.9490   46.0300   54.0660 C.ar   60  PHE60      -0.0203
     50  CD1       21.0850   46.8590   55.1730 C.ar   60  PHE60      -0.0042
     51  CD2       20.8500   44.6620   54.2680 C.ar   60  PHE60      -0.0042
     52  CE1       21.1230   46.3330   56.4610 C.ar   60  PHE60      -0.0003
     53  CE2       20.8880   44.1290   55.5370 C.ar   60  PHE60      -0.0003
     54  CZ        21.0250   44.9680   56.6410 C.ar   60  PHE60      -0.0000
     55  N         27.8620   35.6060   53.2580 N.3   101  PHE101     -0.1241
     56  CA        28.1280   36.3780   54.4650 C.3   101  PHE101      0.1605
     57  C         28.4010   35.4850   55.6690 C.2   101  PHE101      0.2264
     58  O         27.9260   34.3560   55.7390 O.2   101  PHE101     -0.2867
     59  CB        26.9390   37.2790   54.7770 C.3   101  PHE101      0.0534
     60  CG        25.7410   36.5320   55.2560 C.ar  101  PHE101     -0.0203
     61  CD1       25.5920   36.2290   56.5990 C.ar  101  PHE101     -0.0042
     62  CD2       24.7710   36.1170   54.3730 C.ar  101  PHE101     -0.0042
     63  CE1       24.4890   35.5270   57.0480 C.ar  101  PHE101     -0.0003
     64  CE2       23.6670   35.4180   54.8110 C.ar  101  PHE101     -0.0003
     65  CZ        23.5260   35.1210   56.1520 C.ar  101  PHE101     -0.0000
     66  N         27.7420   34.9220   59.6130 N.3   103  ALA103     -0.1245
     67  CA        26.9680   35.2690   60.7950 C.3   103  ALA103      0.1562
     68  C         27.9360   35.5540   61.9460 C.2   103  ALA103      0.2260
     69  O         28.8300   34.7590   62.2310 O.2   103  ALA103     -0.2867
     70  CB        26.0080   34.1470   61.1550 C.3   103  ALA103      0.0290
     71  N         22.2140   38.3900   66.5400 N.3   110  THR110     -0.1203
     72  CA        23.3980   38.0890   65.7480 C.3   110  THR110      0.1994
     73  C         23.2100   38.7000   64.3630 C.2   110  THR110      0.2618
     74  O         22.0960   38.7110   63.8360 O.2   110  THR110     -0.2717
     75  CB        23.6210   36.5720   65.6160 C.3   110  THR110      0.1784
     76  OG1       24.6690   36.3260   64.6720 O.3   110  THR110     -0.2211
     77  CG2       22.3480   35.8810   65.1400 C.3   110  THR110      0.0376
     78  N         24.2900   39.2070   63.7740 N.am  111  TYR111     -0.1961
     79  CA        24.1830   39.9610   62.5260 C.3   111  TYR111      0.1771
     80  C         25.0880   39.4510   61.3950 C.2   111  TYR111      0.2620
     81  O         26.1510   38.8810   61.6370 O.2   111  TYR111     -0.2715
     82  CB        24.4880   41.4320   62.7910 C.3   111  TYR111      0.0574
     83  CG        25.9210   41.6770   63.1940 C.ar  111  TYR111     -0.0198
     84  CD1       26.8440   42.1530   62.2760 C.ar  111  TYR111     -0.0009
     85  CD2       26.3540   41.4180   64.4900 C.ar  111  TYR111     -0.0009
     86  CE1       28.1620   42.3780   62.6330 C.ar  111  TYR111      0.0417
     87  CE2       27.6740   41.6360   64.8610 C.ar  111  TYR111      0.0417
     88  CZ        28.5750   42.1180   63.9250 C.ar  111  TYR111      0.1957
     89  OH        29.8900   42.3410   64.2770 O.3   111  TYR111     -0.2866
     90  N         24.6570   39.6820   60.1570 N.am  112  SER112     -0.1950
     91  CA        25.4360   39.3090   58.9790 C.3   112  SER112      0.1924
     92  C         26.5430   40.3160   58.6820 C.2   112  SER112      0.2314
     93  O         26.3580   41.5230   58.8350 O.2   112  SER112     -0.2863
     94  CB        24.5210   39.1710   57.7620 C.3   112  SER112      0.2116
     95  OG        23.7960   40.3710   57.5290 O.3   112  SER112     -0.2180
     96  N         30.4850   40.4300   53.6720 N.3   115  TYR115     -0.1241
     97  CA        29.7430   40.2660   52.4300 C.3   115  TYR115      0.1605
     98  C         30.7000   40.1600   51.2490 C.2   115  TYR115      0.2264
     99  O         31.6430   40.9520   51.1300 O.2   115  TYR115     -0.2867
    100  CB        28.8000   41.4460   52.2070 C.3   115  TYR115      0.0534
    101  CG        27.8160   41.6940   53.3240 C.ar  115  TYR115     -0.0201
    102  CD1       26.6470   40.9580   53.4190 C.ar  115  TYR115     -0.0009
    103  CD2       28.0500   42.6800   54.2750 C.ar  115  TYR115     -0.0009
    104  CE1       25.7390   41.1890   54.4290 C.ar  115  TYR115      0.0417
    105  CE2       27.1470   42.9190   55.2990 C.ar  115  TYR115      0.0417
    106  CZ        25.9940   42.1730   55.3670 C.ar  115  TYR115      0.1957
    107  OH        25.0930   42.4090   56.3780 O.3   115  TYR115     -0.2866
@<TRIPOS>BOND
     1     4     3    2
     2     3     2    1
     3    47    46    2
     4     2     5    1
     5     2     1    1
     6     5     6    1
     7    46    45    1
     8    99    98    2
     9    98    97    1
    10    16    15    2
    11    13    14    1
    12    15    14    1
    13     6     7   ar
    14     6     8   ar
    15    44    45    1
    16   100    97    1
    17   100   101    1
    18    45    48    1
    19    97    96    1
    20    14    17    1
    21     7     9   ar
    22    48    49    1
    23     8    10   ar
    24    55    56    1
    25   101   102   ar
    26   101   103   ar
    27    39    38    2
    28   102   104   ar
    29     9    11   ar
    30    17    18    1
    31    49    51   ar
    32    49    50   ar
    33    38    37    1
    34    51    53   ar
    35   103   105   ar
    36    10    11   ar
    37    62    64   ar
    38    62    60   ar
    39   104   106   ar
    40    56    59    1
    41    56    57    1
    42    59    60    1
    43    64    65   ar
    44    11    12    1
    45    18    19   ar
    46    18    20   ar
    47    19    21   ar
    48    50    52   ar
    49    60    61   ar
    50   105   106   ar
    51    36    37    1
    52   106   107    1
    53    53    54   ar
    54    37    40    1
    55    28    27    2
    56    57    58    2
    57    20    22   ar
    58    21    23   ar
    59    65    63   ar
    60    40    42    1
    61    40    41    1
    62    52    54   ar
    63    61    63   ar
    64    27    26    1
    65    22    23   ar
    66    23    24    1
    67    25    26    1
    68    95    94    1
    69    41    43    1
    70    94    91    1
    71    26    29    1
    72    92    93    2
    73    92    91    1
    74    29    30    1
    75    91    90    1
    76    66    67    1
    77    90    80   am
    78    30    31    1
    79    67    70    1
    80    67    68    1
    81    32    31    1
    82    32    33    2
    83    34    33    1
    84    33    35    1
    85    80    81    2
    86    80    79    1
    87    68    69    2
    88    84    86   ar
    89    84    83   ar
    90    79    82    1
    91    79    78    1
    92    86    88   ar
    93    82    83    1
    94    83    85   ar
    95    78    73   am
    96    74    73    2
    97    88    89    1
    98    88    87   ar
    99    73    72    1
   100    85    87   ar
   101    76    75    1
   102    77    75    1
   103    75    72    1
   104    72    71    1
