@<TRIPOS>MOLECULE
tmp/4jo4B00.pdb
 115 111 0 0 0
SMALL
GASTEIGER

@<TRIPOS>ATOM
      1  N         55.4570   27.0850   41.1860 N.3    30  ASN30      -0.1240
      2  CA        54.5850   26.3290   42.0800 C.3    30  ASN30       0.1653
      3  C         53.1020   26.6440   41.9390 C.2    30  ASN30       0.2266
      4  O         52.2920   26.1120   42.6920 O.2    30  ASN30      -0.2867
      5  CB        55.0010   26.5150   43.5400 C.3    30  ASN30       0.1155
      6  CG        55.0430   27.9760   43.9570 C.2    30  ASN30       0.2627
      7  OD1       54.5340   28.8550   43.2580 O.2    30  ASN30      -0.2716
      8  ND2       55.6590   28.2400   45.1030 N.am   30  ASN30      -0.0877
      9  N         50.8110   22.5540   37.7920 N.3    33  TYR33      -0.1241
     10  CA        51.4420   21.3460   37.2570 C.3    33  TYR33       0.1605
     11  C         51.4270   21.4520   35.7340 C.2    33  TYR33       0.2264
     12  O         50.5030   22.0310   35.1690 O.2    33  TYR33      -0.2867
     13  CB        50.6900   20.0780   37.6670 C.3    33  TYR33       0.0534
     14  CG        50.8330   19.6810   39.1220 C.ar   33  TYR33      -0.0201
     15  CD1       51.6210   18.5930   39.4960 C.ar   33  TYR33      -0.0009
     16  CD2       50.1730   20.3840   40.1160 C.ar   33  TYR33      -0.0009
     17  CE1       51.7430   18.2270   40.8250 C.ar   33  TYR33       0.0417
     18  CE2       50.2920   20.0250   41.4470 C.ar   33  TYR33       0.0417
     19  CZ        51.0750   18.9520   41.7920 C.ar   33  TYR33       0.1957
     20  OH        51.1730   18.6060   43.1140 O.3    33  TYR33      -0.2866
     21  N         55.0000   18.8180   38.8950 N.3    52  TYR52      -0.1241
     22  CA        54.8740   20.0600   39.6660 C.3    52  TYR52       0.1605
     23  C         55.8010   21.1630   39.1570 C.2    52  TYR52       0.2264
     24  O         56.9860   20.9210   38.9130 O.2    52  TYR52      -0.2867
     25  CB        55.2010   19.7690   41.1290 C.3    52  TYR52       0.0534
     26  CG        54.9130   20.8850   42.1090 C.ar   52  TYR52      -0.0201
     27  CD1       53.7020   21.5740   42.0840 C.ar   52  TYR52      -0.0009
     28  CD2       55.8300   21.2050   43.1070 C.ar   52  TYR52      -0.0009
     29  CE1       53.4270   22.5770   43.0040 C.ar   52  TYR52       0.0417
     30  CE2       55.5660   22.2090   44.0370 C.ar   52  TYR52       0.0417
     31  CZ        54.3670   22.8860   43.9820 C.ar   52  TYR52       0.1957
     32  OH        54.1120   23.8740   44.9060 O.3    52  TYR52      -0.2866
     33  N         59.9010   21.6490   44.6680 N.3    56  ARG56      -0.1245
     34  CA        59.8080   20.2260   44.9870 C.3    56  ARG56       0.1563
     35  C         59.6640   19.3680   43.7290 C.2    56  ARG56       0.2260
     36  O         58.9950   19.7570   42.7630 O.2    56  ARG56      -0.2867
     37  CB        58.6380   19.9590   45.9360 C.3    56  ARG56       0.0307
     38  CG        58.9350   20.2740   47.3900 C.3    56  ARG56       0.0489
     39  CD        57.6950   20.1040   48.2630 C.3    56  ARG56       0.2205
     40  NE        56.7520   21.2010   48.0620 N.pl3  56  ARG56      -0.0865
     41  CZ        55.5040   21.2140   48.5220 C.cat  56  ARG56       0.5346
     42  NH1       54.7230   22.2630   48.2800 N.pl3  56  ARG56       0.1354
     43  NH2       55.0310   20.1790   49.2120 N.pl3  56  ARG56       0.1354
     44  N         57.8040   16.5990   42.3720 N.3    58  ILE58      -0.1245
     45  CA        56.5550   15.8720   42.5680 C.3    58  ILE58       0.1561
     46  C         55.9920   15.5250   41.1890 C.2    58  ILE58       0.2260
     47  O         55.6390   16.4110   40.4120 O.2    58  ILE58      -0.2867
     48  CB        55.5180   16.7420   43.3210 C.3    58  ILE58       0.0252
     49  CG1       56.1270   17.3370   44.5860 C.3    58  ILE58       0.0019
     50  CG2       54.2660   15.9560   43.6600 C.3    58  ILE58       0.0019
     51  CD1       55.1440   18.1480   45.3870 C.3    58  ILE58       0.0001
     52  N         53.2270   12.8110   39.0590 N.3    60  PHE60      -0.1241
     53  CA        52.1750   11.8060   39.0660 C.3    60  PHE60       0.1605
     54  C         52.0290   11.1690   37.6900 C.2    60  PHE60       0.2264
     55  O         52.1630   11.8620   36.6670 O.2    60  PHE60      -0.2867
     56  CB        50.8560   12.4280   39.5210 C.3    60  PHE60       0.0534
     57  CG        50.9190   12.9910   40.8990 C.ar   60  PHE60      -0.0203
     58  CD1       50.8290   12.1560   42.0010 C.ar   60  PHE60      -0.0042
     59  CD2       51.1040   14.3450   41.0990 C.ar   60  PHE60      -0.0042
     60  CE1       50.9110   12.6660   43.2830 C.ar   60  PHE60      -0.0003
     61  CE2       51.1830   14.8600   42.3680 C.ar   60  PHE60      -0.0003
     62  CZ        51.0880   14.0190   43.4670 C.ar   60  PHE60      -0.0000
     63  N         45.4000   24.0680   40.2880 N.3   101  PHE101     -0.1241
     64  CA        44.9850   23.2910   41.4530 C.3   101  PHE101      0.1605
     65  C         44.6950   24.1620   42.6720 C.2   101  PHE101      0.2264
     66  O         45.1110   25.3220   42.7210 O.2   101  PHE101     -0.2867
     67  CB        46.0530   22.2440   41.8060 C.3   101  PHE101      0.0534
     68  CG        47.3660   22.8360   42.2640 C.ar  101  PHE101     -0.0203
     69  CD1       47.6200   23.0300   43.6170 C.ar  101  PHE101     -0.0042
     70  CD2       48.3480   23.1950   41.3420 C.ar  101  PHE101     -0.0042
     71  CE1       48.8310   23.5720   44.0510 C.ar  101  PHE101     -0.0003
     72  CE2       49.5600   23.7450   41.7630 C.ar  101  PHE101     -0.0003
     73  CZ        49.8030   23.9290   43.1200 C.ar  101  PHE101     -0.0000
     74  N         45.4670   24.4540   46.6980 N.3   103  ALA103     -0.1245
     75  CA        46.1790   24.0010   47.8890 C.3   103  ALA103      0.1562
     76  C         45.1550   23.9260   49.0150 C.2   103  ALA103      0.2260
     77  O         44.4430   24.8890   49.2800 O.2   103  ALA103     -0.2867
     78  CB        47.3130   24.9500   48.2440 C.3   103  ALA103      0.0290
     79  N         49.6760   20.6290   53.6770 N.3   110  THR110     -0.1203
     80  CA        48.8380   21.0910   52.5860 C.3   110  THR110      0.1994
     81  C         49.0230   20.1810   51.3620 C.2   110  THR110      0.2618
     82  O         50.1230   19.6990   51.0860 O.2   110  THR110     -0.2717
     83  CB        49.1250   22.5870   52.2540 C.3   110  THR110      0.1784
     84  OG1       49.7650   22.7060   50.9790 O.3   110  THR110     -0.2211
     85  CG2       50.0140   23.2140   53.3200 C.3   110  THR110      0.0376
     86  N         47.9330   19.9260   50.6490 N.am  111  TYR111     -0.1961
     87  CA        47.9980   19.0830   49.4660 C.3   111  TYR111      0.1771
     88  C         47.2290   19.6970   48.3020 C.2   111  TYR111      0.2620
     89  O         46.3790   20.5780   48.4860 O.2   111  TYR111     -0.2715
     90  CB        47.4890   17.6700   49.7660 C.3   111  TYR111      0.0574
     91  CG        45.9960   17.5700   50.0120 C.ar  111  TYR111     -0.0198
     92  CD1       45.4510   17.8100   51.2780 C.ar  111  TYR111     -0.0009
     93  CD2       45.1310   17.2100   48.9860 C.ar  111  TYR111     -0.0009
     94  CE1       44.0760   17.7080   51.5020 C.ar  111  TYR111      0.0417
     95  CE2       43.7590   17.1010   49.1980 C.ar  111  TYR111      0.0417
     96  CZ        43.2390   17.3510   50.4540 C.ar  111  TYR111      0.1957
     97  OH        41.8790   17.2410   50.6450 O.3   111  TYR111     -0.2866
     98  N         47.5480   19.2360   47.0980 N.am  112  SER112     -0.1950
     99  CA        46.8960   19.7530   45.9170 C.3   112  SER112      0.1924
    100  C         45.6780   18.9140   45.5690 C.2   112  SER112      0.2314
    101  O         45.7000   17.6790   45.6580 O.2   112  SER112     -0.2863
    102  CB        47.8740   19.8310   44.7450 C.3   112  SER112      0.2116
    103  OG        48.4660   18.5730   44.4700 O.3   112  SER112     -0.2180
    104  N         42.0530   19.6580   40.5360 N.3   115  TYR115     -0.1241
    105  CA        42.8350   19.7610   39.3100 C.3   115  TYR115      0.1605
    106  C         41.9550   20.0240   38.0960 C.2   115  TYR115      0.2264
    107  O         40.9690   19.3310   37.8760 O.2   115  TYR115     -0.2867
    108  CB        43.5870   18.4540   39.0720 C.3   115  TYR115      0.0534
    109  CG        44.5470   18.0480   40.1640 C.ar  115  TYR115     -0.0201
    110  CD1       45.8110   18.6160   40.2510 C.ar  115  TYR115     -0.0009
    111  CD2       44.2020   17.0690   41.0910 C.ar  115  TYR115     -0.0009
    112  CE1       46.7150   18.2250   41.2450 C.ar  115  TYR115      0.0417
    113  CE2       45.0990   16.6700   42.0910 C.ar  115  TYR115      0.0417
    114  CZ        46.3460   17.2500   42.1600 C.ar  115  TYR115      0.1957
    115  OH        47.2300   16.8560   43.1290 O.3   115  TYR115     -0.2866
@<TRIPOS>BOND
     1    12    11    2
     2    11    10    1
     3    55    54    2
     4    10    13    1
     5    10     9    1
     6    13    14    1
     7    54    53    1
     8   107   106    2
     9   106   105    1
    10    21    22    1
    11    24    23    2
    12    52    53    1
    13    53    56    1
    14   108   105    1
    15   108   109    1
    16    14    15   ar
    17    14    16   ar
    18    23    22    1
    19   105   104    1
    20    15    17   ar
    21    56    57    1
    22    22    25    1
    23    16    18   ar
    24   109   110   ar
    25   109   111   ar
    26   110   112   ar
    27    63    64    1
    28    47    46    2
    29    17    19   ar
    30    57    59   ar
    31    57    58   ar
    32   111   113   ar
    33    59    61   ar
    34    25    26    1
    35     1     2    1
    36    46    45    1
    37   112   114   ar
    38    70    72   ar
    39    70    68   ar
    40    18    19   ar
    41    64    67    1
    42    64    65    1
    43    72    73   ar
    44    19    20    1
    45    67    68    1
    46     3     2    1
    47     3     4    2
    48    58    60   ar
    49     2     5    1
    50    27    26   ar
    51    27    29   ar
    52   113   114   ar
    53    26    28   ar
    54   114   115    1
    55    68    69   ar
    56    61    62   ar
    57    44    45    1
    58    45    48    1
    59    65    66    2
    60    36    35    2
    61    29    31   ar
    62    28    30   ar
    63    73    71   ar
    64     7     6    2
    65    60    62   ar
    66    48    50    1
    67    48    49    1
    68     5     6    1
    69    69    71   ar
    70    35    34    1
    71     6     8   am
    72    31    30   ar
    73    31    32    1
    74   103   102    1
    75    49    51    1
    76    33    34    1
    77   102    99    1
    78    34    37    1
    79   100   101    2
    80   100    99    1
    81    99    98    1
    82    37    38    1
    83    74    75    1
    84    98    88   am
    85    38    39    1
    86    75    78    1
    87    75    76    1
    88    40    39    1
    89    40    41    2
    90    42    41    1
    91    88    89    2
    92    88    87    1
    93    41    43    1
    94    93    95   ar
    95    93    91   ar
    96    76    77    2
    97    95    96   ar
    98    87    90    1
    99    87    86    1
   100    90    91    1
   101    91    92   ar
   102    96    97    1
   103    96    94   ar
   104    86    81   am
   105    84    83    1
   106    82    81    2
   107    92    94   ar
   108    81    80    1
   109    83    80    1
   110    83    85    1
   111    80    79    1
