@<TRIPOS>MOLECULE
tmp/4joaA00.pdb
 173 162 0 0 0
SMALL
GASTEIGER

@<TRIPOS>ATOM
      1  N          1.2410   10.7290   51.0320 N.3    16  LEU16      -0.1231
      2  CA         1.5240    9.7370   49.9920 C.3    16  LEU16       0.1693
      3  C          2.8930    9.0950   50.1920 C.2    16  LEU16       0.2592
      4  O          2.9950    7.8760   50.3350 O.2    16  LEU16      -0.2718
      5  CB         1.4570   10.3830   48.6040 C.3    16  LEU16       0.0284
      6  CG         0.0900   10.9190   48.1720 C.3    16  LEU16       0.0019
      7  CD1        0.2250   11.8270   46.9570 C.3    16  LEU16       0.0001
      8  CD2       -0.8740    9.7770   47.8880 C.3    16  LEU16       0.0001
      9  N          3.9360    9.9240   50.1950 N.am   17  GLY17      -0.1957
     10  CA         5.3160    9.4590   50.3450 C.3    17  GLY17       0.1869
     11  C          6.0270   10.1700   51.4790 C.2    17  GLY17       0.2309
     12  O          6.0840    9.6650   52.6000 O.2    17  GLY17      -0.2863
     13  N          4.9930   15.7500   50.1420 N.3    18  VAL18      -0.1245
     14  CA         4.6610   14.4190   49.6440 C.3    18  VAL18       0.1561
     15  C          3.2130   14.0430   49.9880 C.2    18  VAL18       0.2260
     16  O          2.9580   12.9700   50.5380 O.2    18  VAL18      -0.2867
     17  CB         5.6410   13.3920   50.2220 C.3    18  VAL18       0.0252
     18  CG1        7.0340   13.5870   49.6520 C.3    18  VAL18       0.0019
     19  CG2        5.6350   13.4350   51.7510 C.3    18  VAL18       0.0019
     20  N         -1.3820   16.6430   43.7610 N.3    28  ALA28      -0.1231
     21  CA        -0.3220   16.1850   44.6510 C.3    28  ALA28       0.1694
     22  C          0.4510   17.4000   45.1430 C.2    28  ALA28       0.2592
     23  O          0.8090   18.2760   44.3530 O.2    28  ALA28      -0.2718
     24  CB         0.6040   15.2230   43.9300 C.3    28  ALA28       0.0304
     25  N          0.7000   17.4520   46.4490 N.am   29  VAL29      -0.1966
     26  CA         1.3850   18.5850   47.0590 C.3    29  VAL29       0.1727
     27  C          2.7790   18.1640   47.5020 C.2    29  VAL29       0.2616
     28  O          2.9480   17.1290   48.1540 O.2    29  VAL29      -0.2715
     29  CB         0.6130   19.1400   48.2810 C.3    29  VAL29       0.0290
     30  CG1        1.1540   20.5160   48.6720 C.3    29  VAL29       0.0023
     31  CG2       -0.8820   19.2150   47.9890 C.3    29  VAL29       0.0023
     32  N          3.7650   18.9760   47.1240 N.am   30  LYS30      -0.1977
     33  CA         5.1450   18.8190   47.5570 C.3    30  LYS30       0.1596
     34  C          5.4570   20.0030   48.4640 C.2    30  LYS30       0.2287
     35  O          5.3040   21.1540   48.0510 O.2    30  LYS30      -0.2864
     36  CB         6.0750   18.8110   46.3380 C.3    30  LYS30       0.0298
     37  CG         7.5660   18.7120   46.6470 C.3    30  LYS30       0.0038
     38  CD         7.9230   17.3840   47.2870 C.3    30  LYS30       0.0206
     39  CE         9.4340   17.1940   47.3670 C.3    30  LYS30       0.1093
     40  NZ         9.8110   15.8870   47.9810 N.3    30  LYS30      -0.1314
     41  N         13.9760   25.5790   45.4090 N.3    35  PHE35      -0.1241
     42  CA        12.7130   24.8960   45.3970 C.3    35  PHE35       0.1605
     43  C         11.7530   25.7630   44.7410 C.2    35  PHE35       0.2264
     44  O         10.8490   25.3310   44.0610 O.2    35  PHE35      -0.2867
     45  CB        12.1250   25.0000   46.7920 C.3    35  PHE35       0.0534
     46  CG        10.8760   24.2210   47.0030 C.ar   35  PHE35      -0.0203
     47  CD1        9.6640   24.8430   47.0070 C.ar   35  PHE35      -0.0042
     48  CD2       10.9180   22.8860   47.2550 C.ar   35  PHE35      -0.0042
     49  CE1        8.5410   24.1480   47.2200 C.ar   35  PHE35      -0.0003
     50  CE2        9.7830   22.2050   47.4670 C.ar   35  PHE35      -0.0003
     51  CZ         8.6000   22.8390   47.4480 C.ar   35  PHE35      -0.0000
     52  N         12.5800   24.1240   41.0100 N.3    38  GLU38      -0.1231
     53  CA        12.2050   22.9220   40.2960 C.3    38  GLU38       0.1699
     54  C         10.8640   23.0940   39.6340 C.2    38  GLU38       0.2592
     55  O         10.6320   22.6520   38.5480 O.2    38  GLU38      -0.2718
     56  CB        12.2220   21.7020   41.1760 C.3    38  GLU38       0.0402
     57  CG        12.5220   20.4690   40.3680 C.3    38  GLU38       0.1161
     58  CD        12.3700   19.2300   41.1430 C.2    38  GLU38       0.3649
     59  OE1       12.9390   19.1460   42.2170 O.co2  38  GLU38      -0.2457
     60  OE2       11.6900   18.3340   40.6780 O.co2  38  GLU38      -0.2457
     61  N          9.9880   23.7660   40.3270 N.am   39  ALA39      -0.1980
     62  CA         8.6370   24.0650   39.8620 C.3    39  ALA39       0.1597
     63  C          8.6620   24.9550   38.6260 C.2    39  ALA39       0.2287
     64  O          7.8840   24.7520   37.7000 O.2    39  ALA39      -0.2864
     65  CB         7.8330   24.7310   40.9670 C.3    39  ALA39       0.0319
     66  N          9.6260   22.6160   35.7170 N.3    42  ILE42      -0.1245
     67  CA         8.5260   21.7090   35.3680 C.3    42  ILE42       0.1561
     68  C          7.3630   22.4880   34.7520 C.2    42  ILE42       0.2260
     69  O          6.7200   22.0180   33.8130 O.2    42  ILE42      -0.2867
     70  CB         8.0390   20.9040   36.6040 C.3    42  ILE42       0.0252
     71  CG1        9.1520   19.9820   37.1130 C.3    42  ILE42       0.0019
     72  CG2        6.8060   20.0630   36.2650 C.3    42  ILE42       0.0019
     73  CD1        9.0110   19.6100   38.5720 C.3    42  ILE42       0.0001
     74  N          4.8900   15.2310   34.2710 N.3    51  VAL51      -0.1245
     75  CA         3.8940   15.7010   35.2400 C.3    51  VAL51       0.1561
     76  C          3.6600   17.2040   35.1170 C.2    51  VAL51       0.2260
     77  O          4.6010   17.9780   34.9320 O.2    51  VAL51      -0.2867
     78  CB         4.2500   15.3550   36.7130 C.3    51  VAL51       0.0252
     79  CG1        4.2090   13.8520   36.9320 C.3    51  VAL51       0.0019
     80  CG2        5.6020   15.9300   37.1160 C.3    51  VAL51       0.0019
     81  N          4.1690   23.2340   46.2430 N.3    65  ILE65      -0.1245
     82  CA         4.0770   23.1800   44.7910 C.3    65  ILE65       0.1561
     83  C          2.9590   22.1940   44.4610 C.2    65  ILE65       0.2260
     84  O          2.9870   21.0460   44.9090 O.2    65  ILE65      -0.2867
     85  CB         5.3820   22.7000   44.1290 C.3    65  ILE65       0.0252
     86  CG1        6.5370   23.6570   44.4430 C.3    65  ILE65       0.0019
     87  CG2        5.1900   22.5790   42.6120 C.3    65  ILE65       0.0019
     88  CD1        7.9220   23.0500   44.2040 C.3    65  ILE65       0.0001
     89  N          0.9960   19.7830   41.9720 N.3    67  LEU67      -0.1231
     90  CA         1.4290   18.9440   40.8590 C.3    67  LEU67       0.1693
     91  C          0.3430   17.9510   40.4580 C.2    67  LEU67       0.2592
     92  O         -0.5660   17.6550   41.2350 O.2    67  LEU67      -0.2718
     93  CB         2.6960   18.1770   41.2460 C.3    67  LEU67       0.0284
     94  CG         3.8970   19.0240   41.6820 C.3    67  LEU67       0.0019
     95  CD1        4.9420   18.1920   42.4070 C.3    67  LEU67       0.0001
     96  CD2        4.5140   19.7310   40.4900 C.3    67  LEU67       0.0001
     97  N          0.4480   17.4520   39.2310 N.am   68  GLU68      -0.1966
     98  CA        -0.4680   16.4430   38.7110 C.3    68  GLU68       0.1733
     99  C         -0.3890   15.1870   39.5710 C.2    68  GLU68       0.2616
    100  O          0.6840   14.6080   39.7160 O.2    68  GLU68      -0.2715
    101  CB        -0.0870   16.1040   37.2700 C.3    68  GLU68       0.0429
    102  CG        -0.8970   14.9910   36.6170 C.3    68  GLU68       0.1163
    103  CD        -0.2950   14.5290   35.3010 C.2    68  GLU68       0.3649
    104  OE1        0.6760   15.1500   34.8180 O.co2  68  GLU68      -0.2457
    105  OE2       -0.7970   13.5360   34.7460 O.co2  68  GLU68      -0.2457
    106  N         -1.5230   14.7710   40.1310 N.am   69  LEU69      -0.1963
    107  CA        -1.5810   13.5790   40.9730 C.3    69  LEU69       0.1728
    108  C         -1.3140   12.3100   40.1610 C.2    69  LEU69       0.2616
    109  O         -2.0350   12.0030   39.2080 O.2    69  LEU69      -0.2715
    110  CB        -2.9440   13.4830   41.6630 C.3    69  LEU69       0.0311
    111  CG        -3.1770   12.3190   42.6310 C.3    69  LEU69       0.0022
    112  CD1       -2.0850   12.2410   43.6850 C.3    69  LEU69       0.0001
    113  CD2       -4.5270   12.4640   43.2950 C.3    69  LEU69       0.0001
    114  N         -0.2660   11.5860   40.5470 N.am   70  MET70      -0.1963
    115  CA         0.1020   10.3200   39.9170 C.3    70  MET70       0.1736
    116  C         -0.1790    9.1900   40.9110 C.2    70  MET70       0.2616
    117  O          0.6900    8.8100   41.6970 O.2    70  MET70      -0.2715
    118  CB         1.5830   10.3460   39.5150 C.3    70  MET70       0.0427
    119  CG         1.9670   11.5120   38.6090 C.3    70  MET70       0.0599
    120  SD         1.1570   11.4690   36.9960 S.3    70  MET70      -0.1393
    121  CE         2.0990   10.2020   36.1480 C.3    70  MET70       0.0692
    122  N         -1.4000    8.6590   40.8690 N.am   71  ALA71      -0.1963
    123  CA        -1.8730    7.6880   41.8680 C.3    71  ALA71       0.1728
    124  C         -1.0500    6.4020   41.9200 C.2    71  ALA71       0.2617
    125  O         -1.0470    5.7100   42.9390 O.2    71  ALA71      -0.2715
    126  CB        -3.3470    7.3520   41.6350 C.3    71  ALA71       0.0334
    127  N         -0.3630    6.0830   40.8250 N.am   72  GLY72      -0.1940
    128  CA         0.4470    4.8690   40.7380 C.3    72  GLY72       0.2014
    129  C          1.8100    4.9520   41.4030 C.2    72  GLY72       0.2639
    130  O          2.5150    3.9450   41.4890 O.2    72  GLY72      -0.2714
    131  N          2.1930    6.1400   41.8660 N.am   73  GLY73      -0.1939
    132  CA         3.4820    6.3280   42.5340 C.3    73  GLY73       0.2014
    133  C          4.6470    6.1950   41.5740 C.2    73  GLY73       0.2638
    134  O          4.4520    6.2060   40.3600 O.2    73  GLY73      -0.2714
    135  N          5.8580    6.0580   42.1140 N.am   74  ASP74      -0.1971
    136  CA         7.0590    5.9200   41.2830 C.3    74  ASP74       0.1709
    137  C          7.1100    4.5780   40.5540 C.2    74  ASP74       0.2293
    138  O          6.4880    3.6030   40.9810 O.2    74  ASP74      -0.2864
    139  CB         8.3450    6.1450   42.0980 C.3    74  ASP74       0.1436
    140  CG         8.6340    5.0230   43.0860 C.2    74  ASP74       0.3671
    141  OD1        9.7630    4.4950   43.0650 O.co2  74  ASP74      -0.2456
    142  OD2        7.7440    4.6780   43.8890 O.co2  74  ASP74      -0.2456
    143  N          6.8220    8.6110   37.4060 N.3   121  LEU121     -0.1245
    144  CA         5.5660    8.3550   38.1260 C.3   121  LEU121      0.1561
    145  C          4.5020    7.7650   37.1990 C.2   121  LEU121      0.2260
    146  O          4.5910    7.9040   35.9790 O.2   121  LEU121     -0.2867
    147  CB         5.0320    9.6450   38.7400 C.3   121  LEU121      0.0270
    148  CG         5.9780   10.4430   39.6370 C.3   121  LEU121      0.0019
    149  CD1        5.3290   11.7590   40.0280 C.3   121  LEU121      0.0001
    150  CD2        6.3660    9.6420   40.8670 C.3   121  LEU121      0.0001
    151  N          8.7380   12.6160   36.6040 N.3   134  GLY134     -0.1210
    152  CA         8.2350   13.3190   37.7840 C.3   134  GLY134      0.1956
    153  C          9.2440   14.1750   38.5300 C.2   134  GLY134      0.2611
    154  O          8.8590   15.1230   39.2110 O.2   134  GLY134     -0.2717
    155  N         10.5280   13.8470   38.4200 N.am  135  ASP135     -0.1973
    156  CA        11.5720   14.5680   39.1480 C.3   135  ASP135      0.1709
    157  C         12.5450   15.2670   38.2000 C.2   135  ASP135      0.2293
    158  O         12.9750   14.6880   37.2010 O.2   135  ASP135     -0.2864
    159  CB        12.3300   13.6080   40.0720 C.3   135  ASP135      0.1436
    160  CG        13.2950   14.3260   41.0000 C.2   135  ASP135      0.3671
    161  OD1       12.9390   14.5470   42.1760 O.co2 135  ASP135     -0.2456
    162  OD2       14.4060   14.6800   40.5500 O.co2 135  ASP135     -0.2456
    163  N         18.0400   20.8010   37.9640 N.3   140  ARG140     -0.1245
    164  CA        17.9700   22.0540   38.7190 C.3   140  ARG140      0.1563
    165  C         19.2800   22.3140   39.4710 C.2   140  ARG140      0.2260
    166  O         19.8650   23.3900   39.3350 O.2   140  ARG140     -0.2867
    167  CB        16.7680   22.0470   39.6790 C.3   140  ARG140      0.0307
    168  CG        16.8330   23.0700   40.8180 C.3   140  ARG140      0.0489
    169  CD        17.1700   22.4040   42.1520 C.3   140  ARG140      0.2205
    170  NE        15.9910   21.7570   42.7360 N.pl3 140  ARG140     -0.0865
    171  CZ        16.0100   20.9300   43.7800 C.cat 140  ARG140      0.5346
    172  NH1       17.1520   20.6230   44.3850 N.pl3 140  ARG140      0.1354
    173  NH2       14.8730   20.4020   44.2230 N.pl3 140  ARG140      0.1354
@<TRIPOS>BOND
     1    69    68    2
     2    74    75    1
     3   105   103   ar
     4    68    67    1
     5   104   103   ar
     6    77    76    2
     7    76    75    1
     8    75    78    1
     9   103   102    1
    10    67    66    1
    11    67    70    1
    12   146   145    2
    13   121   120    1
    14    72    70    1
    15    70    71    1
    16   151   152    1
    17   102   101    1
    18    78    79    1
    19    78    80    1
    20   120   119    1
    21    71    73    1
    22   145   144    1
    23   158   157    2
    24   101    98    1
    25   143   144    1
    26    64    63    2
    27   152   153    1
    28   163   164    1
    29   144   147    1
    30   157   156    1
    31   155   153   am
    32   155   156    1
    33   153   154    2
    34    55    54    2
    35   119   118    1
    36    63    62    1
    37    98    97    1
    38    98    99    1
    39   164   165    1
    40   164   167    1
    41   147   148    1
    42   156   159    1
    43   109   108    2
    44    97    91   am
    45   166   165    2
    46   118   115    1
    47    99   100    2
    48    99   106   am
    49    54    53    1
    50    54    61   am
    51   148   149    1
    52   148   150    1
    53   167   168    1
    54    62    61    1
    55    62    65    1
    56   115   114    1
    57   115   116    1
    58   159   160    1
    59   106   107    1
    60   108   114   am
    61   108   107    1
    62    53    52    1
    63    53    56    1
    64   134   133    2
    65    57    58    1
    66    57    56    1
    67    91    90    1
    68    91    92    2
    69    96    94    1
    70   162   160   ar
    71   137   138    2
    72   137   136    1
    73    60    58   ar
    74   128   127    1
    75   128   129    1
    76   168   169    1
    77   127   124   am
    78    90    93    1
    79    90    89    1
    80   122   116   am
    81   122   123    1
    82   116   117    2
    83   107   110    1
    84   160   161   ar
    85    58    59   ar
    86    93    94    1
    87   136   139    1
    88   136   135    1
    89   129   130    2
    90   129   131   am
    91   133   135   am
    92   133   132    1
    93   126   123    1
    94   110   111    1
    95    94    95    1
    96   131   132    1
    97   123   124    1
    98   124   125    2
    99   139   140    1
   100   169   170    1
   101    87    85    1
   102   111   113    1
   103   111   112    1
   104   170   171    2
   105   141   140   ar
   106   140   142   ar
   107    20    21    1
   108   171   173    1
   109   171   172    1
   110    24    21    1
   111    44    43    2
   112    85    86    1
   113    85    82    1
   114    88    86    1
   115    23    22    2
   116    83    82    1
   117    83    84    2
   118    21    22    1
   119    43    42    1
   120    82    81    1
   121    22    25   am
   122    42    41    1
   123    42    45    1
   124    36    37    1
   125    36    33    1
   126    25    26    1
   127    37    38    1
   128    45    46    1
   129     7     6    1
   130    46    47   ar
   131    46    48   ar
   132    47    49   ar
   133    26    27    1
   134    26    29    1
   135    32    27   am
   136    32    33    1
   137    49    51   ar
   138    48    50   ar
   139    38    39    1
   140    39    40    1
   141    51    50   ar
   142    27    28    2
   143    33    34    1
   144     8     6    1
   145    31    29    1
   146    35    34    2
   147     6     5    1
   148    29    30    1
   149     5     2    1
   150    14    15    1
   151    14    13    1
   152    14    17    1
   153    18    17    1
   154    15    16    2
   155     2     3    1
   156     2     1    1
   157     3     9   am
   158     3     4    2
   159     9    10    1
   160    17    19    1
   161    10    11    1
   162    11    12    2
