@<TRIPOS>MOLECULE
tmp/4jobA00.pdb
 96 92 0 0 0
SMALL
GASTEIGER

@<TRIPOS>ATOM
      1  N         -9.7990  -21.2590   13.0090 N.3    17  ARG17      -0.1231
      2  CA        -9.4550  -22.6210   13.3640 C.3    17  ARG17       0.1694
      3  C         -8.3480  -23.0490   12.4210 C.2    17  ARG17       0.2592
      4  O         -8.3070  -22.6150   11.2780 O.2    17  ARG17      -0.2718
      5  CB       -10.6650  -23.5400   13.2060 C.3    17  ARG17       0.0321
      6  CG       -10.3770  -25.0060   13.4900 C.3    17  ARG17       0.0489
      7  CD       -11.5590  -25.9080   13.1320 C.3    17  ARG17       0.2205
      8  NE       -11.2920  -27.3040   13.4840 N.pl3  17  ARG17      -0.0865
      9  CZ       -11.8320  -28.3520   12.8670 C.cat  17  ARG17       0.5346
     10  NH1      -12.6780  -28.1670   11.8610 N.pl3  17  ARG17       0.1354
     11  NH2      -11.5300  -29.5890   13.2570 N.pl3  17  ARG17       0.1354
     12  N         -7.4610  -23.9060   12.9060 N.am   18  HIS18      -0.1976
     13  CA        -6.3300  -24.3920   12.1300 C.3    18  HIS18       0.1656
     14  C         -6.8430  -25.1440   10.9130 C.2    18  HIS18       0.2291
     15  O         -8.0190  -25.5130   10.8480 O.2    18  HIS18      -0.2864
     16  CB        -5.5010  -25.3550   12.9750 C.3    18  HIS18       0.0771
     17  CG        -6.2840  -26.5170   13.4930 C.ar   18  HIS18       0.0820
     18  ND1       -6.7730  -27.5160   12.6730 N.ar   18  HIS18      -0.2267
     19  CD2       -6.6830  -26.8370   14.7480 C.ar   18  HIS18       0.1154
     20  CE1       -7.4300  -28.3980   13.4010 C.ar   18  HIS18       0.1986
     21  NE2       -7.3910  -28.0120   14.6630 N.ar   18  HIS18      -0.2212
     22  N         -5.9700  -31.2900    9.0260 N.3    21  ARG21      -0.1245
     23  CA        -4.9210  -32.0430    9.7070 C.3    21  ARG21       0.1563
     24  C         -5.2270  -33.5300    9.6590 C.2    21  ARG21       0.2260
     25  O         -6.2790  -33.9380    9.1670 O.2    21  ARG21      -0.2867
     26  CB        -4.8340  -31.6030   11.1710 C.3    21  ARG21       0.0307
     27  CG        -6.1680  -31.7120   11.9110 C.3    21  ARG21       0.0489
     28  CD        -6.0010  -31.8070   13.4250 C.3    21  ARG21       0.2205
     29  NE        -7.2880  -31.7180   14.1120 N.pl3  21  ARG21      -0.0865
     30  CZ        -8.1510  -32.7260   14.2010 C.cat  21  ARG21       0.5346
     31  NH1       -7.8570  -33.8890   13.6500 N.pl3  21  ARG21       0.1354
     32  NH2       -9.3060  -32.5720   14.8340 N.pl3  21  ARG21       0.1354
     33  N         -7.0640  -37.0680   15.1940 N.3    24  LEU24      -0.1245
     34  CA        -6.4600  -37.1750   16.5150 C.3    24  LEU24       0.1561
     35  C         -6.2860  -38.6390   16.8850 C.2    24  LEU24       0.2260
     36  O         -5.2730  -39.0310   17.4650 O.2    24  LEU24      -0.2867
     37  CB        -7.3220  -36.4630   17.5580 C.3    24  LEU24       0.0270
     38  CG        -7.5750  -34.9790   17.2940 C.3    24  LEU24       0.0019
     39  CD1       -8.3320  -34.3470   18.4560 C.3    24  LEU24       0.0001
     40  CD2       -6.2610  -34.2560   17.0500 C.3    24  LEU24       0.0001
     41  N          0.5990  -31.2390   24.2320 N.3    65  TYR65      -0.1241
     42  CA         0.0590  -31.8260   23.0090 C.3    65  TYR65       0.1605
     43  C          1.0760  -31.8070   21.8670 C.2    65  TYR65       0.2264
     44  O          2.2140  -31.3640   22.0360 O.2    65  TYR65      -0.2867
     45  CB        -1.2240  -31.1030   22.5910 C.3    65  TYR65       0.0534
     46  CG        -2.3340  -31.1640   23.6200 C.ar   65  TYR65      -0.0201
     47  CD1       -3.3120  -32.1490   23.5570 C.ar   65  TYR65      -0.0009
     48  CD2       -2.4050  -30.2370   24.6530 C.ar   65  TYR65      -0.0009
     49  CE1       -4.3290  -32.2100   24.4940 C.ar   65  TYR65       0.0417
     50  CE2       -3.4180  -30.2900   25.5960 C.ar   65  TYR65       0.0417
     51  CZ        -4.3770  -31.2790   25.5120 C.ar   65  TYR65       0.1957
     52  OH        -5.3870  -31.3350   26.4480 O.3    65  TYR65      -0.2866
     53  N         -0.3850  -25.1000   20.8170 N.3   120  ILE120     -0.1245
     54  CA        -0.3010  -26.2580   19.9340 C.3   120  ILE120      0.1561
     55  C          0.2900  -25.9410   18.5470 C.2   120  ILE120      0.2260
     56  O         -0.0310  -24.9270   17.9310 O.2   120  ILE120     -0.2867
     57  CB        -1.6800  -26.9240   19.8140 C.3   120  ILE120      0.0252
     58  CG1       -2.3330  -26.9780   21.2000 C.3   120  ILE120      0.0019
     59  CG2       -1.5550  -28.3230   19.2110 C.3   120  ILE120      0.0019
     60  CD1       -3.8160  -27.2610   21.1860 C.3   120  ILE120      0.0001
     61  N          0.0530  -27.1280   15.4190 N.3   122  ARG122     -0.1245
     62  CA        -0.7410  -26.9990   14.1980 C.3   122  ARG122      0.1563
     63  C         -1.3910  -25.6210   14.0970 C.2   122  ARG122      0.2260
     64  O         -1.5750  -25.0890   13.0000 O.2   122  ARG122     -0.2867
     65  CB        -1.7900  -28.1130   14.0920 C.3   122  ARG122      0.0307
     66  CG        -2.7820  -28.1590   15.2390 C.3   122  ARG122      0.0489
     67  CD        -3.8060  -29.2650   15.0370 C.3   122  ARG122      0.2205
     68  NE        -4.5980  -29.4790   16.2420 N.pl3 122  ARG122     -0.0865
     69  CZ        -4.2370  -30.2930   17.2280 C.cat 122  ARG122      0.5346
     70  NH1       -3.1000  -30.9710   17.1470 N.pl3 122  ARG122      0.1354
     71  NH2       -5.0070  -30.4270   18.2960 N.pl3 122  ARG122      0.1354
     72  N         -9.9250  -23.2220   18.2980 N.3   284  HIS284     -0.1226
     73  CA       -10.3620  -24.5800   17.9980 C.3   284  HIS284      0.1752
     74  C        -11.8640  -24.7070   17.7370 C.2   284  HIS284      0.2596
     75  O        -12.6310  -23.7870   18.0240 O.2   284  HIS284     -0.2718
     76  CB        -9.9200  -25.4880   19.1400 C.3   284  HIS284      0.0759
     77  CG        -8.4980  -25.2700   19.5450 C.ar  284  HIS284      0.0818
     78  ND1       -7.4660  -26.0840   19.1180 N.ar  284  HIS284     -0.2268
     79  CD2       -7.9210  -24.3110   20.3040 C.ar  284  HIS284      0.1154
     80  CE1       -6.3280  -25.6470   19.6130 C.ar  284  HIS284      0.1986
     81  NE2       -6.5730  -24.5680   20.3410 N.ar  284  HIS284     -0.2212
     82  N        -12.2790  -25.8390   17.1690 N.am  285  ASP285     -0.1960
     83  CA       -13.6990  -26.0630   16.9090 C.3   285  ASP285      0.1840
     84  C        -14.5450  -25.9250   18.1830 C.2   285  ASP285      0.2621
     85  O        -15.6500  -25.3450   18.1570 O.2   285  ASP285     -0.2715
     86  CB       -13.9360  -27.4140   16.2190 C.3   285  ASP285      0.1450
     87  CG       -13.1670  -28.5560   16.8660 C.2   285  ASP285      0.3671
     88  OD1      -12.7020  -28.3960   18.0140 O.co2 285  ASP285     -0.2456
     89  OD2      -13.0350  -29.6220   16.2200 O.co2 285  ASP285     -0.2456
     90  N        -14.0060  -26.4330   19.2950 N.am  286  VAL286     -0.1977
     91  CA       -14.6840  -26.3820   20.5880 C.3   286  VAL286      0.1596
     92  C        -14.8010  -24.9580   21.1330 C.2   286  VAL286      0.2287
     93  O        -15.5960  -24.7000   22.0340 O.2   286  VAL286     -0.2864
     94  CB       -13.9890  -27.2810   21.6470 C.3   286  VAL286      0.0276
     95  CG1      -14.2570  -28.7490   21.3630 C.3   286  VAL286      0.0022
     96  CG2      -12.4930  -27.0060   21.6980 C.3   286  VAL286      0.0022
@<TRIPOS>BOND
     1    22    23    1
     2    25    24    2
     3    24    23    1
     4    23    26    1
     5    15    14    2
     6    14    13    1
     7    26    27    1
     8     4     3    2
     9    10     9    1
    10    27    28    1
    11    13    12    1
    12    13    16    1
    13     3    12   am
    14     3     2    1
    15    18    20   ar
    16    18    17   ar
    17     9    11    1
    18     9     8    2
    19    16    17    1
    20    64    63    2
    21     1     2    1
    22     7     8    1
    23     7     6    1
    24     5     2    1
    25     5     6    1
    26    20    21   ar
    27    28    29    1
    28    17    19   ar
    29    31    30    1
    30    65    62    1
    31    65    66    1
    32    63    62    1
    33    29    30    2
    34    62    61    1
    35    30    32    1
    36    21    19   ar
    37    67    66    1
    38    67    68    1
    39    33    34    1
    40    86    87    1
    41    86    83    1
    42    89    87   ar
    43    68    69    2
    44    34    35    1
    45    34    37    1
    46    87    88   ar
    47    35    36    2
    48    83    82    1
    49    83    84    1
    50    40    38    1
    51    70    69    1
    52    82    74   am
    53    69    71    1
    54    38    37    1
    55    38    39    1
    56    74    73    1
    57    74    75    2
    58    56    55    2
    59    73    72    1
    60    73    76    1
    61    85    84    2
    62    84    90   am
    63    55    54    1
    64    78    77   ar
    65    78    80   ar
    66    76    77    1
    67    59    57    1
    68    90    91    1
    69    77    79   ar
    70    80    81   ar
    71    57    54    1
    72    57    58    1
    73    54    53    1
    74    79    81   ar
    75    91    92    1
    76    91    94    1
    77    92    93    2
    78    60    58    1
    79    95    94    1
    80    94    96    1
    81    43    44    2
    82    43    42    1
    83    45    42    1
    84    45    46    1
    85    42    41    1
    86    47    46   ar
    87    47    49   ar
    88    46    48   ar
    89    49    51   ar
    90    48    50   ar
    91    51    50   ar
    92    51    52    1
