@<TRIPOS>MOLECULE
tmp/4jodA00.pdb
 92 88 0 0 0
SMALL
GASTEIGER

@<TRIPOS>ATOM
      1  N         14.3270   21.5310   35.6040 N.3    17  ARG17      -0.1231
      2  CA        14.5540   22.9380   35.3040 C.3    17  ARG17       0.1694
      3  C         15.7720   23.3860   36.1060 C.2    17  ARG17       0.2592
      4  O         16.0020   22.9020   37.2140 O.2    17  ARG17      -0.2718
      5  CB        13.3330   23.7880   35.7000 C.3    17  ARG17       0.0321
      6  CG        13.4020   25.2340   35.1940 C.3    17  ARG17       0.0489
      7  CD        12.2550   26.1110   35.7070 C.3    17  ARG17       0.2205
      8  NE        12.4680   27.5070   35.3200 N.pl3  17  ARG17      -0.0865
      9  CZ        12.0120   28.5580   35.9950 C.cat  17  ARG17       0.5346
     10  NH1       11.2910   28.3880   37.0930 N.pl3  17  ARG17       0.1354
     11  NH2       12.2780   29.7870   35.5670 N.pl3  17  ARG17       0.1354
     12  N         16.5350   24.3230   35.5550 N.am   18  HIS18      -0.1976
     13  CA        17.7150   24.8610   36.2170 C.3    18  HIS18       0.1656
     14  C         17.3000   25.5210   37.5340 C.2    18  HIS18       0.2291
     15  O         16.1190   25.8140   37.7460 O.2    18  HIS18      -0.2864
     16  CB        18.3520   25.9180   35.3130 C.3    18  HIS18       0.0771
     17  CG        17.4250   27.0480   34.9880 C.ar   18  HIS18       0.0820
     18  ND1       17.0390   27.9800   35.9250 N.ar   18  HIS18      -0.2267
     19  CD2       16.7720   27.3680   33.8430 C.ar   18  HIS18       0.1154
     20  CE1       16.2010   28.8380   35.3690 C.ar   18  HIS18       0.1986
     21  NE2       16.0210   28.4870   34.1080 N.ar   18  HIS18      -0.2212
     22  N         18.1490   31.8390   39.5230 N.3    21  ARG21      -0.1245
     23  CA        19.0010   32.6510   38.6560 C.3    21  ARG21       0.1563
     24  C         18.5960   34.1150   38.7170 C.2    21  ARG21       0.2260
     25  O         17.5420   34.4600   39.2640 O.2    21  ARG21      -0.2867
     26  CB        18.9000   32.1830   37.2040 C.3    21  ARG21       0.0307
     27  CG        17.4820   32.2450   36.6580 C.3    21  ARG21       0.0489
     28  CD        17.4290   32.2620   35.1470 C.3    21  ARG21       0.2205
     29  NE        16.0550   32.0980   34.6840 N.pl3  21  ARG21      -0.0865
     30  CZ        15.1170   33.0350   34.7720 C.cat  21  ARG21       0.5346
     31  NH1       15.3980   34.2250   35.3020 N.pl3  21  ARG21       0.1354
     32  NH2       13.8950   32.7860   34.3250 N.pl3  21  ARG21       0.1354
     33  N         15.7250   37.4480   33.5050 N.3    24  LEU24      -0.1245
     34  CA        16.0450   37.6910   32.0990 C.3    24  LEU24       0.1561
     35  C         15.9890   39.1900   31.7830 C.2    24  LEU24       0.2260
     36  O         16.8340   39.7230   31.0520 O.2    24  LEU24      -0.2867
     37  CB        15.0920   36.9060   31.1920 C.3    24  LEU24       0.0270
     38  CG        15.0470   35.3980   31.4840 C.3    24  LEU24       0.0019
     39  CD1       14.2970   34.6490   30.4030 C.3    24  LEU24       0.0001
     40  CD2       16.4460   34.8260   31.6260 C.3    24  LEU24       0.0001
     41  N         22.6000   26.5690   26.9260 N.3   125  ILE125     -0.1245
     42  CA        22.4730   27.8200   27.6430 C.3   125  ILE125      0.1561
     43  C         23.2400   27.5990   28.9320 C.2   125  ILE125      0.2260
     44  O         23.0830   26.5570   29.5710 O.2   125  ILE125     -0.2867
     45  CB        21.0030   28.1250   28.0040 C.3   125  ILE125      0.0252
     46  CG1       20.1060   28.0670   26.7660 C.3   125  ILE125      0.0019
     47  CG2       20.8920   29.4830   28.6580 C.3   125  ILE125      0.0019
     48  CD1       18.7470   28.7010   26.9800 C.3   125  ILE125      0.0001
     49  N         23.1370   28.5460   32.1530 N.3   127  ARG127     -0.1231
     50  CA        22.4590   28.1510   33.3930 C.3   127  ARG127      0.1694
     51  C         22.0220   26.6680   33.4160 C.2   127  ARG127      0.2592
     52  O         22.0310   26.0270   34.4660 O.2   127  ARG127     -0.2718
     53  CB        21.2800   29.0810   33.7060 C.3   127  ARG127      0.0321
     54  CG        20.2350   29.1650   32.6090 C.3   127  ARG127      0.0489
     55  CD        19.0560   30.0280   33.0390 C.3   127  ARG127      0.2205
     56  NE        18.0330   30.0970   31.9960 N.pl3 127  ARG127     -0.0865
     57  CZ        17.9820   31.0450   31.0650 C.cat 127  ARG127      0.5346
     58  NH1       18.8870   32.0170   31.0560 N.pl3 127  ARG127      0.1354
     59  NH2       17.0220   31.0280   30.1510 N.pl3 127  ARG127      0.1354
     60  N         21.6600   26.1130   32.2630 N.am  128  ASN128     -0.1974
     61  CA        21.2750   24.7020   32.2170 C.3   128  ASN128      0.1688
     62  C         22.4620   23.7480   32.2970 C.2   128  ASN128      0.2292
     63  O         22.3760   22.6870   32.9230 O.2   128  ASN128     -0.2864
     64  CB        20.4280   24.4040   30.9830 C.3   128  ASN128      0.1181
     65  CG        19.1360   25.1900   30.9730 C.2   128  ASN128      0.2629
     66  OD1       18.4640   25.3140   31.9960 O.2   128  ASN128     -0.2716
     67  ND2       18.7990   25.7560   29.8260 N.am  128  ASN128     -0.0877
     68  N         13.1720   23.4110   30.0870 N.3   293  HIS293     -0.1226
     69  CA        12.7380   24.7220   30.5500 C.3   293  HIS293      0.1752
     70  C         11.3320   24.7470   31.1320 C.2   293  HIS293      0.2596
     71  O         10.5250   23.8700   30.8370 O.2   293  HIS293     -0.2718
     72  CB        12.8730   25.7150   29.4010 C.3   293  HIS293      0.0759
     73  CG        14.2460   25.7460   28.8150 C.ar  293  HIS293      0.0818
     74  ND1       15.2240   26.6080   29.2590 N.ar  293  HIS293     -0.2268
     75  CD2       14.8220   24.9920   27.8500 C.ar  293  HIS293      0.1154
     76  CE1       16.3340   26.4060   28.5750 C.ar  293  HIS293      0.1986
     77  NE2       16.1170   25.4290   27.7140 N.ar  293  HIS293     -0.2212
     78  N         11.0490   25.7580   31.9540 N.am  294  ASP294     -0.1960
     79  CA         9.6950   25.9720   32.4550 C.3   294  ASP294      0.1840
     80  C          8.6740   25.9760   31.3100 C.2   294  ASP294      0.2621
     81  O          7.6100   25.3730   31.4480 O.2   294  ASP294     -0.2715
     82  CB         9.5800   27.2420   33.3310 C.3   294  ASP294      0.1450
     83  CG        10.0500   28.5240   32.6160 C.2   294  ASP294      0.3671
     84  OD1       10.3290   28.4920   31.3990 O.co2 294  ASP294     -0.2456
     85  OD2       10.1260   29.5890   33.2770 O.co2 294  ASP294     -0.2456
     86  N          8.9960   26.6220   30.1820 N.am  295  VAL295     -0.1977
     87  CA         8.0990   26.5950   29.0190 C.3   295  VAL295      0.1596
     88  C          7.9600   25.1850   28.4150 C.2   295  VAL295      0.2287
     89  O          7.0240   24.9130   27.6740 O.2   295  VAL295     -0.2864
     90  CB         8.5020   27.6010   27.9060 C.3   295  VAL295      0.0276
     91  CG1        8.4270   29.0390   28.4220 C.3   295  VAL295      0.0022
     92  CG2        9.8860   27.2850   27.3500 C.3   295  VAL295      0.0022
@<TRIPOS>BOND
     1    46    48    1
     2    46    45    1
     3    41    42    1
     4    92    90    1
     5    42    45    1
     6    42    43    1
     7    89    88    2
     8    77    75   ar
     9    77    76   ar
    10    75    73   ar
    11    90    91    1
    12    90    87    1
    13    45    47    1
    14    88    87    1
    15    76    74   ar
    16    73    74   ar
    17    73    72    1
    18    43    44    2
    19    87    86    1
    20    72    69    1
    21    67    65   am
    22    68    69    1
    23    59    57    1
    24    86    80   am
    25    39    38    1
    26    69    70    1
    27    71    70    2
    28    65    64    1
    29    65    66    2
    30    64    61    1
    31    36    35    2
    32    58    57    1
    33    57    56    2
    34    70    78   am
    35    37    38    1
    36    37    34    1
    37    80    81    2
    38    80    79    1
    39    84    83   ar
    40    38    40    1
    41    35    34    1
    42    78    79    1
    43    56    55    1
    44    34    33    1
    45    49    50    1
    46    61    60    1
    47    61    62    1
    48    60    51   am
    49    62    63    2
    50    79    82    1
    51    54    55    1
    52    54    53    1
    53    83    85   ar
    54    83    82    1
    55    50    51    1
    56    50    53    1
    57    51    52    2
    58    19    21   ar
    59    19    17   ar
    60    21    20   ar
    61    32    30    1
    62    29    30    2
    63    29    28    1
    64    30    31    1
    65    17    16    1
    66    17    18   ar
    67    28    27    1
    68     6     5    1
    69     6     7    1
    70     2     1    1
    71     2     5    1
    72     2     3    1
    73    16    13    1
    74     8     7    1
    75     8     9    2
    76    20    18   ar
    77    12     3   am
    78    12    13    1
    79    11     9    1
    80     9    10    1
    81     3     4    2
    82    13    14    1
    83    27    26    1
    84    26    23    1
    85    14    15    2
    86    23    24    1
    87    23    22    1
    88    24    25    2
