@<TRIPOS>MOLECULE
tmp/4johB00.pdb
 140 134 0 0 0
SMALL
GASTEIGER

@<TRIPOS>ATOM
      1  N          2.7400   13.4080   25.1760 N.3    15  GLY15      -0.1210
      2  CA         3.0380   14.4960   24.2660 C.3    15  GLY15       0.1956
      3  C          2.8140   14.0510   22.8290 C.2    15  GLY15       0.2612
      4  O          2.2660   12.9760   22.5680 O.2    15  GLY15      -0.2717
      5  N          3.2310   14.8850   21.8880 N.am   16  LEU16      -0.1965
      6  CA         3.0810   14.5540   20.4750 C.3    16  LEU16       0.1728
      7  C          4.0890   13.5180   20.0190 C.2    16  LEU16       0.2617
      8  O          3.8160   12.7660   19.0880 O.2    16  LEU16      -0.2715
      9  CB         3.2300   15.8110   19.6210 C.3    16  LEU16       0.0311
     10  CG         2.0990   16.8190   19.7770 C.3    16  LEU16       0.0022
     11  CD1        2.4810   18.1380   19.1640 C.3    16  LEU16       0.0001
     12  CD2        0.8290   16.2840   19.1500 C.3    16  LEU16       0.0001
     13  N          5.2610   13.4950   20.6460 N.am   17  GLY17      -0.1940
     14  CA         6.3020   12.5590   20.2440 C.3    17  GLY17       0.2014
     15  C          7.1530   13.0670   19.1000 C.2    17  GLY17       0.2639
     16  O          7.6170   12.2860   18.2630 O.2    17  GLY17      -0.2714
     17  N          7.3740   14.3780   19.0540 N.am   18  ILE18      -0.1963
     18  CA         8.2420   14.9570   18.0430 C.3    18  ILE18       0.1727
     19  C          9.1900   15.9470   18.6800 C.2    18  ILE18       0.2617
     20  O          8.9380   16.4640   19.7720 O.2    18  ILE18      -0.2715
     21  CB         7.4680   15.6510   16.9120 C.3    18  ILE18       0.0290
     22  CG1        6.7010   16.8590   17.4320 C.3    18  ILE18       0.0022
     23  CG2        6.5270   14.6580   16.2270 C.3    18  ILE18       0.0023
     24  CD1        5.9490   17.6000   16.3330 C.3    18  ILE18       0.0001
     25  N         10.3080   16.1710   18.0070 N.am   19  SER19      -0.1936
     26  CA        11.1180   17.3380   18.2810 C.3    19  SER19       0.2055
     27  C         10.9120   18.2880   17.1260 C.2    19  SER19       0.2643
     28  O         10.8740   17.8620   15.9560 O.2    19  SER19      -0.2714
     29  CB        12.5910   16.9680   18.3690 C.3    19  SER19       0.2130
     30  OG        12.8140   16.1410   19.4890 O.3    19  SER19      -0.2179
     31  N         10.7530   19.5670   17.4470 N.am   20  ILE20      -0.1963
     32  CA        10.6730   20.5910   16.4210 C.3    20  ILE20       0.1727
     33  C         11.8410   21.5530   16.5240 C.2    20  ILE20       0.2617
     34  O         12.3600   21.8230   17.6160 O.2    20  ILE20      -0.2715
     35  CB         9.3440   21.3750   16.4630 C.3    20  ILE20       0.0290
     36  CG1        9.1120   22.0160   17.8370 C.3    20  ILE20       0.0022
     37  CG2        8.1760   20.4630   16.0790 C.3    20  ILE20       0.0023
     38  CD1        8.0690   23.1420   17.7920 C.3    20  ILE20       0.0001
     39  N         12.2700   22.0500   15.3720 N.am   21  THR21      -0.1937
     40  CA        13.2750   23.0930   15.3200 C.3    21  THR21       0.2028
     41  C         12.7630   24.2010   14.4190 C.2    21  THR21       0.2642
     42  O         11.7460   24.0550   13.7580 O.2    21  THR21      -0.2714
     43  CB        14.6240   22.5370   14.8240 C.3    21  THR21       0.1808
     44  OG1       15.6520   23.5170   15.0200 O.3    21  THR21      -0.2208
     45  CG2       14.5500   22.1420   13.3600 C.3    21  THR21       0.0379
     46  N         13.4480   25.3340   14.4160 N.am   22  GLY22      -0.1954
     47  CA        13.0780   26.3990   13.5130 C.3    22  GLY22       0.1869
     48  C         12.1550   27.4090   14.1500 C.2    22  GLY22       0.2309
     49  O         12.0090   27.4690   15.3740 O.2    22  GLY22      -0.2863
     50  N         11.5930   33.5840   13.8090 N.3    25  GLU25      -0.1231
     51  CA        12.7150   34.4220   14.2290 C.3    25  GLU25       0.1699
     52  C         14.0300   33.9640   13.6000 C.2    25  GLU25       0.2592
     53  O         15.0080   34.7160   13.5580 O.2    25  GLU25      -0.2718
     54  CB        12.8260   34.4600   15.7580 C.3    25  GLU25       0.0402
     55  CG        13.3110   33.1650   16.4050 C.3    25  GLU25       0.1161
     56  CD        12.1910   32.2160   16.8370 C.2    25  GLU25       0.3649
     57  OE1       11.2680   31.9490   16.0470 O.co2  25  GLU25      -0.2457
     58  OE2       12.2580   31.7200   17.9770 O.co2  25  GLU25      -0.2457
     59  N         14.0430   32.7370   13.1010 N.am   26  HIS26      -0.1976
     60  CA        15.2090   32.1620   12.4440 C.3    26  HIS26       0.1656
     61  C         15.0540   32.1060   10.9300 C.2    26  HIS26       0.2291
     62  O         15.9370   31.6130   10.2360 O.2    26  HIS26      -0.2864
     63  CB        15.4540   30.7590   13.0010 C.3    26  HIS26       0.0771
     64  CG        15.5250   30.7280   14.4930 C.ar   26  HIS26       0.0820
     65  ND1       16.5640   31.3020   15.1910 N.ar   26  HIS26      -0.2267
     66  CD2       14.6740   30.2300   15.4210 C.ar   26  HIS26       0.1154
     67  CE1       16.3570   31.1520   16.4860 C.ar   26  HIS26       0.1986
     68  NE2       15.2160   30.5070   16.6540 N.ar   26  HIS26      -0.2212
     69  N         13.0840   30.2280    9.2540 N.3    28  VAL28      -0.1245
     70  CA        12.8490   28.8650    8.7980 C.3    28  VAL28       0.1561
     71  C         11.5280   28.3600    9.3700 C.2    28  VAL28       0.2260
     72  O         11.0940   28.8110   10.4310 O.2    28  VAL28      -0.2867
     73  CB        13.9970   27.9330    9.2150 C.3    28  VAL28       0.0252
     74  CG1       15.2990   28.3760    8.5570 C.3    28  VAL28       0.0019
     75  CG2       14.1460   27.9240   10.7140 C.3    28  VAL28       0.0019
     76  N         12.2880   17.6530   13.4870 N.3    33  SER33      -0.1202
     77  CA        13.6580   17.1380   13.4460 C.3    33  SER33       0.2020
     78  C         13.7990   15.7300   14.0120 C.2    33  SER33       0.2618
     79  O         14.7930   15.0570   13.7510 O.2    33  SER33      -0.2717
     80  CB        14.6130   18.0820   14.1840 C.3    33  SER33       0.2103
     81  OG        14.2110   18.2460   15.5300 O.3    33  SER33      -0.2182
     82  N         12.8230   15.2970   14.8050 N.am   34  GLU34      -0.1979
     83  CA        12.8090   13.9440   15.3350 C.3    34  GLU34       0.1602
     84  C         11.3850   13.4500   15.4450 C.2    34  GLU34       0.2287
     85  O         10.4890   14.2050   15.8010 O.2    34  GLU34      -0.2864
     86  CB        13.4480   13.8770   16.7250 C.3    34  GLU34       0.0415
     87  CG        14.8550   14.4370   16.8140 C.3    34  GLU34       0.1163
     88  CD        15.5010   14.1490   18.1570 C.2    34  GLU34       0.3649
     89  OE1       15.0290   14.6920   19.1790 O.co2  34  GLU34      -0.2457
     90  OE2       16.4790   13.3720   18.1960 O.co2  34  GLU34      -0.2457
     91  N          9.8270   10.4750   17.6880 N.3    36  HIS36      -0.1241
     92  CA        10.2600    9.5910   18.7590 C.3    36  HIS36       0.1621
     93  C          9.5370    8.2520   18.7270 C.2    36  HIS36       0.2264
     94  O          8.3160    8.1910   18.6310 O.2    36  HIS36      -0.2867
     95  CB        10.1210   10.3060   20.0980 C.3    36  HIS36       0.0745
     96  CG        10.8900   11.5870   20.1450 C.ar   36  HIS36       0.0817
     97  ND1       12.2700   11.6230   20.1170 N.ar   36  HIS36      -0.2268
     98  CD2       10.4800   12.8780   20.1650 C.ar   36  HIS36       0.1154
     99  CE1       12.6740   12.8800   20.1450 C.ar   36  HIS36       0.1986
    100  NE2       11.6090   13.6610   20.1720 N.ar   36  HIS36      -0.2212
    101  N          5.8060    6.8570   20.1600 N.3    39  GLN39      -0.1245
    102  CA         4.9490    7.9510   20.6280 C.3    39  GLN39       0.1566
    103  C          3.9290    8.3520   19.5430 C.2    39  GLN39       0.2260
    104  O          3.9500    7.8080   18.4390 O.2    39  GLN39      -0.2867
    105  CB         5.7920    9.1320   21.1380 C.3    39  GLN39       0.0367
    106  CG         6.5870    8.8020   22.4160 C.3    39  GLN39       0.0905
    107  CD         7.3470   10.0020   22.9660 C.2    39  GLN39       0.2608
    108  OE1        6.7620   11.0420   23.2930 O.2    39  GLN39      -0.2717
    109  NE2        8.6660    9.8600   23.0750 N.am   39  GLN39      -0.0878
    110  N          9.4160   30.0810   17.3600 N.3    66  HIS66      -0.1241
    111  CA         9.5980   28.7580   17.9330 C.3    66  HIS66       0.1621
    112  C          8.6980   28.4820   19.1370 C.2    66  HIS66       0.2264
    113  O          7.9780   27.4820   19.1750 O.2    66  HIS66      -0.2867
    114  CB        11.0640   28.5530   18.3320 C.3    66  HIS66       0.0745
    115  CG        11.3660   27.1660   18.7900 C.ar   66  HIS66       0.0817
    116  ND1       11.6760   26.1470   17.9120 N.ar   66  HIS66      -0.2268
    117  CD2       11.3720   26.6120   20.0250 C.ar   66  HIS66       0.1154
    118  CE1       11.8810   25.0330   18.5910 C.ar   66  HIS66       0.1986
    119  NE2       11.7010   25.2860   19.8750 N.ar   66  HIS66      -0.2212
    120  N          5.4920   25.9720   20.0210 N.3    70  VAL70      -0.1245
    121  CA         5.4730   25.0240   21.1250 C.3    70  VAL70       0.1561
    122  C          4.1630   25.1490   21.9070 C.2    70  VAL70       0.2260
    123  O          3.4910   24.1500   22.1730 O.2    70  VAL70      -0.2867
    124  CB         6.6860   25.1950   22.0750 C.3    70  VAL70       0.0252
    125  CG1        6.5000   24.3740   23.3420 C.3    70  VAL70       0.0019
    126  CG2        7.9830   24.7830   21.3750 C.3    70  VAL70       0.0019
    127  N          1.1750   23.9170   19.6510 N.3    73  LEU73      -0.1231
    128  CA         1.2150   22.4780   19.4450 C.3    73  LEU73       0.1693
    129  C          0.8970   21.6840   20.7150 C.2    73  LEU73       0.2592
    130  O          0.1370   20.7170   20.6700 O.2    73  LEU73      -0.2718
    131  CB         2.5740   22.0780   18.8740 C.3    73  LEU73       0.0284
    132  CG         2.7220   22.4170   17.3840 C.3    73  LEU73       0.0019
    133  CD1        4.1810   22.5460   16.9880 C.3    73  LEU73       0.0001
    134  CD2        2.0110   21.3760   16.5090 C.3    73  LEU73       0.0001
    135  N          1.4700   22.1020   21.8440 N.am   74  SER74      -0.1952
    136  CA         1.2670   21.3990   23.1070 C.3    74  SER74       0.1924
    137  C         -0.1450   21.5330   23.6710 C.2    74  SER74       0.2314
    138  O         -0.5560   20.7280   24.5130 O.2    74  SER74      -0.2863
    139  CB         2.2860   21.8630   24.1430 C.3    74  SER74       0.2116
    140  OG         3.5830   21.4340   23.7900 O.3    74  SER74      -0.2180
@<TRIPOS>BOND
     1    74    73    1
     2    70    73    1
     3    70    69    1
     4    70    71    1
     5    73    75    1
     6    71    72    2
     7    62    61    2
     8    61    60    1
     9    60    63    1
    10    60    59    1
    11    63    64    1
    12    59    52   am
    13    45    43    1
    14    77    76    1
    15    77    78    1
    16    77    80    1
    17    47    48    1
    18    47    46    1
    19    53    52    2
    20    52    51    1
    21    79    78    2
    22    42    41    2
    23    50    51    1
    24    78    82   am
    25    48    49    2
    26    80    81    1
    27    51    54    1
    28    46    41   am
    29    41    40    1
    30    64    65   ar
    31    64    66   ar
    32    82    83    1
    33    43    44    1
    34    43    40    1
    35    65    67   ar
    36    40    39    1
    37    83    84    1
    38    83    86    1
    39    39    33   am
    40    66    68   ar
    41    84    85    2
    42    54    55    1
    43    28    27    2
    44    57    56   ar
    45    37    35    1
    46    23    21    1
    47    24    22    1
    48    55    56    1
    49    32    35    1
    50    32    33    1
    51    32    31    1
    52    35    36    1
    53    67    68   ar
    54   134   132    1
    55    33    34    2
    56    86    87    1
    57    87    88    1
    58    56    58   ar
    59    21    22    1
    60    21    18    1
    61   133   132    1
    62    27    31   am
    63    27    26    1
    64   110   111    1
    65   132   131    1
    66    91    92    1
    67    38    36    1
    68   116   118   ar
    69   116   115   ar
    70   111   114    1
    71   111   112    1
    72    25    26    1
    73    25    19   am
    74    18    19    1
    75    18    17    1
    76    88    90   ar
    77    88    89   ar
    78    16    15    2
    79    26    29    1
    80   114   115    1
    81    29    30    1
    82   104   103    2
    83   118   119   ar
    84    94    93    2
    85    19    20    2
    86    93    92    1
    87    92    95    1
    88   115   117   ar
    89   131   128    1
    90    17    15   am
    91     8     7    2
    92    15    14    1
    93   112   113    2
    94    12    10    1
    95    11    10    1
    96   128   127    1
    97   128   129    1
    98   103   102    1
    99     9    10    1
   100     9     6    1
   101   119   117   ar
   102     7     6    1
   103     7    13   am
   104   120   121    1
   105    95    96    1
   106    97    96   ar
   107    97    99   ar
   108    96    98   ar
   109    99   100   ar
   110   101   102    1
   111    98   100   ar
   112    14    13    1
   113     6     5    1
   114   102   105    1
   115   130   129    2
   116   129   135   am
   117   121   122    1
   118   121   124    1
   119   105   106    1
   120   126   124    1
   121   135   136    1
   122     5     3   am
   123   122   123    2
   124   124   125    1
   125   106   107    1
   126     4     3    2
   127     3     2    1
   128   107   109   am
   129   107   108    2
   130   136   137    1
   131   136   139    1
   132   137   138    2
   133   140   139    1
   134     2     1    1
