@<TRIPOS>MOLECULE
tmp/4jolC00.pdb
 103 99 0 0 0
SMALL
GASTEIGER

@<TRIPOS>ATOM
      1  N         19.3420  -82.2770   20.7560 N.3     1  ILE1       -0.1231
      2  CA        19.3500  -81.8700   19.3530 C.3     1  ILE1        0.1692
      3  C         17.9650  -81.9740   18.7200 C.2     1  ILE1        0.2592
      4  O         17.5590  -83.0340   18.2560 O.2     1  ILE1       -0.2718
      5  CB        20.3260  -82.7270   18.5070 C.3     1  ILE1        0.0266
      6  CG1       21.7700  -82.2590   18.6760 C.3     1  ILE1        0.0019
      7  CG2       19.9620  -82.6590   17.0270 C.3     1  ILE1        0.0020
      8  CD1       22.7340  -82.9430   17.7170 C.3     1  ILE1        0.0001
      9  N         17.2360  -80.8710   18.7190 N.am    2  ASP2       -0.1960
     10  CA        16.0010  -80.7960   17.9670 C.3     2  ASP2        0.1840
     11  C         16.1680  -79.6640   16.9650 C.2     2  ASP2        0.2622
     12  O         16.2780  -78.5030   17.3500 O.2     2  ASP2       -0.2715
     13  CB        14.8040  -80.5340   18.8870 C.3     2  ASP2        0.1450
     14  CG        13.4860  -80.4050   18.1150 C.2     2  ASP2        0.3671
     15  OD1       13.3830  -80.9760   17.0050 O.co2   2  ASP2       -0.2456
     16  OD2       12.5520  -79.7300   18.6100 O.co2   2  ASP2       -0.2456
     17  N         16.2140  -80.0130   15.6830 N.am    3  HIS3       -0.1973
     18  CA        16.3580  -79.0310   14.6100 C.3     3  HIS3        0.1656
     19  C         15.0930  -78.1910   14.3860 C.2     3  HIS3        0.2291
     20  O         15.1090  -77.2560   13.5740 O.2     3  HIS3       -0.2864
     21  CB        16.7700  -79.6980   13.2910 C.3     3  HIS3        0.0771
     22  CG        18.1390  -80.3020   13.3110 C.ar    3  HIS3        0.0820
     23  ND1       18.8320  -80.5380   14.4760 N.ar    3  HIS3       -0.2267
     24  CD2       18.9400  -80.7250   12.3030 C.ar    3  HIS3        0.1154
     25  CE1       20.0050  -81.0750   14.1870 C.ar    3  HIS3        0.1986
     26  NE2       20.0950  -81.2000   12.8770 N.ar    3  HIS3       -0.2212
     27  N         13.4520  -75.4060   15.2830 N.3     5  LEU5       -0.1245
     28  CA        13.6560  -74.1510   15.9820 C.3     5  LEU5        0.1561
     29  C         12.3010  -73.5580   16.2620 C.2     5  LEU5        0.2260
     30  O         11.2940  -74.0010   15.7270 O.2     5  LEU5       -0.2867
     31  CB        14.5140  -73.1840   15.1610 C.3     5  LEU5        0.0270
     32  CG        16.0240  -73.1230   15.4290 C.3     5  LEU5        0.0019
     33  CD1       16.6340  -74.4650   15.8340 C.3     5  LEU5        0.0001
     34  CD2       16.7420  -72.5450   14.2240 C.3     5  LEU5        0.0001
     35  N         13.6340  -68.4790   18.5370 N.3     9  GLU9       -0.1245
     36  CA        14.9640  -68.9540   18.1760 C.3     9  GLU9        0.1567
     37  C         15.2800  -68.5740   16.7300 C.2     9  GLU9        0.2260
     38  O         16.3850  -68.1120   16.4370 O.2     9  GLU9       -0.2867
     39  CB        15.0920  -70.4670   18.3640 C.3     9  GLU9        0.0388
     40  CG        14.4730  -70.9960   19.6380 C.3     9  GLU9        0.1160
     41  CD        14.7010  -72.4820   19.8270 C.2     9  GLU9        0.3649
     42  OE1       14.0370  -73.2800   19.1320 O.co2   9  GLU9       -0.2457
     43  OE2       15.5370  -72.8510   20.6790 O.co2   9  GLU9       -0.2457
     44  N         16.2900  -65.0990   16.3420 N.3    12  GLU12      -0.1231
     45  CA        17.6040  -64.9100   16.9240 C.3    12  GLU12       0.1699
     46  C         18.6480  -65.2140   15.8630 C.2    12  GLU12       0.2592
     47  O         19.5310  -64.3930   15.5630 O.2    12  GLU12      -0.2718
     48  CB        17.7810  -65.8380   18.1180 C.3    12  GLU12       0.0402
     49  CG        17.0140  -65.4140   19.3560 C.3    12  GLU12       0.1161
     50  CD        17.7730  -64.3930   20.1770 C.2    12  GLU12       0.3649
     51  OE1       18.4180  -64.7960   21.1720 O.co2  12  GLU12      -0.2457
     52  OE2       17.7280  -63.1940   19.8240 O.co2  12  GLU12      -0.2457
     53  N         18.5210  -66.4050   15.2930 N.am   13  GLU13      -0.1979
     54  CA        19.4540  -66.8930   14.3000 C.3    13  GLU13       0.1602
     55  C         19.5980  -65.8810   13.1670 C.2    13  GLU13       0.2287
     56  O         20.7120  -65.5440   12.7610 O.2    13  GLU13      -0.2864
     57  CB        18.9590  -68.2340   13.7710 C.3    13  GLU13       0.0415
     58  CG        19.8160  -69.4430   14.1330 C.3    13  GLU13       0.1163
     59  CD        20.5050  -69.3340   15.4870 C.2    13  GLU13       0.3649
     60  OE1       19.8340  -69.4880   16.5350 O.co2  13  GLU13      -0.2457
     61  OE2       21.7340  -69.1120   15.5020 O.co2  13  GLU13      -0.2457
     62  N         21.1780  -62.6890   14.3710 N.3    16  HIS16      -0.1226
     63  CA        22.5900  -62.9340   14.6070 C.3    16  HIS16       0.1752
     64  C         23.4160  -62.9750   13.3230 C.2    16  HIS16       0.2595
     65  O         24.5110  -62.4190   13.2820 O.2    16  HIS16      -0.2718
     66  CB        22.8420  -64.1700   15.4630 C.3    16  HIS16       0.0759
     67  CG        24.1170  -64.0860   16.2390 C.ar   16  HIS16       0.0818
     68  ND1       25.3450  -64.3920   15.6900 N.ar   16  HIS16      -0.2268
     69  CD2       24.3640  -63.6730   17.5040 C.ar   16  HIS16       0.1154
     70  CE1       26.2900  -64.1960   16.5900 C.ar   16  HIS16       0.1986
     71  NE2       25.7220  -63.7590   17.7000 N.ar   16  HIS16      -0.2212
     72  N         22.9070  -63.6320   12.2840 N.am   17  LEU17      -0.1980
     73  CA        23.5220  -63.5300   10.9590 C.3    17  LEU17       0.1596
     74  C         23.6970  -62.0730   10.5570 C.2    17  LEU17       0.2287
     75  O         24.7520  -61.6860   10.0450 O.2    17  LEU17      -0.2864
     76  CB        22.6780  -64.2220    9.8840 C.3    17  LEU17       0.0297
     77  CG        22.9980  -65.6820    9.5790 C.3    17  LEU17       0.0022
     78  CD1       22.0160  -66.2230    8.5700 C.3    17  LEU17       0.0001
     79  CD2       24.4320  -65.8580    9.1080 C.3    17  LEU17       0.0001
     80  N         24.0670  -59.4800   12.3240 N.3    19  HIS19      -0.1226
     81  CA        25.1510  -58.9410   13.1080 C.3    19  HIS19       0.1752
     82  C         26.5370  -59.4010   12.6430 C.2    19  HIS19       0.2595
     83  O         27.4510  -58.5930   12.5210 O.2    19  HIS19      -0.2718
     84  CB        24.9480  -59.3130   14.5540 C.3    19  HIS19       0.0759
     85  CG        26.0010  -58.7620   15.4490 C.ar   19  HIS19       0.0818
     86  ND1       26.2010  -57.4080   15.6050 N.ar   19  HIS19      -0.2268
     87  CD2       26.9310  -59.3770   16.2160 C.ar   19  HIS19       0.1154
     88  CE1       27.1990  -57.2140   16.4480 C.ar   19  HIS19       0.1986
     89  NE2       27.6590  -58.3920   16.8330 N.ar   19  HIS19      -0.2212
     90  N         26.6960  -60.6950   12.3920 N.am   20  LEU20      -0.1980
     91  CA        27.9550  -61.2140   11.8670 C.3    20  LEU20       0.1596
     92  C         28.3790  -60.4530   10.6100 C.2    20  LEU20       0.2287
     93  O         29.5330  -60.0360   10.4740 O.2    20  LEU20      -0.2864
     94  CB        27.8260  -62.7070   11.5390 C.3    20  LEU20       0.0297
     95  CG        28.1390  -63.7610   12.6040 C.3    20  LEU20       0.0022
     96  CD1       28.8550  -63.1400   13.7870 C.3    20  LEU20       0.0001
     97  CD2       26.8810  -64.4650   13.0560 C.3    20  LEU20       0.0001
     98  N         29.4160  -56.8520   11.3470 N.3    23  CYS23      -0.1235
     99  CA        30.7830  -56.8290   11.8920 C.3    23  CYS23       0.1677
    100  C         31.8170  -56.9340   10.7820 C.2    23  CYS23       0.2270
    101  O         32.7830  -56.1700   10.7240 O.2    23  CYS23      -0.2867
    102  CB        31.0190  -57.9470   12.9070 C.3    23  CYS23       0.0956
    103  SG        30.0900  -57.7720   14.4800 S.3    23  CYS23      -0.0801
@<TRIPOS>BOND
     1    78    77    1
     2    79    77    1
     3    77    76    1
     4    76    73    1
     5    75    74    2
     6    93    92    2
     7    74    73    1
     8    92    91    1
     9   101   100    2
    10   100    99    1
    11    73    72    1
    12    98    99    1
    13    94    91    1
    14    94    95    1
    15    91    90    1
    16    99   102    1
    17    72    64   am
    18    24    26   ar
    19    24    22   ar
    20    80    81    1
    21    90    82   am
    22    83    82    2
    23    95    97    1
    24    95    96    1
    25    82    81    1
    26    56    55    2
    27    26    25   ar
    28   102   103    1
    29    81    84    1
    30    55    54    1
    31    65    64    2
    32    21    22    1
    33    21    18    1
    34    22    23   ar
    35    64    63    1
    36    20    19    2
    37    57    58    1
    38    57    54    1
    39    58    59    1
    40    25    23   ar
    41    34    32    1
    42    54    53    1
    43    62    63    1
    44    19    18    1
    45    84    85    1
    46    63    66    1
    47    18    17    1
    48    31    32    1
    49    31    28    1
    50    27    28    1
    51    53    46   am
    52    32    33    1
    53    85    86   ar
    54    85    87   ar
    55    66    67    1
    56    59    61   ar
    57    59    60   ar
    58    47    46    2
    59    86    88   ar
    60    17    11   am
    61    68    67   ar
    62    68    70   ar
    63    30    29    2
    64    46    45    1
    65    28    29    1
    66    87    89   ar
    67    67    69   ar
    68    44    45    1
    69    38    37    2
    70    88    89   ar
    71    70    71   ar
    72    37    36    1
    73    45    48    1
    74    11    12    2
    75    11    10    1
    76    15    14   ar
    77     7     5    1
    78    69    71   ar
    79     8     6    1
    80    10     9    1
    81    10    13    1
    82    14    16   ar
    83    14    13    1
    84    48    49    1
    85    36    39    1
    86    36    35    1
    87     4     3    2
    88    39    40    1
    89     5     6    1
    90     5     2    1
    91     9     3   am
    92     3     2    1
    93    42    41   ar
    94     2     1    1
    95    49    50    1
    96    40    41    1
    97    52    50   ar
    98    41    43   ar
    99    50    51   ar
