@<TRIPOS>MOLECULE
tmp/4jolB01.pdb
 81 76 0 0 0
SMALL
GASTEIGER

@<TRIPOS>ATOM
      1  N         38.3560  -63.4670   -2.4370 N.3    27  MET27      -0.1245
      2  CA        38.7880  -62.0790   -2.5840 C.3    27  MET27       0.1570
      3  C         39.6680  -61.6340   -1.4200 C.2    27  MET27       0.2261
      4  O         40.7330  -61.0610   -1.6230 O.2    27  MET27      -0.2867
      5  CB        37.5960  -61.1370   -2.7430 C.3    27  MET27       0.0387
      6  CG        37.4100  -60.6580   -4.1540 C.3    27  MET27       0.0595
      7  SD        36.4430  -59.1640   -4.2950 S.3    27  MET27      -0.1393
      8  CE        34.8360  -59.7620   -3.7750 C.3    27  MET27       0.0692
      9  N         43.1680  -63.3750   -1.4900 N.3    30  LYS30      -0.1231
     10  CA        44.0230  -62.8980   -2.5600 C.3    30  LYS30       0.1693
     11  C         44.5570  -61.5210   -2.2250 C.2    30  LYS30       0.2592
     12  O         45.7190  -61.2140   -2.4980 O.2    30  LYS30      -0.2718
     13  CB        43.2810  -62.9030   -3.8910 C.3    30  LYS30       0.0285
     14  CG        43.1370  -64.3090   -4.4510 C.3    30  LYS30       0.0035
     15  CD        42.2370  -64.3210   -5.6670 C.3    30  LYS30       0.0206
     16  CE        42.1620  -65.7030   -6.2800 C.3    30  LYS30       0.1093
     17  NZ        41.2530  -65.7000   -7.4610 N.3    30  LYS30      -0.1314
     18  N         43.7090  -60.7010   -1.6170 N.am   31  THR31      -0.1953
     19  CA        44.1470  -59.4080   -1.1100 C.3    31  THR31       0.1897
     20  C         45.2080  -59.5900   -0.0230 C.2    31  THR31       0.2313
     21  O         46.2840  -58.9970   -0.0780 O.2    31  THR31      -0.2863
     22  CB        42.9780  -58.5820   -0.5710 C.3    31  THR31       0.1794
     23  OG1       42.0780  -58.2610   -1.6450 O.3    31  THR31      -0.2208
     24  CG2       43.5000  -57.3000    0.0270 C.3    31  THR31       0.0378
     25  N         47.2570  -61.9630    0.3950 N.3    33  ARG33      -0.1231
     26  CA        48.4920  -62.3740   -0.2710 C.3    33  ARG33       0.1694
     27  C         49.1610  -61.1880   -0.9790 C.2    33  ARG33       0.2593
     28  O         50.3780  -60.9770   -0.8700 O.2    33  ARG33      -0.2718
     29  CB        48.2130  -63.5230   -1.2550 C.3    33  ARG33       0.0321
     30  CG        49.0370  -63.4740   -2.5410 C.3    33  ARG33       0.0489
     31  CD        50.5440  -63.6130   -2.2630 C.3    33  ARG33       0.2205
     32  NE        51.3820  -63.2080   -3.3950 N.pl3  33  ARG33      -0.0865
     33  CZ        52.0300  -64.0520   -4.1940 C.cat  33  ARG33       0.5346
     34  NH1       51.9460  -65.3610   -3.9940 N.pl3  33  ARG33       0.1354
     35  NH2       52.7680  -63.5860   -5.1950 N.pl3  33  ARG33       0.1354
     36  N         48.3550  -60.4080   -1.6900 N.am   34  SER34      -0.1938
     37  CA        48.8640  -59.3010   -2.4900 C.3    34  SER34       0.2055
     38  C         49.5830  -58.2570   -1.6450 C.2    34  SER34       0.2642
     39  O         50.4820  -57.5580   -2.1280 O.2    34  SER34      -0.2714
     40  CB        47.7270  -58.6740   -3.3130 C.3    34  SER34       0.2130
     41  OG        47.3440  -57.3940   -2.8560 O.3    34  SER34      -0.2179
     42  N         49.1910  -58.1580   -0.3790 N.am   35  LEU35      -0.1977
     43  CA        49.8220  -57.2170    0.5360 C.3    35  LEU35       0.1596
     44  C         51.2520  -57.6410    0.8310 C.2    35  LEU35       0.2287
     45  O         52.1220  -56.8070    1.0700 O.2    35  LEU35      -0.2864
     46  CB        49.0290  -57.1200    1.8410 C.3    35  LEU35       0.0297
     47  CG        47.6990  -56.3700    1.7940 C.3    35  LEU35       0.0022
     48  CD1       47.2160  -56.1540    3.2030 C.3    35  LEU35       0.0001
     49  CD2       47.8220  -55.0400    1.0410 C.3    35  LEU35       0.0001
     50  N         53.3440  -58.8100   -1.1580 N.3    37  VAL37      -0.1231
     51  CA        54.1800  -58.2800   -2.2100 C.3    37  VAL37       0.1692
     52  C         54.2880  -56.7570   -2.1070 C.2    37  VAL37       0.2591
     53  O         55.3850  -56.2100   -2.2190 O.2    37  VAL37      -0.2718
     54  CB        53.6640  -58.7280   -3.5860 C.3    37  VAL37       0.0266
     55  CG1       54.5760  -58.2470   -4.6790 C.3    37  VAL37       0.0020
     56  CG2       53.5710  -60.2350   -3.6330 C.3    37  VAL37       0.0020
     57  N         53.1620  -56.0830   -1.8760 N.am   38  LEU38      -0.1980
     58  CA        53.1730  -54.6370   -1.6310 C.3    38  LEU38       0.1596
     59  C         54.2300  -54.2750   -0.5900 C.2    38  LEU38       0.2287
     60  O         54.9480  -53.2920   -0.7260 O.2    38  LEU38      -0.2864
     61  CB        51.8080  -54.1530   -1.1360 C.3    38  LEU38       0.0297
     62  CG        51.1980  -52.9420   -1.8560 C.3    38  LEU38       0.0022
     63  CD1       50.4670  -52.0350   -0.8800 C.3    38  LEU38       0.0001
     64  CD2       52.2340  -52.1480   -2.6390 C.3    38  LEU38       0.0001
     65  N         57.0020  -55.7440    0.1220 N.3    40  ARG40      -0.1231
     66  CA        58.3200  -55.7940   -0.4810 C.3    40  ARG40       0.1694
     67  C         58.6340  -54.5240   -1.2860 C.2    40  ARG40       0.2592
     68  O         59.7690  -54.0480   -1.3010 O.2    40  ARG40      -0.2718
     69  CB        58.4710  -57.0560   -1.3280 C.3    40  ARG40       0.0321
     70  CG        58.6070  -58.3200   -0.4860 C.3    40  ARG40       0.0489
     71  CD        59.1810  -59.5070   -1.2660 C.3    40  ARG40       0.2205
     72  NE        58.3240  -60.6830   -1.1090 N.pl3  40  ARG40      -0.0865
     73  CZ        57.5880  -61.2170   -2.0830 C.cat  40  ARG40       0.5346
     74  NH1       57.6150  -60.7050   -3.3130 N.pl3  40  ARG40       0.1354
     75  NH2       56.8320  -62.2780   -1.8280 N.pl3  40  ARG40       0.1354
     76  N         57.6310  -53.9590   -1.9370 N.am   41  CYS41      -0.1970
     77  CA        57.8300  -52.6950   -2.6260 C.3    41  CYS41       0.1712
     78  C         58.1090  -51.5430   -1.6640 C.2    41  CYS41       0.2296
     79  O         58.9100  -50.6600   -1.9700 O.2    41  CYS41      -0.2864
     80  CB        56.6340  -52.3790   -3.5170 C.3    41  CYS41       0.0983
     81  SG        56.4040  -53.6420   -4.7560 S.3    41  CYS41      -0.0798
@<TRIPOS>BOND
     1    17    16    1
     2    16    15    1
     3    15    14    1
     4    35    33    1
     5    81    80    1
     6    55    54    1
     7    14    13    1
     8     7     6    1
     9     7     8    1
    10    33    34    1
    11    33    32    2
    12     6     5    1
    13    13    10    1
    14    56    54    1
    15    54    51    1
    16    80    77    1
    17    32    31    1
    18    40    41    1
    19    40    37    1
    20    74    73    1
    21     5     2    1
    22    64    62    1
    23    77    76    1
    24    77    78    1
    25     2     1    1
    26     2     3    1
    27    10    11    1
    28    10     9    1
    29    30    31    1
    30    30    29    1
    31    12    11    2
    32    37    36    1
    33    37    38    1
    34    11    18   am
    35    53    52    2
    36    51    52    1
    37    51    50    1
    38    39    38    2
    39    52    57   am
    40    73    75    1
    41    73    72    2
    42    79    78    2
    43    76    67   am
    44    57    58    1
    45    62    61    1
    46    62    63    1
    47    36    27   am
    48    23    22    1
    49    38    42   am
    50    58    61    1
    51    58    59    1
    52     4     3    2
    53    18    19    1
    54    69    70    1
    55    69    66    1
    56    68    67    2
    57    67    66    1
    58    71    72    1
    59    71    70    1
    60    29    26    1
    61    19    22    1
    62    19    20    1
    63    27    28    2
    64    27    26    1
    65    60    59    2
    66    22    24    1
    67    66    65    1
    68    42    43    1
    69    26    25    1
    70    21    20    2
    71    43    44    1
    72    43    46    1
    73    44    45    2
    74    49    47    1
    75    47    46    1
    76    47    48    1
