@<TRIPOS>MOLECULE
tmp/4jolD01.pdb
 103 99 0 0 0
SMALL
GASTEIGER

@<TRIPOS>ATOM
      1  N         60.9070  -58.4130  -11.0720 N.3     1  ILE1       -0.1231
      2  CA        61.9720  -57.7890  -10.2860 C.3     1  ILE1        0.1692
      3  C         61.9700  -56.2630  -10.3970 C.2     1  ILE1        0.2592
      4  O         61.2690  -55.6920  -11.2220 O.2     1  ILE1       -0.2718
      5  CB        63.3540  -58.3480  -10.6590 C.3     1  ILE1        0.0266
      6  CG1       63.6930  -58.0320  -12.1220 C.3     1  ILE1        0.0019
      7  CG2       63.3910  -59.8520  -10.4020 C.3     1  ILE1        0.0020
      8  CD1       63.3230  -59.1270  -13.1090 C.3     1  ILE1        0.0001
      9  N         62.8020  -55.6080   -9.6010 N.am    2  ASP2       -0.1960
     10  CA        62.5980  -54.1940   -9.2750 C.3     2  ASP2        0.1840
     11  C         61.2770  -53.9330   -8.5520 C.2     2  ASP2        0.2622
     12  O         60.2790  -53.5060   -9.1410 O.2     2  ASP2       -0.2715
     13  CB        62.7840  -53.2260  -10.4480 C.3     2  ASP2        0.1450
     14  CG        63.0570  -51.7910   -9.9640 C.2     2  ASP2        0.3671
     15  OD1       62.5470  -50.8280  -10.5820 O.co2   2  ASP2       -0.2456
     16  OD2       63.7760  -51.6320   -8.9420 O.co2   2  ASP2       -0.2456
     17  N         61.2910  -54.2660   -7.2700 N.am    3  HIS3       -0.1973
     18  CA        60.2310  -53.9240   -6.3420 C.3     3  HIS3        0.1656
     19  C         60.0690  -52.4040   -6.1730 C.2     3  HIS3        0.2291
     20  O         59.1790  -51.9570   -5.4530 O.2     3  HIS3       -0.2864
     21  CB        60.4990  -54.5740   -4.9850 C.3     3  HIS3        0.0771
     22  CG        60.4540  -56.0730   -5.0100 C.ar    3  HIS3        0.0820
     23  ND1       59.9440  -56.7840   -6.0700 N.ar    3  HIS3       -0.2267
     24  CD2       60.8540  -56.9910   -4.0950 C.ar    3  HIS3        0.1154
     25  CE1       60.0280  -58.0800   -5.8110 C.ar    3  HIS3        0.1986
     26  NE2       60.5770  -58.2310   -4.6220 N.ar    3  HIS3       -0.2212
     27  N         58.5780  -49.3360   -7.0460 N.3     5  LEU5       -0.1245
     28  CA        57.4210  -48.8800   -7.8130 C.3     5  LEU5        0.1561
     29  C         57.6080  -47.4400   -8.2120 C.2     5  LEU5        0.2260
     30  O         58.4660  -46.7550   -7.6760 O.2     5  LEU5       -0.2867
     31  CB        56.1220  -49.0380   -7.0110 C.3     5  LEU5        0.0270
     32  CG        55.2980  -50.3190   -7.1870 C.3     5  LEU5        0.0019
     33  CD1       56.1590  -51.5710   -7.4230 C.3     5  LEU5        0.0001
     34  CD2       54.3830  -50.5010   -5.9880 C.3     5  LEU5        0.0001
     35  N         52.5040  -46.1130  -10.4150 N.3     9  GLU9       -0.1245
     36  CA        52.2120  -47.4900  -10.0360 C.3     9  GLU9        0.1567
     37  C         51.7470  -47.5750   -8.5800 C.2     9  GLU9        0.2260
     38  O         50.7900  -48.2840   -8.2770 O.2     9  GLU9       -0.2867
     39  CB        53.4300  -48.3800  -10.2720 C.3     9  GLU9        0.0388
     40  CG        54.2170  -47.9840  -11.5020 C.3     9  GLU9        0.1160
     41  CD        55.3330  -48.9490  -11.8320 C.2     9  GLU9        0.3649
     42  OE1       56.2590  -49.0840  -11.0020 O.co2   9  GLU9       -0.2457
     43  OE2       55.2870  -49.5640  -12.9250 O.co2   9  GLU9       -0.2457
     44  N         48.3320  -46.6540   -8.1500 N.3    12  GLU12      -0.1231
     45  CA        47.4880  -47.6470   -8.7820 C.3    12  GLU12       0.1699
     46  C         47.1610  -48.7060   -7.7420 C.2    12  GLU12       0.2592
     47  O         45.9950  -49.0630   -7.5190 O.2    12  GLU12      -0.2718
     48  CB        48.2090  -48.2700   -9.9760 C.3    12  GLU12       0.0402
     49  CG        47.3490  -48.4150  -11.2270 C.3    12  GLU12       0.1161
     50  CD        46.9000  -47.0770  -11.7890 C.2    12  GLU12       0.3649
     51  OE1       45.9690  -46.4660  -11.2150 O.co2  12  GLU12      -0.2457
     52  OE2       47.4830  -46.6370  -12.8060 O.co2  12  GLU12      -0.2457
     53  N         48.2090  -49.1850   -7.0890 N.am   13  GLU13      -0.1979
     54  CA        48.0820  -50.2600   -6.1300 C.3    13  GLU13       0.1602
     55  C         47.1160  -49.8680   -5.0030 C.2    13  GLU13       0.2287
     56  O         46.2440  -50.6470   -4.6110 O.2    13  GLU13      -0.2864
     57  CB        49.4670  -50.6090   -5.5910 C.3    13  GLU13       0.0415
     58  CG        49.9130  -52.0240   -5.9010 C.3    13  GLU13       0.1163
     59  CD        49.7700  -52.3850   -7.3700 C.2    13  GLU13       0.3649
     60  OE1       50.0290  -51.5220   -8.2370 O.co2  13  GLU13      -0.2457
     61  OE2       49.3950  -53.5410   -7.6570 O.co2  13  GLU13      -0.2457
     62  N         43.6950  -49.7300   -6.2530 N.3    16  HIS16      -0.1226
     63  CA        43.1910  -51.0690   -6.4850 C.3    16  HIS16       0.1752
     64  C         42.7920  -51.7920   -5.2070 C.2    16  HIS16       0.2595
     65  O         41.7260  -52.4090   -5.1560 O.2    16  HIS16      -0.2718
     66  CB        44.1610  -51.9090   -7.3030 C.3    16  HIS16       0.0759
     67  CG        43.4720  -52.9090   -8.1690 C.ar   16  HIS16       0.0818
     68  ND1       43.1960  -52.6740   -9.5000 N.ar   16  HIS16      -0.2268
     69  CD2       42.9500  -54.1260   -7.8820 C.ar   16  HIS16       0.1154
     70  CE1       42.5590  -53.7170  -10.0010 C.ar   16  HIS16       0.1986
     71  NE2       42.3950  -54.6100   -9.0400 N.ar   16  HIS16      -0.2212
     72  N         43.6430  -51.7260   -4.1840 N.am   17  LEU17      -0.1980
     73  CA        43.2630  -52.2050   -2.8570 C.3    17  LEU17       0.1596
     74  C         41.9090  -51.6270   -2.4510 C.2    17  LEU17       0.2287
     75  O         41.0190  -52.3600   -2.0120 O.2    17  LEU17      -0.2864
     76  CB        44.3000  -51.8180   -1.8060 C.3    17  LEU17       0.0297
     77  CG        45.4050  -52.8240   -1.5290 C.3    17  LEU17       0.0022
     78  CD1       46.3490  -52.2920   -0.4710 C.3    17  LEU17       0.0001
     79  CD2       44.8070  -54.1460   -1.1090 C.3    17  LEU17       0.0001
     80  N         39.4540  -50.5750   -4.2120 N.3    19  HIS19      -0.1226
     81  CA        38.4550  -51.2390   -5.0200 C.3    19  HIS19       0.1752
     82  C         38.1420  -52.6590   -4.5520 C.2    19  HIS19       0.2595
     83  O         36.9810  -53.0280   -4.4060 O.2    19  HIS19      -0.2718
     84  CB        38.9150  -51.2800   -6.4560 C.3    19  HIS19       0.0759
     85  CG        37.9400  -51.9490   -7.3650 C.ar   19  HIS19       0.0818
     86  ND1       36.7160  -51.3960   -7.6720 N.ar   19  HIS19      -0.2268
     87  CD2       37.9970  -53.1340   -8.0160 C.ar   19  HIS19       0.1154
     88  CE1       36.0690  -52.2040   -8.4910 C.ar   19  HIS19       0.1986
     89  NE2       36.8230  -53.2670   -8.7130 N.ar   19  HIS19      -0.2212
     90  N         39.1730  -53.4630   -4.3340 N.am   20  LEU20      -0.1980
     91  CA        38.9680  -54.8050   -3.8090 C.3    20  LEU20       0.1596
     92  C         38.1210  -54.7800   -2.5290 C.2    20  LEU20       0.2287
     93  O         37.1410  -55.5210   -2.3910 O.2    20  LEU20      -0.2864
     94  CB        40.3200  -55.4680   -3.5440 C.3    20  LEU20       0.0297
     95  CG        41.0620  -55.8290   -4.8270 C.3    20  LEU20       0.0022
     96  CD1       42.5650  -55.6940   -4.6870 C.3    20  LEU20       0.0001
     97  CD2       40.6740  -57.2330   -5.2710 C.3    20  LEU20       0.0001
     98  N         34.5870  -54.1160   -3.2890 N.3    23  CYS23      -0.1235
     99  CA        33.8850  -55.2450   -3.8840 C.3    23  CYS23       0.1677
    100  C         33.4550  -56.1850   -2.7790 C.2    23  CYS23       0.2270
    101  O         32.3500  -56.7250   -2.7900 O.2    23  CYS23      -0.2867
    102  CB        34.7510  -55.9690   -4.9120 C.3    23  CYS23       0.0956
    103  SG        35.0220  -54.9930   -6.4280 S.3    23  CYS23      -0.0801
@<TRIPOS>BOND
     1     8     6    1
     2    43    41   ar
     3    52    50   ar
     4     6     5    1
     5    41    40    1
     6    41    42   ar
     7    50    49    1
     8    50    51   ar
     9    40    39    1
    10    49    48    1
    11     4     3    2
    12     1     2    1
    13     5     7    1
    14     5     2    1
    15    15    14   ar
    16    13    14    1
    17    13    10    1
    18    35    36    1
    19     3     2    1
    20     3     9   am
    21    39    36    1
    22    36    37    1
    23    70    68   ar
    24    70    71   ar
    25    48    45    1
    26    14    16   ar
    27     9    10    1
    28    68    67   ar
    29    10    11    1
    30    12    11    2
    31    71    69   ar
    32    45    44    1
    33    45    46    1
    34    89    88   ar
    35    89    87   ar
    36    37    38    2
    37    11    17   am
    38    88    86   ar
    39    60    59   ar
    40    29    28    1
    41    29    30    2
    42    67    69   ar
    43    67    66    1
    44    87    85   ar
    45    28    27    1
    46    28    31    1
    47    46    47    2
    48    46    53   am
    49    86    85   ar
    50    61    59   ar
    51    33    32    1
    52    59    58    1
    53    85    84    1
    54    66    63    1
    55    17    18    1
    56    32    31    1
    57    32    34    1
    58    53    54    1
    59    63    62    1
    60    63    64    1
    61    84    81    1
    62   103   102    1
    63    18    19    1
    64    18    21    1
    65    19    20    2
    66    54    57    1
    67    54    55    1
    68    23    25   ar
    69    23    22   ar
    70    58    57    1
    71    25    26   ar
    72    97    95    1
    73    64    65    2
    74    64    72   am
    75    81    82    1
    76    81    80    1
    77    22    21    1
    78    22    24   ar
    79    55    56    2
    80   102    99    1
    81    95    96    1
    82    95    94    1
    83    26    24   ar
    84    82    83    2
    85    82    90   am
    86    90    91    1
    87    72    73    1
    88    99    98    1
    89    99   100    1
    90    91    94    1
    91    91    92    1
    92    73    74    1
    93    73    76    1
    94   101   100    2
    95    92    93    2
    96    74    75    2
    97    76    77    1
    98    77    79    1
    99    77    78    1
