@<TRIPOS>MOLECULE
tmp/4jopA01.pdb
 79 73 0 0 0
SMALL
GASTEIGER

@<TRIPOS>ATOM
      1  N         20.5480   36.1020    6.3480 N.3     1  GLY1       -0.1210
      2  CA        21.8740   36.3670    6.8680 C.3     1  GLY1        0.1940
      3  C         22.9090   35.8610    5.8940 C.2     1  GLY1        0.2454
      4  O         22.7450   34.7780    5.3250 O.2     1  GLY1       -0.2732
      5  N         23.9740   36.6450    5.6860 N.am    2  PRO2       -0.2717
      6  CA        25.0680   36.2230    4.8180 C.3     2  PRO2        0.1535
      7  C         25.8720   35.1190    5.4780 C.2     2  PRO2        0.2598
      8  O         26.1240   35.1670    6.6850 O.2     2  PRO2       -0.2715
      9  CB        25.9360   37.4810    4.7140 C.3     2  PRO2        0.0310
     10  CG        25.6570   38.2330    5.9730 C.3     2  PRO2        0.0237
     11  CD        24.2050   37.9840    6.2610 C.3     2  PRO2        0.0939
     12  N         26.2780   34.1310    4.6920 N.am    3  ILE3       -0.1978
     13  CA        27.1830   33.1350    5.2160 C.3     3  ILE3        0.1596
     14  C         28.5380   33.7710    5.5210 C.2     3  ILE3        0.2287
     15  O         29.0330   34.6170    4.7650 O.2     3  ILE3       -0.2864
     16  CB        27.3440   31.9530    4.2450 C.3     3  ILE3        0.0276
     17  CG1       26.1160   31.0390    4.3530 C.3     3  ILE3        0.0022
     18  CG2       28.6400   31.1960    4.5410 C.3     3  ILE3        0.0022
     19  CD1       26.1100   29.8560    3.4030 C.3     3  ILE3        0.0001
     20  N         32.5530   32.6080    7.0080 N.3     5  LYS5       -0.1245
     21  CA        33.4690   31.5330    7.3620 C.3     5  LYS5        0.1561
     22  C         34.4380   32.1270    8.3540 C.2     5  LYS5        0.2260
     23  O         35.0470   33.1730    8.1010 O.2     5  LYS5       -0.2867
     24  CB        34.1720   30.9420    6.1340 C.3     5  LYS5        0.0271
     25  CG        33.1810   30.5060    5.0390 C.3     5  LYS5        0.0035
     26  CD        33.6470   29.3040    4.2650 C.3     5  LYS5        0.0206
     27  CE        32.7210   29.0220    3.0880 C.3     5  LYS5        0.1093
     28  NZ        33.3660   28.0810    2.1610 N.3     5  LYS5       -0.1314
     29  N         26.5210   25.6390    9.8120 N.3    54  LEU54      -0.1245
     30  CA        26.1440   24.9430    8.5830 C.3    54  LEU54       0.1561
     31  C         27.1870   23.8980    8.2210 C.2    54  LEU54       0.2260
     32  O         26.8560   22.8360    7.7260 O.2    54  LEU54      -0.2867
     33  CB        25.9500   25.9300    7.4250 C.3    54  LEU54       0.0270
     34  CG        24.9970   27.1060    7.6600 C.3    54  LEU54       0.0019
     35  CD1       24.9930   27.9950    6.4060 C.3    54  LEU54       0.0001
     36  CD2       23.5800   26.6720    8.0480 C.3    54  LEU54       0.0001
     37  N         29.4880   19.1050    6.0890 N.3    60  ASN60      -0.1240
     38  CA        28.1310   19.6400    6.0810 C.3    60  ASN60       0.1653
     39  C         27.3300   19.1240    7.2810 C.2    60  ASN60       0.2266
     40  O         27.1600   17.9270    7.4480 O.2    60  ASN60      -0.2867
     41  CB        27.4680   19.2750    4.7360 C.3    60  ASN60       0.1155
     42  CG        26.1000   19.8850    4.5630 C.2    60  ASN60       0.2627
     43  OD1       25.6680   20.6990    5.3690 O.2    60  ASN60      -0.2716
     44  ND2       25.4010   19.4890    3.4960 N.am   60  ASN60      -0.0877
     45  N         24.2430   20.5460    8.0060 N.3    62  ARG62      -0.1231
     46  CA        22.8720   21.0270    7.8230 C.3    62  ARG62       0.1694
     47  C         21.8110   19.9540    8.0600 C.2    62  ARG62       0.2592
     48  O         20.6690   20.2640    8.3980 O.2    62  ARG62      -0.2718
     49  CB        22.6870   21.6230    6.4260 C.3    62  ARG62       0.0321
     50  CG        23.4750   22.8950    6.1780 C.3    62  ARG62       0.0489
     51  CD        23.4910   23.1750    4.6890 C.3    62  ARG62       0.2205
     52  NE        24.1630   24.4270    4.3170 N.pl3  62  ARG62      -0.0865
     53  CZ        25.4740   24.5570    4.1350 C.cat  62  ARG62       0.5346
     54  NH1       26.2950   23.5310    4.3580 N.pl3  62  ARG62       0.1354
     55  NH2       25.9780   25.7300    3.7590 N.pl3  62  ARG62       0.1354
     56  N         22.1990   18.6980    7.8760 N.am   63  ASP63      -0.1974
     57  CA        21.2500   17.5930    7.8780 C.3    63  ASP63       0.1709
     58  C         21.7040   16.4830    8.8210 C.2    63  ASP63       0.2293
     59  O         21.3700   15.3170    8.6220 O.2    63  ASP63      -0.2864
     60  CB        21.1330   17.0470    6.4510 C.3    63  ASP63       0.1436
     61  CG        19.8510   16.2800    6.2160 C.2    63  ASP63       0.3671
     62  OD1       18.8380   16.5740    6.8850 O.co2  63  ASP63      -0.2456
     63  OD2       19.8600   15.3780    5.3530 O.co2  63  ASP63      -0.2456
     64  N         31.4790   27.4070    9.0390 N.3    83  GLU83      -0.1245
     65  CA        30.6180   28.0910    8.0900 C.3    83  GLU83       0.1567
     66  C         29.3210   28.3480    8.8330 C.2    83  GLU83       0.2260
     67  O         28.6360   27.4000    9.2580 O.2    83  GLU83      -0.2867
     68  CB        30.3930   27.2100    6.8530 C.3    83  GLU83       0.0388
     69  CG        29.4220   27.8200    5.8400 C.3    83  GLU83       0.1160
     70  CD        29.2810   26.9800    4.5870 C.2    83  GLU83       0.3649
     71  OE1       30.0320   25.9980    4.4410 O.co2  83  GLU83      -0.2457
     72  OE2       28.4220   27.3070    3.7460 O.co2  83  GLU83      -0.2457
     73  N         25.7730   31.1490    9.7540 N.3    85  VAL85      -0.1245
     74  CA        24.8610   32.2250    9.3930 C.3    85  VAL85       0.1561
     75  C         23.9980   32.5640   10.5940 C.2    85  VAL85       0.2260
     76  O         23.5240   31.6790   11.3150 O.2    85  VAL85      -0.2867
     77  CB        23.9470   31.8450    8.2090 C.3    85  VAL85       0.0252
     78  CG1       22.9860   30.7230    8.6110 C.3    85  VAL85       0.0019
     79  CG2       23.1710   33.0760    7.7350 C.3    85  VAL85       0.0019
@<TRIPOS>BOND
     1    28    27    1
     2    27    26    1
     3    19    17    1
     4    44    42   am
     5    72    70   ar
     6    55    53    1
     7    53    52    2
     8    53    54    1
     9    16    17    1
    10    16    18    1
    11    16    13    1
    12    26    25    1
    13    52    51    1
    14    71    70   ar
    15    42    41    1
    16    42    43    2
    17    70    69    1
    18    51    50    1
    19    12    13    1
    20    12     7   am
    21     9     6    1
    22     9    10    1
    23    41    38    1
    24    15    14    2
    25     6     7    1
    26     6     5    1
    27    25    24    1
    28    13    14    1
    29     4     3    2
    30    63    61   ar
    31     7     8    2
    32     5     3   am
    33     5    11    1
    34    69    68    1
    35     3     2    1
    36    10    11    1
    37    38    37    1
    38    38    39    1
    39    24    21    1
    40    50    49    1
    41    61    60    1
    42    61    62   ar
    43     1     2    1
    44    35    34    1
    45    49    46    1
    46    60    57    1
    47    68    65    1
    48    20    21    1
    49    39    40    2
    50    21    22    1
    51    33    34    1
    52    33    30    1
    53    34    36    1
    54    32    31    2
    55    79    77    1
    56    46    45    1
    57    46    47    1
    58    56    57    1
    59    56    47   am
    60    57    58    1
    61    47    48    2
    62    65    66    1
    63    65    64    1
    64    23    22    2
    65    77    78    1
    66    77    74    1
    67    31    30    1
    68    30    29    1
    69    59    58    2
    70    66    67    2
    71    74    73    1
    72    74    75    1
    73    75    76    2
