@<TRIPOS>MOLECULE
tmp/4jopA00.pdb
 133 129 0 0 0
SMALL
GASTEIGER

@<TRIPOS>ATOM
      1  N         38.3400   22.8750   24.7560 N.3    15  GLY15      -0.1210
      2  CA        37.2370   22.6030   23.8610 C.3    15  GLY15       0.1956
      3  C         37.1150   23.7590   22.8960 C.2    15  GLY15       0.2612
      4  O         37.9810   24.6300   22.8420 O.2    15  GLY15      -0.2717
      5  N         36.0350   23.7640   22.1290 N.am   16  LEU16      -0.1965
      6  CA        35.7490   24.8510   21.2160 C.3    16  LEU16       0.1728
      7  C         35.2650   26.0980   21.9660 C.2    16  LEU16       0.2617
      8  O         35.3910   27.2250   21.4780 O.2    16  LEU16      -0.2715
      9  CB        34.6960   24.4020   20.2100 C.3    16  LEU16       0.0311
     10  CG        35.1280   23.2820   19.2470 C.3    16  LEU16       0.0022
     11  CD1       33.9430   22.8270   18.4200 C.3    16  LEU16       0.0001
     12  CD2       36.2480   23.7610   18.3590 C.3    16  LEU16       0.0001
     13  N         34.6840   25.8900   23.1400 N.am   17  GLY17      -0.1940
     14  CA        34.1170   26.9950   23.8930 C.3    17  GLY17       0.2014
     15  C         32.7330   27.4310   23.4380 C.2    17  GLY17       0.2639
     16  O         32.3990   28.6160   23.4850 O.2    17  GLY17      -0.2714
     17  N         31.9170   26.4780   23.0000 N.am   18  ILE18      -0.1963
     18  CA        30.5370   26.7800   22.6160 C.3    18  ILE18       0.1727
     19  C         29.5770   25.7510   23.2160 C.2    18  ILE18       0.2617
     20  O         29.9790   24.6330   23.5630 O.2    18  ILE18      -0.2715
     21  CB        30.3420   26.8100   21.0710 C.3    18  ILE18       0.0290
     22  CG1       30.7190   25.4520   20.4620 C.3    18  ILE18       0.0022
     23  CG2       31.1090   27.9690   20.4350 C.3    18  ILE18       0.0023
     24  CD1       30.3510   25.2730   18.9940 C.3    18  ILE18       0.0001
     25  N         28.3180   26.1460   23.3780 N.am   19  SER19      -0.1936
     26  CA        27.2530   25.1750   23.5820 C.3    19  SER19       0.2055
     27  C         26.3600   25.2240   22.3530 C.2    19  SER19       0.2643
     28  O         26.1520   26.2870   21.7760 O.2    19  SER19      -0.2714
     29  CB        26.4570   25.4740   24.8460 C.3    19  SER19       0.2130
     30  OG        27.3090   25.4090   25.9780 O.3    19  SER19      -0.2179
     31  N         25.8790   24.0660   21.9220 N.am   20  ILE20      -0.1963
     32  CA        24.9780   24.0120   20.7850 C.3    20  ILE20       0.1727
     33  C         23.6440   23.3400   21.1160 C.2    20  ILE20       0.2617
     34  O         23.5590   22.4850   22.0070 O.2    20  ILE20      -0.2715
     35  CB        25.6270   23.3140   19.5640 C.3    20  ILE20       0.0290
     36  CG1       26.0080   21.8690   19.9020 C.3    20  ILE20       0.0022
     37  CG2       26.8330   24.1190   19.0870 C.3    20  ILE20       0.0023
     38  CD1       26.4210   21.0440   18.6770 C.3    20  ILE20       0.0001
     39  N         22.6090   23.7540   20.3910 N.am   21  THR21      -0.1937
     40  CA        21.2980   23.1100   20.4350 C.3    21  THR21       0.2028
     41  C         20.9190   22.7090   19.0150 C.2    21  THR21       0.2642
     42  O         21.6090   23.0770   18.0540 O.2    21  THR21      -0.2714
     43  CB        20.2140   24.0620   20.9950 C.3    21  THR21       0.1808
     44  OG1       20.1090   25.2300   20.1630 O.3    21  THR21      -0.2208
     45  CG2       20.5500   24.4830   22.4180 C.3    21  THR21       0.0379
     46  N         19.8350   21.9550   18.8780 N.am   22  GLY22      -0.1954
     47  CA        19.2870   21.6500   17.5710 C.3    22  GLY22       0.1869
     48  C         19.9020   20.4680   16.8560 C.2    22  GLY22       0.2309
     49  O         20.5970   19.6420   17.4580 O.2    22  GLY22      -0.2863
     50  N         16.9130   15.9570   14.0230 N.3    25  GLU25      -0.1231
     51  CA        15.7620   15.3530   14.6930 C.3    25  GLU25       0.1699
     52  C         14.8890   16.4040   15.3800 C.2    25  GLU25       0.2592
     53  O         13.7340   16.1490   15.7360 O.2    25  GLU25      -0.2718
     54  CB        16.2010   14.2640   15.6780 C.3    25  GLU25       0.0402
     55  CG        16.8580   14.7690   16.9550 C.3    25  GLU25       0.1161
     56  CD        18.3650   14.9110   16.8350 C.2    25  GLU25       0.3649
     57  OE1       18.8330   15.5350   15.8630 O.co2  25  GLU25      -0.2457
     58  OE2       19.0830   14.3950   17.7180 O.co2  25  GLU25      -0.2457
     59  N         15.4440   17.6010   15.5380 N.am   26  HIS26      -0.1976
     60  CA        14.7480   18.6930   16.1900 C.3    26  HIS26       0.1656
     61  C         14.1010   19.6240   15.1550 C.2    26  HIS26       0.2291
     62  O         13.3430   20.5330   15.5040 O.2    26  HIS26      -0.2864
     63  CB        15.7360   19.4560   17.0840 C.3    26  HIS26       0.0771
     64  CG        16.4110   18.5880   18.1070 C.ar   26  HIS26       0.0820
     65  ND1       15.7550   18.1020   19.2170 N.ar   26  HIS26      -0.2267
     66  CD2       17.6780   18.1160   18.1870 C.ar   26  HIS26       0.1154
     67  CE1       16.5860   17.3690   19.9380 C.ar   26  HIS26       0.1986
     68  NE2       17.7590   17.3580   19.3330 N.ar   26  HIS26      -0.2212
     69  N         24.2760   28.1970   21.3160 N.3    33  SER33      -0.1202
     70  CA        23.4410   28.7030   22.4000 C.3    33  SER33       0.2020
     71  C         24.2320   29.4410   23.4770 C.2    33  SER33       0.2618
     72  O         23.6650   30.2480   24.2180 O.2    33  SER33      -0.2717
     73  CB        22.6370   27.5760   23.0470 C.3    33  SER33       0.2103
     74  OG        23.4910   26.5390   23.4890 O.3    33  SER33      -0.2182
     75  N         25.5250   29.1470   23.5750 N.am   34  GLU34      -0.1979
     76  CA        26.4080   29.8110   24.5290 C.3    34  GLU34       0.1602
     77  C         27.8080   29.9620   23.9460 C.2    34  GLU34       0.2287
     78  O         28.3000   29.0950   23.2150 O.2    34  GLU34      -0.2864
     79  CB        26.5160   29.0330   25.8480 C.3    34  GLU34       0.0415
     80  CG        25.1950   28.6140   26.4830 C.3    34  GLU34       0.1163
     81  CD        25.3860   27.9160   27.8240 C.2    34  GLU34       0.3649
     82  OE1       26.1140   26.8990   27.8810 O.co2  34  GLU34      -0.2457
     83  OE2       24.8120   28.3890   28.8270 O.co2  34  GLU34      -0.2457
     84  N         31.4580   30.4920   25.6230 N.3    36  HIS36      -0.1241
     85  CA        32.1120   30.4640   26.9280 C.3    36  HIS36       0.1621
     86  C         33.3300   31.3850   27.0000 C.2    36  HIS36       0.2264
     87  O         34.2240   31.3300   26.1600 O.2    36  HIS36      -0.2867
     88  CB        32.4520   29.0190   27.3120 C.3    36  HIS36       0.0745
     89  CG        31.2640   28.1090   27.2730 C.ar   36  HIS36       0.0817
     90  ND1       30.2550   28.1600   28.2130 N.ar   36  HIS36      -0.2268
     91  CD2       30.9000   27.1580   26.3820 C.ar   36  HIS36       0.1154
     92  CE1       29.3300   27.2660   27.9100 C.ar   36  HIS36       0.1986
     93  NE2       29.6960   26.6470   26.8000 N.ar   36  HIS36      -0.2212
     94  N         21.8260   15.8300   16.1800 N.3    66  HIS66      -0.1226
     95  CA        22.5430   16.5480   17.2100 C.3    66  HIS66       0.1752
     96  C         23.8340   15.8380   17.6140 C.2    66  HIS66       0.2595
     97  O         24.8960   16.4420   17.6100 O.2    66  HIS66      -0.2718
     98  CB        21.6720   16.7430   18.4460 C.3    66  HIS66       0.0759
     99  CG        22.3370   17.5550   19.5140 C.ar   66  HIS66       0.0818
    100  ND1       22.1690   18.9180   19.6250 N.ar   66  HIS66      -0.2268
    101  CD2       23.2100   17.2040   20.4880 C.ar   66  HIS66       0.1154
    102  CE1       22.8810   19.3650   20.6440 C.ar   66  HIS66       0.1986
    103  NE2       23.5300   18.3480   21.1780 N.ar   66  HIS66      -0.2212
    104  N         23.7430   14.5550   17.9640 N.am   67  LYS67      -0.1980
    105  CA        24.9000   13.8430   18.4990 C.3    67  LYS67       0.1596
    106  C         26.0330   13.6710   17.4760 C.2    67  LYS67       0.2287
    107  O         27.2220   13.7460   17.8160 O.2    67  LYS67      -0.2864
    108  CB        24.4800   12.4790   19.0740 C.3    67  LYS67       0.0298
    109  CG        25.6290   11.7340   19.7310 C.3    67  LYS67       0.0038
    110  CD        26.2580   12.5860   20.8240 C.3    67  LYS67       0.0206
    111  CE        27.5780   11.9980   21.3100 C.3    67  LYS67       0.1093
    112  NZ        27.4080   10.6120   21.8130 N.3    67  LYS67      -0.1314
    113  N         27.8450   16.9070   17.2740 N.3    70  VAL70      -0.1245
    114  CA        28.7030   16.9950   18.4540 C.3    70  VAL70       0.1561
    115  C         30.0020   16.2270   18.2320 C.2    70  VAL70       0.2260
    116  O         31.0970   16.7280   18.5190 O.2    70  VAL70      -0.2867
    117  CB        27.9970   16.4610   19.7130 C.3    70  VAL70       0.0252
    118  CG1       29.0080   16.2080   20.8400 C.3    70  VAL70       0.0019
    119  CG2       26.9010   17.4340   20.1650 C.3    70  VAL70       0.0019
    120  N         32.2330   17.8980   15.5680 N.3    73  LEU73      -0.1231
    121  CA        32.8170   19.1160   16.1120 C.3    73  LEU73       0.1693
    122  C         33.8990   18.7960   17.1420 C.2    73  LEU73       0.2592
    123  O         34.9440   19.4400   17.1800 O.2    73  LEU73      -0.2718
    124  CB        31.7350   19.9920   16.7420 C.3    73  LEU73       0.0284
    125  CG        30.7800   20.6590   15.7510 C.3    73  LEU73       0.0019
    126  CD1       29.4740   21.0530   16.4440 C.3    73  LEU73       0.0001
    127  CD2       31.4280   21.8930   15.1450 C.3    73  LEU73       0.0001
    128  N         33.6640   17.7650   17.9470 N.am   74  SER74      -0.1952
    129  CA        34.5720   17.4530   19.0410 C.3    74  SER74       0.1924
    130  C         35.8550   16.8230   18.5140 C.2    74  SER74       0.2314
    131  O         36.8620   16.7620   19.2250 O.2    74  SER74      -0.2863
    132  CB        33.8850   16.5600   20.0840 C.3    74  SER74       0.2116
    133  OG        33.7810   15.2260   19.6180 O.3    74  SER74      -0.2180
@<TRIPOS>BOND
     1    50    51    1
     2    51    52    1
     3    51    54    1
     4   127   125    1
     5    61    62    2
     6    61    60    1
     7    52    59   am
     8    52    53    2
     9    59    60    1
    10   120   121    1
    11    54    55    1
    12   125   126    1
    13   125   124    1
    14    57    56   ar
    15   121   124    1
    16   121   122    1
    17    94    95    1
    18    60    63    1
    19    56    55    1
    20    56    58   ar
    21    48    49    2
    22    48    47    1
    23    63    64    1
    24   122   123    2
    25   122   128   am
    26    95    96    1
    27    95    98    1
    28   113   114    1
    29   106   107    2
    30   106   105    1
    31    47    46    1
    32    97    96    2
    33    96   104   am
    34   128   129    1
    35   104   105    1
    36    42    41    2
    37    64    66   ar
    38    64    65   ar
    39    66    68   ar
    40   115   114    1
    41   115   116    2
    42    12    10    1
    43    11    10    1
    44    98    99    1
    45   114   117    1
    46   105   108    1
    47   130   129    1
    48   130   131    2
    49    38    36    1
    50    46    41   am
    51    24    22    1
    52    41    40    1
    53   129   132    1
    54   108   109    1
    55    37    35    1
    56    65    67   ar
    57    10     9    1
    58    68    67   ar
    59    99   100   ar
    60    99   101   ar
    61    35    36    1
    62    35    32    1
    63   133   132    1
    64   100   102   ar
    65   117   119    1
    66   117   118    1
    67   109   110    1
    68    44    43    1
    69     9     6    1
    70    39    40    1
    71    39    33   am
    72    23    21    1
    73    40    43    1
    74    22    21    1
    75   101   103   ar
    76   102   103   ar
    77    32    33    1
    78    32    31    1
    79   110   111    1
    80    43    45    1
    81    21    18    1
    82    33    34    2
    83     6     7    1
    84     6     5    1
    85   111   112    1
    86    69    70    1
    87     8     7    2
    88    28    27    2
    89    31    27   am
    90     7    13   am
    91     5     3   am
    92    27    26    1
    93    70    73    1
    94    70    71    1
    95    18    17    1
    96    18    19    1
    97     4     3    2
    98     3     2    1
    99    17    15   am
   100    73    74    1
   101    13    14    1
   102    78    77    2
   103    19    25   am
   104    19    20    2
   105    25    26    1
   106    15    16    2
   107    15    14    1
   108    71    75   am
   109    71    72    2
   110    75    76    1
   111    26    29    1
   112     2     1    1
   113    77    76    1
   114    76    79    1
   115    29    30    1
   116    84    85    1
   117    79    80    1
   118    87    86    2
   119    91    93   ar
   120    91    89   ar
   121    80    81    1
   122    93    92   ar
   123    85    86    1
   124    85    88    1
   125    89    88    1
   126    89    90   ar
   127    81    82   ar
   128    81    83   ar
   129    92    90   ar
