@<TRIPOS>MOLECULE
tmp/4josB00.pdb
 90 86 0 0 0
SMALL
GASTEIGER

@<TRIPOS>ATOM
      1  N         18.0150    4.0620   86.3640 N.3    76  VAL76      -0.1231
      2  CA        16.9870    3.1720   85.8300 C.3    76  VAL76       0.1692
      3  C         16.0460    2.7400   86.9370 C.2    76  VAL76       0.2592
      4  O         16.3850    2.7260   88.1250 O.2    76  VAL76      -0.2718
      5  CB        17.6320    1.9420   85.1150 C.3    76  VAL76       0.0266
      6  CG1       18.6890    2.3960   84.0840 C.3    76  VAL76       0.0020
      7  CG2       18.2310    0.9880   86.1090 C.3    76  VAL76       0.0020
      8  N         14.8480    2.3640   86.5440 N.am   77  ALA77      -0.1966
      9  CA        13.8120    1.9880   87.5090 C.3    77  ALA77       0.1728
     10  C         12.8040    1.0140   86.8950 C.2    77  ALA77       0.2616
     11  O         12.6900    0.9010   85.6690 O.2    77  ALA77      -0.2715
     12  CB        13.0710    3.2170   88.0060 C.3    77  ALA77       0.0334
     13  N         12.0400    0.3860   87.7650 N.am   78  GLY78      -0.1955
     14  CA        10.8820   -0.3780   87.3540 C.3    78  GLY78       0.1869
     15  C          9.6740    0.5150   87.2030 C.2    78  GLY78       0.2309
     16  O          9.4560    1.4300   88.0210 O.2    78  GLY78      -0.2863
     17  N         15.1430   -3.3840   97.9830 N.3   148  GLN148     -0.1231
     18  CA        14.8220   -4.6490   97.3060 C.3   148  GLN148      0.1698
     19  C         14.6440   -4.3790   95.8250 C.2   148  GLN148      0.2592
     20  O         14.1100   -3.3360   95.4030 O.2   148  GLN148     -0.2718
     21  CB        13.5650   -5.2690   97.8700 C.3   148  GLN148      0.0381
     22  CG        13.5300   -5.3290   99.3770 C.3   148  GLN148      0.0905
     23  CD        13.1010   -4.0340  100.0270 C.2   148  GLN148      0.2608
     24  OE1       12.2180   -3.3320   99.5090 O.2   148  GLN148     -0.2717
     25  NE2       13.7620   -3.6800  101.1330 N.am  148  GLN148     -0.0878
     26  N         15.1110   -5.3300   95.0330 N.am  149  PHE149     -0.1962
     27  CA        14.8020   -5.3470   93.6220 C.3   149  PHE149      0.1771
     28  C         13.4580   -6.0360   93.4770 C.2   149  PHE149      0.2619
     29  O         13.3520   -7.2350   93.8010 O.2   149  PHE149     -0.2715
     30  CB        15.8870   -6.0450   92.7980 C.3   149  PHE149      0.0574
     31  CG        15.6110   -5.9680   91.3160 C.ar  149  PHE149     -0.0200
     32  CD1       14.7840   -6.8730   90.6910 C.ar  149  PHE149     -0.0042
     33  CD2       16.1240   -4.9300   90.5760 C.ar  149  PHE149     -0.0042
     34  CE1       14.5190   -6.7650   89.3360 C.ar  149  PHE149     -0.0003
     35  CE2       15.8380   -4.7970   89.2350 C.ar  149  PHE149     -0.0003
     36  CZ        15.0480   -5.7090   88.6220 C.ar  149  PHE149     -0.0000
     37  N         12.4290   -5.2950   93.0610 N.am  150  VAL150     -0.1977
     38  CA        11.0480   -5.7730   93.0950 C.3   150  VAL150      0.1596
     39  C         10.7130   -6.5160   91.8050 C.2   150  VAL150      0.2287
     40  O         10.8990   -6.0120   90.7160 O.2   150  VAL150     -0.2864
     41  CB        10.0920   -4.6100   93.3620 C.3   150  VAL150      0.0276
     42  CG1        8.6300   -5.0400   93.2620 C.3   150  VAL150      0.0022
     43  CG2       10.3540   -4.0410   94.7480 C.3   150  VAL150      0.0022
     44  N          9.6230    2.4420   90.6610 N.3   168  ILE168     -0.1231
     45  CA        10.1740    1.7920   91.8580 C.3   168  ILE168      0.1692
     46  C         11.6550    1.5230   91.6240 C.2   168  ILE168      0.2591
     47  O         12.0890    1.1100   90.5360 O.2   168  ILE168     -0.2718
     48  CB         9.3790    0.5100   92.1620 C.3   168  ILE168      0.0266
     49  CG1        9.6490    0.0010   93.5880 C.3   168  ILE168      0.0019
     50  CG2        9.5490   -0.5590   91.1030 C.3   168  ILE168      0.0020
     51  CD1        8.5670   -0.9450   94.1030 C.3   168  ILE168      0.0001
     52  N         12.4400    1.8190   92.6440 N.am  169  GLU169     -0.1979
     53  CA        13.8870    1.8050   92.5210 C.3   169  GLU169      0.1602
     54  C         14.5310    1.7660   93.9040 C.2   169  GLU169      0.2287
     55  O         13.8530    1.5300   94.9010 O.2   169  GLU169     -0.2864
     56  CB        14.4050    2.9250   91.5790 C.3   169  GLU169      0.0415
     57  CG        13.7100    4.2640   91.6920 C.3   169  GLU169      0.1163
     58  CD        14.3260    5.1740   92.7280 C.2   169  GLU169      0.3649
     59  OE1       14.5850    6.3660   92.4060 O.co2 169  GLU169     -0.2457
     60  OE2       14.5380    4.7060   93.8750 O.co2 169  GLU169     -0.2457
     61  N         13.3640    0.2330   82.8970 N.3   191  SER191     -0.1202
     62  CA        14.0540   -0.9500   82.3970 C.3   191  SER191      0.2020
     63  C         13.2170   -2.2200   82.4650 C.2   191  SER191      0.2618
     64  O         13.6010   -3.2400   81.8950 O.2   191  SER191     -0.2717
     65  CB        15.3460   -1.1570   83.1790 C.3   191  SER191      0.2103
     66  OG        15.0800   -1.2970   84.5740 O.3   191  SER191     -0.2182
     67  N         12.1110   -2.1620   83.1870 N.am  192  ASP192     -0.1973
     68  CA        11.2590   -3.3380   83.4540 C.3   192  ASP192      0.1709
     69  C         10.0010   -2.8560   84.1230 C.2   192  ASP192      0.2293
     70  O          9.8810   -1.6540   84.4120 O.2   192  ASP192     -0.2864
     71  CB        11.9890   -4.3500   84.3500 C.3   192  ASP192      0.1436
     72  CG        12.4060   -3.7350   85.7020 C.2   192  ASP192      0.3671
     73  OD1       11.5620   -3.7390   86.6520 O.co2 192  ASP192     -0.2456
     74  OD2       13.5710   -3.2230   85.7780 O.co2 192  ASP192     -0.2456
     75  N          8.7560   -4.4250   87.0330 N.3   194  ALA194     -0.1245
     76  CA         8.7930   -4.8180   88.4550 C.3   194  ALA194      0.1562
     77  C          7.9200   -6.0270   88.8130 C.2   194  ALA194      0.2260
     78  O          7.4850   -6.1910   89.9510 O.2   194  ALA194     -0.2867
     79  CB         8.4200   -3.6390   89.3260 C.3   194  ALA194      0.0290
     80  N         15.2490   -6.2630   82.9380 N.3   202  PHE202     -0.1241
     81  CA        16.3470   -5.4330   83.3740 C.3   202  PHE202      0.1605
     82  C         17.6050   -5.7920   82.6420 C.2   202  PHE202      0.2264
     83  O         18.3440   -4.9390   82.1970 O.2   202  PHE202     -0.2867
     84  CB        16.5440   -5.5860   84.9010 C.3   202  PHE202      0.0534
     85  CG        17.6790   -4.7800   85.4590 C.ar  202  PHE202     -0.0203
     86  CD1       18.9720   -5.2810   85.4410 C.ar  202  PHE202     -0.0042
     87  CD2       17.4550   -3.5410   86.0240 C.ar  202  PHE202     -0.0042
     88  CE1       20.0230   -4.5540   85.9630 C.ar  202  PHE202     -0.0003
     89  CE2       18.5080   -2.8210   86.5670 C.ar  202  PHE202     -0.0003
     90  CZ        19.7940   -3.3160   86.5240 C.ar  202  PHE202     -0.0000
@<TRIPOS>BOND
     1    64    63    2
     2    83    82    2
     3    62    63    1
     4    62    61    1
     5    62    65    1
     6    63    67   am
     7    82    81    1
     8    80    81    1
     9    65    66    1
    10    67    68    1
    11    81    84    1
    12    68    69    1
    13    68    71    1
    14     6     5    1
    15    69    70    2
    16    71    72    1
    17    84    85    1
    18     5     2    1
    19     5     7    1
    20    86    85   ar
    21    86    88   ar
    22    85    87   ar
    23    11    10    2
    24    72    74   ar
    25    72    73   ar
    26     2     1    1
    27     2     3    1
    28    88    90   ar
    29    87    89   ar
    30    90    89   ar
    31     8     3   am
    32     8     9    1
    33    10     9    1
    34    10    13   am
    35     3     4    2
    36    75    76    1
    37    15    14    1
    38    15    16    2
    39    14    13    1
    40     9    12    1
    41    76    77    1
    42    76    79    1
    43    36    35   ar
    44    36    34   ar
    45    77    78    2
    46    35    33   ar
    47    34    32   ar
    48    47    46    2
    49    33    31   ar
    50    44    45    1
    51    32    31   ar
    52    40    39    2
    53    50    48    1
    54    31    30    1
    55    56    57    1
    56    56    53    1
    57    46    45    1
    58    46    52   am
    59    57    58    1
    60    39    38    1
    61    45    48    1
    62    48    49    1
    63    59    58   ar
    64    53    52    1
    65    53    54    1
    66    58    60   ar
    67    30    27    1
    68    37    38    1
    69    37    28   am
    70    38    41    1
    71    42    41    1
    72    41    43    1
    73    28    27    1
    74    28    29    2
    75    49    51    1
    76    27    26    1
    77    54    55    2
    78    26    19   am
    79    20    19    2
    80    19    18    1
    81    18    21    1
    82    18    17    1
    83    21    22    1
    84    22    23    1
    85    24    23    2
    86    23    25   am
