@<TRIPOS>MOLECULE
tmp/4jouA00.pdb
 221 213 0 0 0
SMALL
GASTEIGER

@<TRIPOS>ATOM
      1  N          6.1270   17.7820   33.3270 N.3    68  VAL68      -0.1245
      2  CA         5.9360   16.4430   32.8120 C.3    68  VAL68       0.1561
      3  C          4.8210   16.4280   31.7910 C.2    68  VAL68       0.2260
      4  O          3.7160   16.8640   32.0860 O.2    68  VAL68      -0.2867
      5  CB         5.5360   15.5110   33.9410 C.3    68  VAL68       0.0252
      6  CG1        5.6230   14.0750   33.4620 C.3    68  VAL68       0.0019
      7  CG2        6.4350   15.7340   35.1510 C.3    68  VAL68       0.0019
      8  N          2.5270   14.0340   29.3340 N.3    70  ASN70      -0.1240
      9  CA         2.1270   12.7130   28.8420 C.3    70  ASN70       0.1653
     10  C          1.4830   12.8670   27.4830 C.2    70  ASN70       0.2266
     11  O          0.5330   13.6310   27.3130 O.2    70  ASN70      -0.2867
     12  CB         1.1970   11.9760   29.7970 C.3    70  ASN70       0.1155
     13  CG         1.1470   10.4960   29.5010 C.2    70  ASN70       0.2627
     14  OD1        1.9140   10.0010   28.6820 O.2    70  ASN70      -0.2716
     15  ND2        0.2560    9.7790   30.1620 N.am   70  ASN70      -0.0877
     16  N         -0.4330   11.3180   24.4930 N.3    72  ILE72      -0.1245
     17  CA        -1.3590   10.2320   24.2300 C.3    72  ILE72       0.1561
     18  C         -2.0600   10.3470   22.8530 C.2    72  ILE72       0.2260
     19  O         -2.8410   11.2580   22.6110 O.2    72  ILE72      -0.2867
     20  CB        -2.4320   10.1790   25.3450 C.3    72  ILE72       0.0252
     21  CG1       -1.7680   10.1320   26.7120 C.3    72  ILE72       0.0019
     22  CG2       -3.3070    8.9520   25.1930 C.3    72  ILE72       0.0019
     23  CD1       -2.7320   10.2210   27.8630 C.3    72  ILE72       0.0001
     24  N        -12.3150    9.0340   25.8310 N.3    82  PHE82      -0.1241
     25  CA       -11.1020    9.5150   26.4450 C.3    82  PHE82       0.1605
     26  C        -11.3290   10.8770   27.1120 C.2    82  PHE82       0.2264
     27  O        -11.0260   11.0690   28.2900 O.2    82  PHE82      -0.2867
     28  CB       -10.0150    9.6000   25.3620 C.3    82  PHE82       0.0534
     29  CG        -8.7150   10.1350   25.8570 C.ar   82  PHE82      -0.0203
     30  CD1       -8.4820   11.5020   25.8810 C.ar   82  PHE82      -0.0042
     31  CD2       -7.7270    9.2820   26.3150 C.ar   82  PHE82      -0.0042
     32  CE1       -7.2810   12.0170   26.3520 C.ar   82  PHE82      -0.0003
     33  CE2       -6.5240    9.7850   26.7920 C.ar   82  PHE82      -0.0003
     34  CZ        -6.3050   11.1560   26.8150 C.ar   82  PHE82      -0.0000
     35  N        -13.0790   10.2520   29.9450 N.3    85  LYS85      -0.1231
     36  CA       -12.3770    9.3950   30.8800 C.3    85  LYS85       0.1693
     37  C        -11.5210   10.3090   31.7520 C.2    85  LYS85       0.2592
     38  O        -11.0720    9.9040   32.8150 O.2    85  LYS85      -0.2718
     39  CB       -11.5120    8.3590   30.1510 C.3    85  LYS85       0.0285
     40  CG       -11.3990    7.0240   30.8740 C.3    85  LYS85       0.0035
     41  CD       -12.6750    6.1850   30.7790 C.3    85  LYS85       0.0206
     42  CE       -12.6960    5.1280   31.8780 C.3    85  LYS85       0.1093
     43  NZ       -13.5740    3.9460   31.6110 N.3    85  LYS85      -0.1314
     44  N        -11.3040   11.5440   31.3020 N.am   86  PHE86      -0.1976
     45  CA       -10.6030   12.5220   32.1130 C.3    86  PHE86       0.1639
     46  C        -11.5240   13.3780   32.9140 C.2    86  PHE86       0.2290
     47  O        -11.2330   13.6800   34.0490 O.2    86  PHE86      -0.2864
     48  CB        -9.6810   13.3720   31.2780 C.3    86  PHE86       0.0560
     49  CG        -8.3500   12.7560   31.1440 C.ar   86  PHE86      -0.0200
     50  CD1       -8.1420   11.7570   30.2160 C.ar   86  PHE86      -0.0042
     51  CD2       -7.3410   13.0780   32.0290 C.ar   86  PHE86      -0.0042
     52  CE1       -6.9240   11.1340   30.1220 C.ar   86  PHE86      -0.0003
     53  CE2       -6.1190   12.4610   31.9440 C.ar   86  PHE86      -0.0003
     54  CZ        -5.9080   11.4900   30.9840 C.ar   86  PHE86      -0.0000
     55  N        -13.7110   12.2020   34.2850 N.3    88  ASN88      -0.1225
     56  CA       -13.6980   11.2260   35.3900 C.3    88  ASN88       0.1785
     57  C        -12.4770   11.3320   36.3040 C.2    88  ASN88       0.2597
     58  O        -12.5210   10.8540   37.4330 O.2    88  ASN88      -0.2718
     59  CB       -13.7910    9.7790   34.8570 C.3    88  ASN88       0.1169
     60  CG       -15.1400    9.4560   34.2320 C.2    88  ASN88       0.2627
     61  OD1      -16.1510   10.0790   34.5420 O.2    88  ASN88      -0.2716
     62  ND2      -15.1570    8.4650   33.3490 N.am   88  ASN88      -0.0877
     63  N        -11.3930   11.9360   35.8190 N.am   89  ARG89      -0.1966
     64  CA       -10.2310   12.2150   36.6580 C.3    89  ARG89       0.1729
     65  C        -10.6870   12.7450   38.0030 C.2    89  ARG89       0.2616
     66  O        -11.5500   13.6260   38.0670 O.2    89  ARG89      -0.2715
     67  CB        -9.3090   13.2500   36.0120 C.3    89  ARG89       0.0348
     68  CG        -9.8450   14.6760   36.0460 C.3    89  ARG89       0.0492
     69  CD        -8.9700   15.6140   35.2410 C.3    89  ARG89       0.2205
     70  NE        -7.8210   16.0340   36.0380 N.pl3  89  ARG89      -0.0865
     71  CZ        -7.8620   16.9300   37.0230 C.cat  89  ARG89       0.5346
     72  NH1       -8.9990   17.5330   37.3580 N.pl3  89  ARG89       0.1354
     73  NH2       -6.7550   17.2240   37.6840 N.pl3  89  ARG89       0.1354
     74  N        -10.1150   12.2030   39.0720 N.am   90  ALA90      -0.1963
     75  CA       -10.4280   12.6680   40.4210 C.3    90  ALA90       0.1728
     76  C         -9.7050   13.9790   40.7150 C.2    90  ALA90       0.2617
     77  O        -10.1290   14.7490   41.5790 O.2    90  ALA90      -0.2715
     78  CB       -10.0590   11.6100   41.4540 C.3    90  ALA90       0.0334
     79  N         -8.6230   14.2400   39.9850 N.am   91  GLY91      -0.1940
     80  CA        -7.7640   15.3580   40.3080 C.3    91  GLY91       0.2014
     81  C         -7.3380   15.2020   41.7530 C.2    91  GLY91       0.2639
     82  O         -7.7100   15.9970   42.6200 O.2    91  GLY91      -0.2714
     83  N         -6.6210   14.1170   42.0160 N.am   92  LYS92      -0.1963
     84  CA        -5.9960   13.9070   43.3090 C.3    92  LYS92       0.1728
     85  C         -4.5710   14.4120   43.2390 C.2    92  LYS92       0.2616
     86  O         -3.9060   14.6040   44.2540 O.2    92  LYS92      -0.2715
     87  CB        -6.0500   12.4320   43.6930 C.3    92  LYS92       0.0311
     88  CG        -7.4630   11.9830   44.0340 C.3    92  LYS92       0.0038
     89  CD        -7.5090   10.7810   44.9720 C.3    92  LYS92       0.0206
     90  CE        -7.9670    9.5150   44.2630 C.3    92  LYS92       0.1093
     91  NZ        -9.4200    9.5020   43.9090 N.3    92  LYS92      -0.1314
     92  N         -4.1140   14.6350   42.0180 N.am   93  VAL93      -0.1977
     93  CA        -2.8220   15.2440   41.7800 C.3    93  VAL93       0.1596
     94  C         -2.7600   16.6630   42.3270 C.2    93  VAL93       0.2287
     95  O         -1.7580   17.0570   42.9090 O.2    93  VAL93      -0.2864
     96  CB        -2.4850   15.2250   40.2650 C.3    93  VAL93       0.0276
     97  CG1       -1.8380   16.5160   39.7890 C.3    93  VAL93       0.0022
     98  CG2       -1.5770   14.0520   39.9570 C.3    93  VAL93       0.0022
     99  N         -1.8500   21.7270   36.3820 N.3   102  ILE102     -0.1245
    100  CA        -2.1650   20.6770   35.4080 C.3   102  ILE102      0.1561
    101  C         -2.9990   21.2630   34.2750 C.2   102  ILE102      0.2260
    102  O         -3.8100   22.1660   34.4720 O.2   102  ILE102     -0.2867
    103  CB        -2.9220   19.4750   36.0290 C.3   102  ILE102      0.0252
    104  CG1       -3.0520   18.3220   35.0270 C.3   102  ILE102      0.0019
    105  CG2       -4.3070   19.8710   36.4940 C.3   102  ILE102      0.0019
    106  CD1       -3.5960   17.0370   35.6250 C.3   102  ILE102      0.0001
    107  N         -1.3890   15.6470   28.5650 N.3   115  ILE115     -0.1245
    108  CA        -1.6450   15.9750   29.9640 C.3   115  ILE115      0.1561
    109  C         -0.3340   16.5260   30.4690 C.2   115  ILE115      0.2260
    110  O          0.6790   15.8010   30.5650 O.2   115  ILE115     -0.2867
    111  CB        -2.1020   14.7750   30.8050 C.3   115  ILE115      0.0252
    112  CG1       -3.4620   14.2860   30.3310 C.3   115  ILE115      0.0019
    113  CG2       -2.2580   15.1460   32.2720 C.3   115  ILE115      0.0019
    114  CD1       -3.3620   13.2230   29.2710 C.3   115  ILE115      0.0001
    115  N          1.4990   18.3490   33.5110 N.3   117  THR117     -0.1218
    116  CA         1.5420   18.7350   34.9020 C.3   117  THR117      0.1862
    117  C          2.8340   19.5010   35.2000 C.2   117  THR117      0.2287
    118  O          3.9270   19.0460   34.8180 O.2   117  THR117     -0.2866
    119  CB         1.5390   17.5070   35.8190 C.3   117  THR117      0.1770
    120  OG1        2.6950   16.7180   35.5480 O.3   117  THR117     -0.2211
    121  CG2        0.3240   16.6690   35.5940 C.3   117  THR117      0.0375
    122  N          7.3850   15.6610   41.8150 N.3   125  PHE125     -0.1241
    123  CA         6.7570   14.6660   40.9470 C.3   125  PHE125      0.1605
    124  C          7.1810   13.2600   41.3540 C.2   125  PHE125      0.2264
    125  O          6.3390   12.3830   41.5320 O.2   125  PHE125     -0.2867
    126  CB         7.1350   14.9460   39.4940 C.3   125  PHE125      0.0534
    127  CG         7.0130   13.7630   38.5710 C.ar  125  PHE125     -0.0203
    128  CD1        5.7960   13.4100   38.0350 C.ar  125  PHE125     -0.0042
    129  CD2        8.1320   13.0530   38.1930 C.ar  125  PHE125     -0.0042
    130  CE1        5.6960   12.3530   37.1620 C.ar  125  PHE125     -0.0003
    131  CE2        8.0350   11.9840   37.3300 C.ar  125  PHE125     -0.0003
    132  CZ         6.8190   11.6330   36.8120 C.ar  125  PHE125     -0.0000
    133  N          5.1110   12.0890   44.2080 N.3   128  TRP128     -0.1227
    134  CA         3.7130   11.8140   43.9210 C.3   128  TRP128      0.1737
    135  C          3.5600   10.5260   43.1310 C.2   128  TRP128      0.2595
    136  O          2.6460    9.7440   43.3670 O.2   128  TRP128     -0.2718
    137  CB         3.0750   12.9700   43.1570 C.3   128  TRP128      0.0564
    138  CG         1.8790   12.5180   42.4510 C.ar  128  TRP128      0.0003
    139  CD1        0.6630   12.2130   42.9990 C.ar  128  TRP128      0.0946
    140  CD2        1.7820   12.2310   41.0600 C.ar  128  TRP128      0.0152
    141  NE1       -0.1940   11.7770   42.0210 N.ar  128  TRP128     -0.2442
    142  CE2        0.4710   11.7770   40.8200 C.ar  128  TRP128      0.0810
    143  CE3        2.6730   12.3240   39.9890 C.ar  128  TRP128      0.0012
    144  CZ2        0.0290   11.4190   39.5490 C.ar  128  TRP128      0.0191
    145  CZ3        2.2310   11.9740   38.7250 C.ar  128  TRP128      0.0001
    146  CH2        0.9200   11.5250   38.5170 C.ar  128  TRP128      0.0015
    147  N          4.4640   10.3090   42.1950 N.am  129  GLN129     -0.1979
    148  CA         4.4390    9.1070   41.3920 C.3   129  GLN129      0.1601
    149  C          4.4290    7.8280   42.2330 C.2   129  GLN129      0.2287
    150  O          3.7730    6.8560   41.8830 O.2   129  GLN129     -0.2864
    151  CB         5.6300    9.1160   40.4460 C.3   129  GLN129      0.0394
    152  CG         5.8600    7.8140   39.7120 C.3   129  GLN129      0.0908
    153  CD         6.2560    8.0650   38.2930 C.2   129  GLN129      0.2608
    154  OE1        7.4420    8.2040   37.9760 O.2   129  GLN129     -0.2717
    155  NE2        5.2560    8.1710   37.4240 N.am  129  GLN129     -0.0878
    156  N         -2.0940    8.1180   45.4930 N.3   133  SER133     -0.1202
    157  CA        -2.8750    8.9860   44.6130 C.3   133  SER133      0.2020
    158  C         -2.4230    8.9260   43.1350 C.2   133  SER133      0.2618
    159  O         -3.0690    9.5290   42.2730 O.2   133  SER133     -0.2717
    160  CB        -2.8490   10.4280   45.1310 C.3   133  SER133      0.2103
    161  OG        -1.5200   10.8690   45.3500 O.3   133  SER133     -0.2182
    162  N         -1.3180    8.2280   42.8460 N.am  134  TYR134     -0.1975
    163  CA        -0.9930    7.8210   41.4640 C.3   134  TYR134      0.1639
    164  C         -1.7970    6.5740   41.0870 C.2   134  TYR134      0.2290
    165  O         -2.2760    6.4600   39.9550 O.2   134  TYR134     -0.2864
    166  CB         0.5130    7.5290   41.2860 C.3   134  TYR134      0.0560
    167  CG         0.9240    7.0560   39.8800 C.ar  134  TYR134     -0.0198
    168  CD1        0.8700    5.7020   39.5260 C.ar  134  TYR134     -0.0009
    169  CD2        1.3800    7.9620   38.9140 C.ar  134  TYR134     -0.0009
    170  CE1        1.2470    5.2720   38.2580 C.ar  134  TYR134      0.0417
    171  CE2        1.7560    7.5400   37.6430 C.ar  134  TYR134      0.0417
    172  CZ         1.6900    6.1980   37.3190 C.ar  134  TYR134      0.1957
    173  OH         2.0570    5.7860   36.0580 O.3   134  TYR134     -0.2866
    174  N         -4.6670    5.4650   42.5290 N.3   136  GLU136     -0.1231
    175  CA        -6.1320    5.6030   42.5420 C.3   136  GLU136      0.1699
    176  C         -6.6070    6.2920   41.2530 C.2   136  GLU136      0.2592
    177  O         -7.7970    6.3080   40.9440 O.2   136  GLU136     -0.2718
    178  CB        -6.6260    6.3330   43.7970 C.3   136  GLU136      0.0402
    179  CG        -8.1270    6.1800   44.0470 C.3   136  GLU136      0.1161
    180  CD        -8.4980    6.1360   45.5240 C.2   136  GLU136      0.3649
    181  OE1       -9.5500    6.6960   45.9000 O.co2 136  GLU136     -0.2457
    182  OE2       -7.7430    5.5360   46.3150 O.co2 136  GLU136     -0.2457
    183  N         -5.6590    6.8530   40.5080 N.am  137  ALA137     -0.1966
    184  CA        -5.8810    7.2440   39.1250 C.3   137  ALA137      0.1728
    185  C         -5.5560    6.0850   38.1580 C.2   137  ALA137      0.2616
    186  O         -6.0990    6.0410   37.0520 O.2   137  ALA137     -0.2715
    187  CB        -5.0470    8.4690   38.7930 C.3   137  ALA137      0.0334
    188  N         -4.6670    5.1660   38.5650 N.am  138  HIS138     -0.1973
    189  CA        -4.3670    3.9310   37.7950 C.3   138  HIS138      0.1656
    190  C         -4.4610    2.6620   38.6560 C.2   138  HIS138      0.2291
    191  O         -3.4430    2.1690   39.1650 O.2   138  HIS138     -0.2864
    192  CB        -2.9710    3.9740   37.1530 C.3   138  HIS138      0.0771
    193  CG        -2.6940    5.2190   36.3780 C.ar  138  HIS138      0.0820
    194  ND1       -1.4860    5.8760   36.4500 N.ar  138  HIS138     -0.2267
    195  CD2       -3.4680    5.9390   35.5320 C.ar  138  HIS138      0.1154
    196  CE1       -1.5220    6.9450   35.6780 C.ar  138  HIS138      0.1986
    197  NE2       -2.7160    7.0080   35.1140 N.ar  138  HIS138     -0.2212
    198  N         -6.6830    3.9790   21.2870 N.3   142  PHE142     -0.1241
    199  CA        -5.3670    4.6290   21.2210 C.3   142  PHE142      0.1605
    200  C         -4.6980    4.2070   19.9190 C.2   142  PHE142      0.2264
    201  O         -4.5090    3.0130   19.6590 O.2   142  PHE142     -0.2867
    202  CB        -4.4830    4.3190   22.4550 C.3   142  PHE142      0.0534
    203  CG        -5.1300    4.6910   23.7690 C.ar  142  PHE142     -0.0203
    204  CD1       -5.1480    6.0140   24.1990 C.ar  142  PHE142     -0.0042
    205  CD2       -5.7580    3.7180   24.5570 C.ar  142  PHE142     -0.0042
    206  CE1       -5.7660    6.3620   25.3900 C.ar  142  PHE142     -0.0003
    207  CE2       -6.3730    4.0600   25.7510 C.ar  142  PHE142     -0.0003
    208  CZ        -6.3770    5.3830   26.1650 C.ar  142  PHE142     -0.0000
    209  N          1.2840    5.7950   24.0980 N.3   146  SER146     -0.1217
    210  CA         1.5590    7.0370   24.7910 C.3   146  SER146      0.1889
    211  C          2.9880    7.0700   25.1790 C.2   146  SER146      0.2288
    212  O          3.6020    6.0140   25.3190 O.2   146  SER146     -0.2866
    213  CB         0.7720    7.0890   26.0900 C.3   146  SER146      0.2089
    214  OG         1.0620    5.9380   26.8810 O.3   146  SER146     -0.2183
    215  N          5.8210    9.6850   27.8120 N.3   148  VAL148     -0.1245
    216  CA         5.9960   10.8290   28.6880 C.3   148  VAL148      0.1561
    217  C          7.2970   11.5210   28.3740 C.2   148  VAL148      0.2260
    218  O          8.3130   10.8630   28.3000 O.2   148  VAL148     -0.2867
    219  CB         6.0910   10.3980   30.1460 C.3   148  VAL148      0.0252
    220  CG1        6.7150   11.4950   30.9830 C.3   148  VAL148      0.0019
    221  CG2        4.7100   10.0850   30.6720 C.3   148  VAL148      0.0019
@<TRIPOS>BOND
     1   201   200    2
     2   200   199    1
     3   199   198    1
     4   199   202    1
     5   202   203    1
     6    19    18    2
     7    18    17    1
     8   203   204   ar
     9   203   205   ar
    10   209   210    1
    11   204   206   ar
    12    17    16    1
    13    17    20    1
    14   205   207   ar
    15   210   211    1
    16   210   213    1
    17   211   212    2
    18    22    20    1
    19    20    21    1
    20    28    29    1
    21    28    25    1
    22   206   208   ar
    23   207   208   ar
    24    24    25    1
    25    29    30   ar
    26    29    31   ar
    27    30    32   ar
    28   213   214    1
    29    31    33   ar
    30    32    34   ar
    31    25    26    1
    32    21    23    1
    33    33    34   ar
    34    26    27    2
    35    11    10    2
    36    10     9    1
    37   215   216    1
    38   218   217    2
    39   217   216    1
    40   107   108    1
    41    14    13    2
    42   216   219    1
    43     9     8    1
    44     9    12    1
    45   114   112    1
    46    13    12    1
    47    13    15   am
    48    35    36    1
    49   108   109    1
    50   108   111    1
    51    52    50   ar
    52    52    54   ar
    53   219   221    1
    54   219   220    1
    55    39    40    1
    56    39    36    1
    57    50    49   ar
    58   112   111    1
    59   109   110    2
    60    41    40    1
    61    41    42    1
    62   111   113    1
    63    36    37    1
    64    54    53   ar
    65    49    48    1
    66    49    51   ar
    67    48    45    1
    68    44    37   am
    69    44    45    1
    70    43    42    1
    71    37    38    2
    72     3     4    2
    73     3     2    1
    74    53    51   ar
    75    45    46    1
    76     2     1    1
    77     2     5    1
    78    46    47    2
    79    62    60   am
    80     6     5    1
    81   115   116    1
    82     5     7    1
    83    60    61    2
    84    60    59    1
    85   101   102    2
    86   101   100    1
    87    55    56    1
    88   118   117    2
    89    59    56    1
    90   116   117    1
    91   116   119    1
    92   104   106    1
    93   104   103    1
    94   197   195   ar
    95   197   196   ar
    96    69    70    1
    97    69    68    1
    98    56    57    1
    99   100   103    1
   100   100    99    1
   101   195   193   ar
   102   120   119    1
   103   121   119    1
   104   196   194   ar
   105    63    57   am
   106    63    64    1
   107    67    68    1
   108    67    64    1
   109   103   105    1
   110    70    71    2
   111   173   172    1
   112    57    58    2
   113   193   194   ar
   114   193   192    1
   115    64    65    1
   116   132   130   ar
   117   132   131   ar
   118    71    72    1
   119    71    73    1
   120   186   185    2
   121   192   189    1
   122   130   128   ar
   123   172   171   ar
   124   172   170   ar
   125   131   129   ar
   126   155   153   am
   127   171   169   ar
   128   189   188    1
   129   189   190    1
   130   154   153    2
   131    65    66    2
   132    65    74   am
   133   128   127   ar
   134   185   188   am
   135   185   184    1
   136   129   127   ar
   137   170   168   ar
   138   153   152    1
   139   146   145   ar
   140   146   144   ar
   141   127   126    1
   142   190   191    2
   143   145   143   ar
   144   187   184    1
   145   169   167   ar
   146    74    75    1
   147   184   183    1
   148   126   123    1
   149   168   167   ar
   150   144   142   ar
   151   152   151    1
   152    97    96    1
   153   167   166    1
   154   165   164    2
   155    98    96    1
   156    79    80    1
   157    79    76   am
   158   143   140   ar
   159    96    93    1
   160    80    81    1
   161    75    76    1
   162    75    78    1
   163   151   148    1
   164   183   176   am
   165    76    77    2
   166   142   140   ar
   167   142   141   ar
   168   177   176    2
   169   123   124    1
   170   123   122    1
   171   140   138   ar
   172   164   163    1
   173   176   175    1
   174   166   163    1
   175   124   125    2
   176   148   147    1
   177   148   149    1
   178   163   162    1
   179    81    83   am
   180    81    82    2
   181    93    92    1
   182    93    94    1
   183   150   149    2
   184    83    84    1
   185    92    85   am
   186   141   139   ar
   187   147   135   am
   188   159   158    2
   189    94    95    2
   190   138   139   ar
   191   138   137    1
   192   174   175    1
   193   175   178    1
   194   162   158   am
   195   135   136    2
   196   135   134    1
   197   158   157    1
   198   137   134    1
   199    85    84    1
   200    85    86    2
   201    84    87    1
   202    87    88    1
   203   178   179    1
   204    91    90    1
   205   134   133    1
   206    88    89    1
   207   179   180    1
   208    90    89    1
   209   157   160    1
   210   157   156    1
   211   160   161    1
   212   180   181   ar
   213   180   182   ar
