@<TRIPOS>MOLECULE
tmp/4jp3A00.pdb
 140 136 0 0 0
SMALL
GASTEIGER

@<TRIPOS>ATOM
      1  N         46.1530   21.2610   84.1810 N.3    80  ASN80      -0.1240
      2  CA        46.4650   20.6390   85.4560 C.3    80  ASN80       0.1653
      3  C         47.3910   21.5230   86.2710 C.2    80  ASN80       0.2266
      4  O         48.0690   22.4010   85.7390 O.2    80  ASN80      -0.2867
      5  CB        47.1400   19.2790   85.2310 C.3    80  ASN80       0.1155
      6  CG        46.8620   18.2870   86.3540 C.2    80  ASN80       0.2627
      7  OD1       46.4670   18.6690   87.4550 O.2    80  ASN80      -0.2716
      8  ND2       47.0780   17.0040   86.0760 N.am   80  ASN80      -0.0877
      9  N         49.8430   20.2620   89.1000 N.3    82  ARG82      -0.1245
     10  CA        50.3380   19.0980   89.8140 C.3    82  ARG82       0.1563
     11  C         51.0430   19.4390   91.1200 C.2    82  ARG82       0.2260
     12  O         52.2700   19.3840   91.2200 O.2    82  ARG82      -0.2867
     13  CB        51.2530   18.2840   88.8910 C.3    82  ARG82       0.0307
     14  CG        50.5830   17.9160   87.5640 C.3    82  ARG82       0.0489
     15  CD        51.3190   16.7980   86.8350 C.3    82  ARG82       0.2205
     16  NE        50.6410   16.4180   85.5950 N.pl3  82  ARG82      -0.0865
     17  CZ        50.8120   17.0240   84.4230 C.cat  82  ARG82       0.5346
     18  NH1       51.6490   18.0480   84.3140 N.pl3  82  ARG82       0.1354
     19  NH2       50.1420   16.6060   83.3570 N.pl3  82  ARG82       0.1354
     20  N         37.6130   10.8990   81.3020 N.3   127  GLY127     -0.1210
     21  CA        38.0160   10.6060   82.6600 C.3   127  GLY127      0.1956
     22  C         39.5060   10.3530   82.7470 C.2   127  GLY127      0.2613
     23  O         40.2960   10.9530   82.0160 O.2   127  GLY127     -0.2717
     24  N         39.8850    9.4310   83.6240 N.am  128  SER128     -0.1938
     25  CA        41.2870    9.1190   83.8530 C.3   128  SER128      0.2055
     26  C         41.3630    7.9040   84.7670 C.2   128  SER128      0.2643
     27  O         40.3410    7.4470   85.2800 O.2   128  SER128     -0.2714
     28  CB        41.9390   10.3290   84.5360 C.3   128  SER128      0.2130
     29  OG        43.1390   10.0030   85.2130 O.3   128  SER128     -0.2179
     30  N         42.5590    7.3560   84.9550 N.am  129  VAL129     -0.1963
     31  CA        42.6770    6.2430   85.8820 C.3   129  VAL129      0.1727
     32  C         42.4460    6.8500   87.2650 C.2   129  VAL129      0.2616
     33  O         42.1620    6.1320   88.2220 O.2   129  VAL129     -0.2715
     34  CB        44.0680    5.5570   85.8360 C.3   129  VAL129      0.0290
     35  CG1       44.2390    4.8250   84.5120 C.3   129  VAL129      0.0023
     36  CG2       45.1730    6.5820   86.0310 C.3   129  VAL129      0.0023
     37  N         42.5520    8.1780   87.3630 N.am  130  THR130     -0.1951
     38  CA        42.3240    8.8540   88.6400 C.3   130  THR130      0.1897
     39  C         40.8340    9.0060   88.9290 C.2   130  THR130      0.2313
     40  O         40.4420    9.6630   89.8920 O.2   130  THR130     -0.2863
     41  CB        43.0160   10.2500   88.7310 C.3   130  THR130      0.1794
     42  OG1       42.5250   11.1210   87.7050 O.3   130  THR130     -0.2208
     43  CG2       44.5250   10.1000   88.6040 C.3   130  THR130      0.0378
     44  N         52.1780   10.5540   91.4820 N.3   138  VAL138     -0.1245
     45  CA        51.9430   11.9050   90.9790 C.3   138  VAL138      0.1561
     46  C         51.0010   12.6880   91.8900 C.2   138  VAL138      0.2260
     47  O         49.9310   12.2040   92.2510 O.2   138  VAL138     -0.2867
     48  CB        51.3420   11.8610   89.5610 C.3   138  VAL138      0.0252
     49  CG1       51.3020   13.2640   88.9640 C.3   138  VAL138      0.0019
     50  CG2       52.1630   10.9250   88.6830 C.3   138  VAL138      0.0019
     51  N         48.3420   14.9160   92.1740 N.3   140  ILE140     -0.1245
     52  CA        47.2590   15.5510   91.4290 C.3   140  ILE140      0.1561
     53  C         45.8980   15.4180   92.1160 C.2   140  ILE140      0.2260
     54  O         44.9550   14.8570   91.5550 O.2   140  ILE140     -0.2867
     55  CB        47.1730   14.9740   89.9950 C.3   140  ILE140      0.0252
     56  CG1       47.2640   13.4440   90.0330 C.3   140  ILE140      0.0019
     57  CG2       48.2940   15.5550   89.1380 C.3   140  ILE140      0.0019
     58  CD1       47.1330   12.7860   88.6630 C.3   140  ILE140      0.0001
     59  N         42.8970   17.2890   90.1330 N.3   143  TYR143     -0.1241
     60  CA        42.5930   16.5570   88.9070 C.3   143  TYR143      0.1605
     61  C         41.8450   15.2630   89.2490 C.2   143  TYR143      0.2264
     62  O         40.8460   14.9220   88.6140 O.2   143  TYR143     -0.2867
     63  CB        43.9050   16.2390   88.1870 C.3   143  TYR143      0.0534
     64  CG        43.7770   15.7280   86.7700 C.ar  143  TYR143     -0.0201
     65  CD1       43.7680   16.6080   85.6870 C.ar  143  TYR143     -0.0009
     66  CD2       43.7460   14.3600   86.5080 C.ar  143  TYR143     -0.0009
     67  CE1       43.7470   16.1350   84.3760 C.ar  143  TYR143      0.0417
     68  CE2       43.7200   13.8790   85.2050 C.ar  143  TYR143      0.0417
     69  CZ        43.7270   14.7700   84.1440 C.ar  143  TYR143      0.1957
     70  OH        43.7540   14.2950   82.8530 O.3   143  TYR143     -0.2866
     71  N         40.8960    7.2400   79.5960 N.3   173  PRO173     -0.2102
     72  CA        42.1600    6.8050   78.9990 C.3   173  PRO173      0.1504
     73  C         43.1720    6.5540   80.1020 C.2   173  PRO173      0.2576
     74  O         43.1140    7.1830   81.1620 O.2   173  PRO173     -0.2718
     75  CB        42.5740    7.9950   78.1300 C.3   173  PRO173      0.0282
     76  CG        41.2940    8.7850   77.9380 C.3   173  PRO173      0.0208
     77  CD        40.6240    8.6490   79.2740 C.3   173  PRO173      0.0893
     78  N         44.0950    5.6350   79.8530 N.am  174  GLY174     -0.1943
     79  CA        45.1240    5.3520   80.8330 C.3   174  GLY174      0.2014
     80  C         46.2740    6.3130   80.6030 C.2   174  GLY174      0.2639
     81  O         46.0610    7.4910   80.3090 O.2   174  GLY174     -0.2714
     82  N         47.4970    5.8180   80.7370 N.am  175  TYR175     -0.1959
     83  CA        48.6700    6.6500   80.5280 C.3   175  TYR175      0.1771
     84  C         48.9330    6.7290   79.0330 C.2   175  TYR175      0.2619
     85  O         49.1920    5.7200   78.3770 O.2   175  TYR175     -0.2715
     86  CB        49.8450    6.0640   81.3120 C.3   175  TYR175      0.0574
     87  CG        49.6020    6.1930   82.7970 C.ar  175  TYR175     -0.0198
     88  CD1       49.8680    7.3890   83.4600 C.ar  175  TYR175     -0.0009
     89  CD2       49.0090    5.1590   83.5200 C.ar  175  TYR175     -0.0009
     90  CE1       49.5460    7.5590   84.8040 C.ar  175  TYR175      0.0417
     91  CE2       48.6790    5.3190   84.8700 C.ar  175  TYR175      0.0417
     92  CZ        48.9500    6.5230   85.5010 C.ar  175  TYR175      0.1957
     93  OH        48.6140    6.6950   86.8270 O.3   175  TYR175     -0.2866
     94  N         48.8330    7.9450   78.5040 N.am  176  VAL176     -0.1977
     95  CA        48.9900    8.1910   77.0760 C.3   176  VAL176      0.1596
     96  C         50.1420    9.1360   76.7670 C.2   176  VAL176      0.2287
     97  O         50.4150   10.0700   77.5240 O.2   176  VAL176     -0.2864
     98  CB        47.6850    8.7970   76.4940 C.3   176  VAL176      0.0276
     99  CG1       47.7720    8.8890   74.9810 C.3   176  VAL176      0.0022
    100  CG2       46.4880    7.9590   76.9150 C.3   176  VAL176      0.0022
    101  N         50.7920   16.9010   76.9530 N.3   180  PHE180     -0.1227
    102  CA        50.2170   17.1430   78.2710 C.3   180  PHE180      0.1736
    103  C         50.8460   16.2830   79.3670 C.2   180  PHE180      0.2596
    104  O         51.0520   16.7510   80.4870 O.2   180  PHE180     -0.2718
    105  CB        48.7060   16.8880   78.2150 C.3   180  PHE180      0.0547
    106  CG        47.9920   17.1170   79.5180 C.ar  180  PHE180     -0.0202
    107  CD1       47.9970   18.3680   80.1230 C.ar  180  PHE180     -0.0042
    108  CD2       47.2870   16.0830   80.1260 C.ar  180  PHE180     -0.0042
    109  CE1       47.3070   18.5880   81.3150 C.ar  180  PHE180     -0.0003
    110  CE2       46.5940   16.2920   81.3170 C.ar  180  PHE180     -0.0003
    111  CZ        46.6040   17.5470   81.9110 C.ar  180  PHE180     -0.0000
    112  N         51.1670   15.0340   79.0450 N.am  181  THR181     -0.1953
    113  CA        51.7340   14.1280   80.0380 C.3   181  THR181      0.1897
    114  C         53.2560   14.0380   80.0630 C.2   181  THR181      0.2313
    115  O         53.8160   13.2210   80.7920 O.2   181  THR181     -0.2863
    116  CB        51.1740   12.7020   79.8620 C.3   181  THR181      0.1794
    117  OG1       51.6100   12.1660   78.6050 O.3   181  THR181     -0.2208
    118  CG2       49.6530   12.7230   79.8970 C.3   181  THR181      0.0378
    119  N         55.2650   13.6700   83.3010 N.3   184  LEU184     -0.1245
    120  CA        55.2510   12.3510   83.9220 C.3   184  LEU184      0.1561
    121  C         56.2250   11.4100   83.2230 C.2   184  LEU184      0.2260
    122  O         56.9650   10.6750   83.8770 O.2   184  LEU184     -0.2867
    123  CB        53.8440   11.7420   83.8760 C.3   184  LEU184      0.0270
    124  CG        52.7860   12.2610   84.8560 C.3   184  LEU184      0.0019
    125  CD1       52.4640   13.7130   84.5650 C.3   184  LEU184      0.0001
    126  CD2       51.5330   11.4080   84.7360 C.3   184  LEU184      0.0001
    127  N         52.8840    2.8620   77.2620 N.3   203  TRP203     -0.1241
    128  CA        51.8500    3.8800   77.3280 C.3   203  TRP203      0.1605
    129  C         51.1210    3.8200   75.9940 C.2   203  TRP203      0.2264
    130  O         51.6230    3.2420   75.0280 O.2   203  TRP203     -0.2867
    131  CB        52.4790    5.2570   77.5450 C.3   203  TRP203      0.0550
    132  CG        52.9400    5.4740   78.9550 C.ar  203  TRP203      0.0003
    133  CD1       53.5050    4.5480   79.7870 C.ar  203  TRP203      0.0946
    134  CD2       52.8710    6.6940   79.7010 C.ar  203  TRP203      0.0152
    135  NE1       53.7870    5.1160   81.0060 N.ar  203  TRP203     -0.2442
    136  CE2       53.4100    6.4320   80.9810 C.ar  203  TRP203      0.0810
    137  CE3       52.4050    7.9840   79.4130 C.ar  203  TRP203      0.0012
    138  CZ2       53.4960    7.4150   81.9750 C.ar  203  TRP203      0.0191
    139  CZ3       52.4910    8.9610   80.4010 C.ar  203  TRP203      0.0001
    140  CH2       53.0330    8.6690   81.6670 C.ar  203  TRP203      0.0015
@<TRIPOS>BOND
     1    99    98    1
     2   130   129    2
     3   129   128    1
     4    98   100    1
     5    98    95    1
     6    96    95    1
     7    96    97    2
     8   101   102    1
     9    95    94    1
    10   127   128    1
    11   128   131    1
    12   131   132    1
    13    76    75    1
    14    76    77    1
    15    75    72    1
    16   105   102    1
    17   105   106    1
    18   102   103    1
    19    85    84    2
    20    94    84   am
    21   117   116    1
    22   132   134   ar
    23   132   133   ar
    24    72    71    1
    25    72    73    1
    26    84    83    1
    27   112   103   am
    28   112   113    1
    29    77    71    1
    30   103   104    2
    31   137   134   ar
    32   137   139   ar
    33   106   107   ar
    34   106   108   ar
    35   134   136   ar
    36   133   135   ar
    37    78    73   am
    38    78    79    1
    39   116   118    1
    40   116   113    1
    41   113   114    1
    42   114   115    2
    43    73    74    2
    44   107   109   ar
    45   108   110   ar
    46    81    80    2
    47   139   140   ar
    48    83    82    1
    49    83    86    1
    50    80    82   am
    51    80    79    1
    52   136   135   ar
    53   136   138   ar
    54    20    21    1
    55    86    87    1
    56   109   111   ar
    57   110   111   ar
    58   140   138   ar
    59    23    22    2
    60    21    22    1
    61    22    24   am
    62    87    88   ar
    63    87    89   ar
    64    70    69    1
    65   121   122    2
    66   121   120    1
    67   119   120    1
    68    19    17    1
    69    88    90   ar
    70    89    91   ar
    71    24    25    1
    72    25    28    1
    73    25    26    1
    74   123   120    1
    75   123   124    1
    76    69    67   ar
    77    69    68   ar
    78     1     2    1
    79    18    17    1
    80    67    65   ar
    81    17    16    2
    82    35    34    1
    83    28    29    1
    84   125   124    1
    85   126   124    1
    86    26    30   am
    87    26    27    2
    88    90    92   ar
    89    91    92   ar
    90    30    31    1
    91    68    66   ar
    92     5     2    1
    93     5     6    1
    94     2     3    1
    95    92    93    1
    96    16    15    1
    97    65    64   ar
    98     4     3    2
    99    34    31    1
   100    34    36    1
   101    31    32    1
   102     8     6   am
   103     6     7    2
   104    66    64   ar
   105    64    63    1
   106    15    14    1
   107    32    37   am
   108    32    33    2
   109    37    38    1
   110    14    13    1
   111    42    41    1
   112    63    60    1
   113    43    41    1
   114    62    61    2
   115    38    41    1
   116    38    39    1
   117    58    56    1
   118    50    48    1
   119    13    10    1
   120    60    61    1
   121    60    59    1
   122    39    40    2
   123    49    48    1
   124     9    10    1
   125    57    55    1
   126    48    45    1
   127    10    11    1
   128    55    56    1
   129    55    52    1
   130    45    44    1
   131    45    46    1
   132    11    12    2
   133    52    53    1
   134    52    51    1
   135    54    53    2
   136    46    47    2
