@<TRIPOS>MOLECULE
tmp/4jp4A00.pdb
 228 230 0 0 0
SMALL
GASTEIGER

@<TRIPOS>ATOM
      1  N         33.5970    8.8820   30.2320 N.3    73  TYR73      -0.1241
      2  CA        32.7470    9.8430   29.5610 C.3    73  TYR73       0.1605
      3  C         31.3850    9.8160   30.2320 C.2    73  TYR73       0.2264
      4  O         30.4100    9.4140   29.6040 O.2    73  TYR73      -0.2867
      5  CB        32.6500    9.4920   28.0820 C.3    73  TYR73       0.0534
      6  CG        33.9960    9.5270   27.4220 C.ar   73  TYR73      -0.0201
      7  CD1       34.7590    8.3790   27.3110 C.ar   73  TYR73      -0.0009
      8  CD2       34.5320   10.7230   26.9710 C.ar   73  TYR73      -0.0009
      9  CE1       36.0260    8.4090   26.7330 C.ar   73  TYR73       0.0417
     10  CE2       35.7950   10.7610   26.3890 C.ar   73  TYR73       0.0417
     11  CZ        36.5260    9.5960   26.2730 C.ar   73  TYR73       0.1957
     12  OH        37.7790    9.6140   25.7000 O.3    73  TYR73      -0.2866
     13  N         22.8190   18.5270   26.5200 N.3    80  GLY80      -0.1210
     14  CA        24.2550   18.3750   26.5100 C.3    80  GLY80       0.1956
     15  C         24.7170   17.1460   25.7360 C.2    80  GLY80       0.2612
     16  O         24.3440   16.9350   24.5800 O.2    80  GLY80      -0.2717
     17  N         25.5590   16.3620   26.3790 N.am   81  LEU81      -0.1965
     18  CA        26.0150   15.1030   25.7910 C.3    81  LEU81       0.1728
     19  C         24.8250   14.1640   25.6440 C.2    81  LEU81       0.2616
     20  O         24.1560   13.9020   26.6400 O.2    81  LEU81      -0.2715
     21  CB        27.0730   14.4670   26.6790 C.3    81  LEU81       0.0311
     22  CG        27.7130   13.1750   26.1800 C.3    81  LEU81       0.0022
     23  CD1       28.3250   13.3310   24.7860 C.3    81  LEU81       0.0001
     24  CD2       28.7750   12.7380   27.1600 C.3    81  LEU81       0.0001
     25  N         24.5660   13.6580   24.4360 N.am   82  LEU82      -0.1963
     26  CA        23.4070   12.7790   24.1700 C.3    82  LEU82       0.1728
     27  C         23.7620   11.2900   24.1290 C.2    82  LEU82       0.2616
     28  O         22.9760   10.4310   24.5180 O.2    82  LEU82      -0.2715
     29  CB        22.7640   13.1650   22.8380 C.3    82  LEU82       0.0311
     30  CG        22.4210   14.6510   22.6830 C.3    82  LEU82       0.0022
     31  CD1       21.8700   14.8550   21.3110 C.3    82  LEU82       0.0001
     32  CD2       21.4750   15.1750   23.7800 C.3    82  LEU82       0.0001
     33  N         24.9540   10.9850   23.6480 N.am   83  ALA83      -0.1963
     34  CA        25.3900    9.6250   23.3980 C.3    83  ALA83       0.1728
     35  C         26.8690    9.7090   23.0820 C.2    83  ALA83       0.2616
     36  O         27.3860   10.7820   22.7360 O.2    83  ALA83      -0.2715
     37  CB        24.6480    9.0210   22.2120 C.3    83  ALA83       0.0334
     38  N         27.5550    8.5780   23.1420 N.am   84  HIS84      -0.1959
     39  CA        28.9160    8.5290   22.6350 C.3    84  HIS84       0.1787
     40  C         29.2140    7.0930   22.2790 C.2    84  HIS84       0.2620
     41  O         28.5460    6.1670   22.7680 O.2    84  HIS84      -0.2715
     42  CB        29.9180    9.0940   23.6620 C.3    84  HIS84       0.0785
     43  CG        30.1710    8.1860   24.8150 C.ar   84  HIS84       0.0821
     44  ND1       31.2870    7.3780   24.8890 N.ar   84  HIS84      -0.2267
     45  CD2       29.4330    7.9160   25.9120 C.ar   84  HIS84       0.1154
     46  CE1       31.2270    6.6610   25.9990 C.ar   84  HIS84       0.1986
     47  NE2       30.1130    6.9800   26.6430 N.ar   84  HIS84      -0.2212
     48  N         30.2050    6.9160   21.4130 N.am   85  ALA85      -0.1977
     49  CA        30.6270    5.6020   20.9910 C.3    85  ALA85       0.1597
     50  C         32.1170    5.5810   20.7650 C.2    85  ALA85       0.2287
     51  O         32.7040    6.5970   20.3800 O.2    85  ALA85      -0.2864
     52  CB        29.8770    5.1940   19.7160 C.3    85  ALA85       0.0319
     53  N         35.7830    4.2270   19.1100 N.3    87  PRO87      -0.2116
     54  CA        36.3250    3.7100   17.8570 C.3    87  PRO87       0.1372
     55  C         36.5580    2.2100   17.8870 C.2    87  PRO87       0.2244
     56  O         36.6200    1.6090   18.9650 O.2    87  PRO87      -0.2868
     57  CB        37.6690    4.4440   17.7230 C.3    87  PRO87       0.0268
     58  CG        37.5980    5.5980   18.5900 C.3    87  PRO87       0.0207
     59  CD        36.6570    5.2550   19.7010 C.3    87  PRO87       0.0892
     60  N         18.3860    8.0180   14.0780 N.3   115  LEU115     -0.1231
     61  CA        19.3480    8.9680   13.5250 C.3   115  LEU115      0.1693
     62  C         20.5900    9.0690   14.3990 C.2   115  LEU115      0.2591
     63  O         21.7280    9.0620   13.8820 O.2   115  LEU115     -0.2718
     64  CB        18.7110   10.3420   13.3380 C.3   115  LEU115      0.0284
     65  CG        17.7420   10.5310   12.1890 C.3   115  LEU115      0.0019
     66  CD1       17.1440   11.9180   12.2530 C.3   115  LEU115      0.0001
     67  CD2       18.4180   10.3490   10.8450 C.3   115  LEU115      0.0001
     68  N         20.3880    9.2250   15.7120 N.am  116  VAL116     -0.1980
     69  CA        21.5270    9.3100   16.6120 C.3   116  VAL116      0.1595
     70  C         22.3240    7.9910   16.6020 C.2   116  VAL116      0.2287
     71  O         23.5550    8.0270   16.5960 O.2   116  VAL116     -0.2864
     72  CB        21.1370    9.7290   18.0590 C.3   116  VAL116      0.0276
     73  CG1       22.3620    9.6430   18.9680 C.3   116  VAL116      0.0022
     74  CG2       20.5090   11.1330   18.0500 C.3   116  VAL116      0.0022
     75  N         24.6040    7.6620   13.5800 N.3   119  HIS119     -0.1226
     76  CA        25.7900    8.5090   13.7820 C.3   119  HIS119      0.1752
     77  C         26.7190    7.8190   14.7770 C.2   119  HIS119      0.2595
     78  O         27.9290    7.7170   14.5330 O.2   119  HIS119     -0.2718
     79  CB        25.3180    9.9000   14.2470 C.3   119  HIS119      0.0759
     80  CG        26.4020   10.8100   14.7110 C.ar  119  HIS119      0.0818
     81  ND1       26.7690   11.9440   14.0220 N.ar  119  HIS119     -0.2268
     82  CD2       27.1690   10.7790   15.8200 C.ar  119  HIS119      0.1154
     83  CE1       27.7260   12.5710   14.6960 C.ar  119  HIS119      0.1986
     84  NE2       27.9710   11.8910   15.7990 N.ar  119  HIS119     -0.2212
     85  N         26.1730    7.3300   15.8890 N.am  120  GLU120     -0.1979
     86  CA        27.0180    6.5890   16.8330 C.3   120  GLU120      0.1602
     87  C         27.7590    5.4410   16.1720 C.2   120  GLU120      0.2287
     88  O         28.9450    5.2140   16.4250 O.2   120  GLU120     -0.2864
     89  CB        26.1960    6.0600   18.0190 C.3   120  GLU120      0.0415
     90  CG        25.6500    7.1200   18.9420 C.3   120  GLU120      0.1163
     91  CD        26.6380    8.2210   19.1960 C.2   120  GLU120      0.3649
     92  OE1       27.6240    7.9600   19.9140 O.co2 120  GLU120     -0.2457
     93  OE2       26.4260    9.3320   18.6790 O.co2 120  GLU120     -0.2457
     94  N         30.8200    6.2260   14.4130 N.3   123  HIS123     -0.1241
     95  CA        31.9680    6.2420   15.3210 C.3   123  HIS123      0.1621
     96  C         32.4470    4.8300   15.6220 C.2   123  HIS123      0.2264
     97  O         33.6340    4.5430   15.5730 O.2   123  HIS123     -0.2867
     98  CB        31.6370    6.9680   16.6250 C.3   123  HIS123      0.0745
     99  CG        31.3960    8.4510   16.4960 C.ar  123  HIS123      0.0817
    100  ND1       32.1580    9.2700   15.6920 N.ar  123  HIS123     -0.2268
    101  CD2       30.5090    9.2600   17.1320 C.ar  123  HIS123      0.1154
    102  CE1       31.7300   10.5190   15.8320 C.ar  123  HIS123      0.1986
    103  NE2       30.7490   10.5430   16.7120 N.ar  123  HIS123     -0.2212
    104  N         34.5900    6.2860   11.9080 N.3   127  LEU127     -0.1231
    105  CA        34.4690    7.6640   11.4280 C.3   127  LEU127      0.1693
    106  C         34.4130    8.6260   12.5910 C.2   127  LEU127      0.2592
    107  O         33.6930    8.3670   13.5540 O.2   127  LEU127     -0.2718
    108  CB        33.2010    7.8480   10.6090 C.3   127  LEU127      0.0284
    109  CG        33.1320    7.0700    9.3080 C.3   127  LEU127      0.0019
    110  CD1       31.8380    7.3330    8.5650 C.3   127  LEU127      0.0001
    111  CD2       34.3170    7.4080    8.4070 C.3   127  LEU127      0.0001
    112  N         35.2070    9.6980   12.5110 N.am  128  ASP128     -0.1960
    113  CA        35.1140   10.8310   13.4190 C.3   128  ASP128      0.1840
    114  C         34.1370   11.8060   12.7670 C.2   128  ASP128      0.2622
    115  O         33.4470   11.4710   11.8080 O.2   128  ASP128     -0.2715
    116  CB        36.5140   11.4290   13.6130 C.3   128  ASP128      0.1450
    117  CG        36.6660   12.2150   14.8930 C.2   128  ASP128      0.3671
    118  OD1       35.6680   12.5410   15.5460 O.co2 128  ASP128     -0.2456
    119  OD2       37.8420   12.4700   15.2500 O.co2 128  ASP128     -0.2456
    120  N         34.0330   13.0100   13.3020 N.am  129  HIS129     -0.1973
    121  CA        33.1220   14.0050   12.7630 C.3   129  HIS129      0.1656
    122  C         33.5780   14.5970   11.4500 C.2   129  HIS129      0.2291
    123  O         34.7820   14.6740   11.1710 O.2   129  HIS129     -0.2864
    124  CB        32.8750   15.1040   13.8030 C.3   129  HIS129      0.0771
    125  CG        32.1240   14.6030   14.9890 C.ar  129  HIS129      0.0820
    126  ND1       32.4680   14.8930   16.2940 N.ar  129  HIS129     -0.2267
    127  CD2       31.0520   13.7790   15.0530 C.ar  129  HIS129      0.1154
    128  CE1       31.6380   14.2470   17.1070 C.ar  129  HIS129      0.1986
    129  NE2       30.7790   13.5580   16.3790 N.ar  129  HIS129     -0.2212
    130  N         28.1350   20.0720    6.5380 N.3   133  PRO133     -0.2102
    131  CA        26.9230   20.2490    7.3460 C.3   133  PRO133      0.1504
    132  C         25.7670   19.3260    6.9900 C.2   133  PRO133      0.2576
    133  O         24.8500   19.1690    7.7870 O.2   133  PRO133     -0.2718
    134  CB        26.5140   21.7150    7.0870 C.3   133  PRO133      0.0282
    135  CG        27.7120   22.3390    6.5580 C.3   133  PRO133      0.0208
    136  CD        28.4460   21.3020    5.7870 C.3   133  PRO133      0.0893
    137  N         25.8180   18.7110    5.8110 N.am  134  GLY134     -0.1943
    138  CA        24.7870   17.7720    5.4130 C.3   134  GLY134      0.2014
    139  C         25.0930   16.3250    5.7770 C.2   134  GLY134      0.2639
    140  O         24.2880   15.4390    5.4930 O.2   134  GLY134     -0.2714
    141  N         26.2640   16.0650    6.3440 N.am  135  ALA135     -0.1963
    142  CA        26.6790   14.6990    6.6560 C.3   135  ALA135      0.1728
    143  C         26.0090   14.1370    7.8980 C.2   135  ALA135      0.2616
    144  O         25.6680   14.8620    8.8390 O.2   135  ALA135     -0.2715
    145  CB        28.1450   14.6620    6.8310 C.3   135  ALA135      0.0334
    146  N         25.8210   12.8220    7.9120 N.am  136  LEU136     -0.1977
    147  CA        25.3630   12.1280    9.1090 C.3   136  LEU136      0.1596
    148  C         26.3580   12.3470   10.2650 C.2   136  LEU136      0.2287
    149  O         25.9340   12.5460   11.3920 O.2   136  LEU136     -0.2864
    150  CB        25.2060   10.6190    8.8300 C.3   136  LEU136      0.0297
    151  CG        24.8730    9.7030   10.0010 C.3   136  LEU136      0.0022
    152  CD1       23.5700   10.1530   10.6990 C.3   136  LEU136      0.0001
    153  CD2       24.7730    8.2750    9.5290 C.3   136  LEU136      0.0001
    154  N         28.2610   14.9480   10.7580 N.3   138  PHE138     -0.1228
    155  CA        28.3600   16.3190   11.2490 C.3   138  PHE138      0.1721
    156  C         28.1360   16.2800   12.7660 C.2   138  PHE138      0.2437
    157  O         27.3330   15.4730   13.2700 O.2   138  PHE138     -0.2733
    158  CB        27.3170   17.1940   10.5450 C.3   138  PHE138      0.0547
    159  CG        27.5340   18.6860   10.7190 C.ar  138  PHE138     -0.0202
    160  CD1       28.6720   19.2870   10.2290 C.ar  138  PHE138     -0.0042
    161  CD2       26.5810   19.4630   11.3460 C.ar  138  PHE138     -0.0042
    162  CE1       28.8790   20.6590   10.3770 C.ar  138  PHE138     -0.0003
    163  CE2       26.7610   20.8240   11.4980 C.ar  138  PHE138     -0.0003
    164  CZ        27.9060   21.4220   11.0110 C.ar  138  PHE138     -0.0000
    165  N         28.8980   17.0860   13.5240 N.am  139  PRO139     -0.2718
    166  CA        28.8390   16.9760   14.9980 C.3   139  PRO139      0.1535
    167  C         27.6180   17.5340   15.7200 C.2   139  PRO139      0.2598
    168  O         27.5860   17.4400   16.9490 O.2   139  PRO139     -0.2715
    169  CB        30.0880   17.7340   15.4360 C.3   139  PRO139      0.0310
    170  CG        30.3630   18.6800   14.3780 C.3   139  PRO139      0.0237
    171  CD        29.9650   18.0000   13.0980 C.3   139  PRO139      0.0939
    172  N         26.6260   18.0320   14.9860 N.am  140  ILE140     -0.1964
    173  CA        25.4150   18.6310   15.5720 C.3   140  ILE140      0.1727
    174  C         24.1170   17.9870   15.0320 C.2   140  ILE140      0.2616
    175  O         23.9300   17.8410   13.8360 O.2   140  ILE140     -0.2715
    176  CB        25.3950   20.1680   15.3500 C.3   140  ILE140      0.0290
    177  CG1       26.7160   20.7930   15.8020 C.3   140  ILE140      0.0022
    178  CG2       24.2450   20.7890   16.1180 C.3   140  ILE140      0.0023
    179  CD1       26.8290   22.2930   15.5510 C.3   140  ILE140      0.0001
    180  N         23.2160   17.5880   15.9310 N.am  141  TYR141     -0.1960
    181  CA        21.9750   16.9140   15.5290 C.3   141  TYR141      0.1771
    182  C         20.9430   17.8680   14.9430 C.2   141  TYR141      0.2620
    183  O         20.6660   18.8990   15.5330 O.2   141  TYR141     -0.2715
    184  CB        21.3470   16.2100   16.7410 C.3   141  TYR141      0.0574
    185  CG        19.9740   15.5760   16.5190 C.ar  141  TYR141     -0.0198
    186  CD1       19.8500   14.2380   16.1710 C.ar  141  TYR141     -0.0009
    187  CD2       18.7980   16.3030   16.7070 C.ar  141  TYR141     -0.0009
    188  CE1       18.6170   13.6450   15.9930 C.ar  141  TYR141      0.0417
    189  CE2       17.5560   15.7200   16.5290 C.ar  141  TYR141      0.0417
    190  CZ        17.4630   14.3810   16.1770 C.ar  141  TYR141      0.1957
    191  OH        16.2260   13.7760   16.0030 O.3   141  TYR141     -0.2866
    192  N         20.3710   17.4840   13.8080 N.am  142  THR142     -0.1937
    193  CA        19.1530   18.0920   13.2610 C.3   142  THR142      0.2028
    194  C         18.2850   16.9720   12.6900 C.2   142  THR142      0.2642
    195  O         18.7950   16.0510   12.0450 O.2   142  THR142     -0.2714
    196  CB        19.4770   19.1380   12.1640 C.3   142  THR142      0.1808
    197  OG1       20.3200   18.5490   11.1630 O.3   142  THR142     -0.2208
    198  CG2       20.1950   20.3300   12.7610 C.3   142  THR142      0.0379
    199  N         16.9790   17.0260   12.9350 N.am  143  TYR143     -0.1973
    200  CA        16.0940   15.9440   12.5320 C.3   143  TYR143      0.1639
    201  C         15.8280   15.9870   11.0410 C.2   143  TYR143      0.2290
    202  O         15.4100   17.0240   10.5230 O.2   143  TYR143     -0.2864
    203  CB        14.7730   16.0180   13.2970 C.3   143  TYR143      0.0560
    204  CG        13.7760   14.9630   12.8770 C.ar  143  TYR143     -0.0198
    205  CD1       12.6060   15.3070   12.2010 C.ar  143  TYR143     -0.0009
    206  CD2       14.0110   13.6170   13.1370 C.ar  143  TYR143     -0.0009
    207  CE1       11.6950   14.3380   11.8140 C.ar  143  TYR143      0.0417
    208  CE2       13.1010   12.6430   12.7510 C.ar  143  TYR143      0.0417
    209  CZ        11.9490   13.0070   12.0910 C.ar  143  TYR143      0.1957
    210  OH        11.0460   12.0420   11.7120 O.3   143  TYR143     -0.2866
    211  N         15.3800    8.7130    5.0100 N.3   145  PHE145     -0.1241
    212  CA        16.8050    8.9510    5.1980 C.3   145  PHE145      0.1605
    213  C         17.6160    8.3030    4.0870 C.2   145  PHE145      0.2264
    214  O         17.4100    7.1430    3.7880 O.2   145  PHE145     -0.2867
    215  CB        17.2560    8.3680    6.5400 C.3   145  PHE145      0.0534
    216  CG        18.7080    8.5800    6.8210 C.ar  145  PHE145     -0.0203
    217  CD1       19.6270    7.5960    6.5230 C.ar  145  PHE145     -0.0042
    218  CD2       19.1600    9.7810    7.3390 C.ar  145  PHE145     -0.0042
    219  CE1       20.9700    7.7960    6.7680 C.ar  145  PHE145     -0.0003
    220  CE2       20.5130    9.9850    7.5780 C.ar  145  PHE145     -0.0003
    221  CZ        21.4100    8.9840    7.2820 C.ar  145  PHE145     -0.0000
    222  N         24.2590   10.4190    3.3400 N.3   148  PRO148     -0.2116
    223  CA        24.9190   11.4220    2.4890 C.3   148  PRO148      0.1372
    224  C         26.2470   10.9590    1.8990 C.2   148  PRO148      0.2244
    225  O         26.9230   10.1140    2.4680 O.2   148  PRO148     -0.2868
    226  CB        25.1100   12.6070    3.4420 C.3   148  PRO148      0.0268
    227  CG        24.0530   12.4280    4.4570 C.3   148  PRO148      0.0207
    228  CD        23.9950   10.9620    4.6820 C.3   148  PRO148      0.0892
@<TRIPOS>BOND
     1   224   225    2
     2   224   223    1
     3   223   222    1
     4   223   226    1
     5   222   228    1
     6   226   227    1
     7   214   213    2
     8   213   212    1
     9   227   228    1
    10   211   212    1
    11   212   215    1
    12   138   139    1
    13   138   137    1
    14   140   139    2
    15   139   141   am
    16   136   130    1
    17   136   135    1
    18   137   132   am
    19   141   142    1
    20   217   219   ar
    21   217   216   ar
    22   130   131    1
    23   215   216    1
    24   135   134    1
    25   142   145    1
    26   142   143    1
    27   219   221   ar
    28   216   218   ar
    29   132   131    1
    30   132   133    2
    31   134   131    1
    32   221   220   ar
    33   218   220   ar
    34   143   146   am
    35   143   144    2
    36   146   147    1
    37   111   109    1
    38   110   109    1
    39   150   147    1
    40   150   151    1
    41   147   148    1
    42   109   108    1
    43   153   151    1
    44   151   152    1
    45   160   162   ar
    46   160   159   ar
    47   148   149    2
    48   162   164   ar
    49   202   201    2
    50   158   159    1
    51   158   155    1
    52   108   105    1
    53   159   161   ar
    54   154   155    1
    55    67    65    1
    56   164   163   ar
    57   201   200    1
    58   197   196    1
    59   123   122    2
    60   155   156    1
    61   161   163   ar
    62   105   104    1
    63   105   106    1
    64   122   121    1
    65   210   209    1
    66   115   114    2
    67   207   209   ar
    68   207   205   ar
    69   195   194    2
    70   209   208   ar
    71   196   198    1
    72   196   193    1
    73    65    66    1
    74    65    64    1
    75   205   204   ar
    76   112   106   am
    77   112   113    1
    78   200   199    1
    79   200   203    1
    80   106   107    2
    81   194   199   am
    82   194   193    1
    83   208   206   ar
    84   121   120    1
    85   121   124    1
    86   156   157    2
    87   156   165   am
    88   114   120   am
    89   114   113    1
    90   204   206   ar
    91   204   203    1
    92   171   165    1
    93   171   170    1
    94   193   192    1
    95    64    61    1
    96   113   116    1
    97   165   166    1
    98    61    60    1
    99    61    62    1
   100    75    76    1
   101   116   117    1
   102    76    79    1
   103    76    77    1
   104   124   125    1
   105   192   182   am
   106   175   174    2
   107    63    62    2
   108    81    83   ar
   109    81    80   ar
   110    79    80    1
   111   170   169    1
   112    62    68   am
   113    94    95    1
   114    78    77    2
   115    83    84   ar
   116    80    82   ar
   117    77    85   am
   118   117   119   ar
   119   117   118   ar
   120   182   181    1
   121   182   183    2
   122   172   173    1
   123   172   167   am
   124   125   127   ar
   125   125   126   ar
   126   166   169    1
   127   166   167    1
   128   174   173    1
   129   174   180   am
   130   127   129   ar
   131    95    96    1
   132    95    98    1
   133   176   173    1
   134   176   177    1
   135   176   178    1
   136   181   180    1
   137   181   184    1
   138   179   177    1
   139    97    96    2
   140   100   102   ar
   141   100    99   ar
   142    68    69    1
   143   167   168    2
   144    84    82   ar
   145   102   103   ar
   146    85    86    1
   147   188   186   ar
   148   188   190   ar
   149   191   190    1
   150   186   185   ar
   151    87    88    2
   152    87    86    1
   153   190   189   ar
   154   126   128   ar
   155   129   128   ar
   156    99    98    1
   157    99   101   ar
   158   185   187   ar
   159   185   184    1
   160   189   187   ar
   161    71    70    2
   162    70    69    1
   163    69    72    1
   164   103   101   ar
   165    86    89    1
   166    57    54    1
   167    57    58    1
   168    54    55    1
   169    54    53    1
   170    55    56    2
   171    89    90    1
   172    74    72    1
   173    72    73    1
   174    58    59    1
   175    93    91   ar
   176    90    91    1
   177    53    59    1
   178    91    92   ar
   179    52    49    1
   180    51    50    2
   181    50    49    1
   182    49    48    1
   183    31    30    1
   184    48    40   am
   185    37    34    1
   186    40    39    1
   187    40    41    2
   188    39    38    1
   189    39    42    1
   190    30    29    1
   191    30    32    1
   192    36    35    2
   193    29    26    1
   194    35    38   am
   195    35    34    1
   196    34    33    1
   197    33    27   am
   198    42    43    1
   199    27    26    1
   200    27    28    2
   201    26    25    1
   202    25    19   am
   203    16    15    2
   204    23    22    1
   205    43    44   ar
   206    43    45   ar
   207    44    46   ar
   208    19    18    1
   209    19    20    2
   210    12    11    1
   211    15    17   am
   212    15    14    1
   213    18    17    1
   214    18    21    1
   215    45    47   ar
   216    46    47   ar
   217    22    21    1
   218    22    24    1
   219    11    10   ar
   220    11     9   ar
   221    10     8   ar
   222    14    13    1
   223     9     7   ar
   224     8     6   ar
   225     7     6   ar
   226     6     5    1
   227     5     2    1
   228     2     3    1
   229     2     1    1
   230     4     3    2
