@<TRIPOS>MOLECULE
tmp/4jpaB00.pdb
 201 202 0 0 0
SMALL
GASTEIGER

@<TRIPOS>ATOM
      1  N         21.9120   16.0160   31.9470 N.3    80  GLY80      -0.1210
      2  CA        22.6540   15.2990   30.9080 C.3    80  GLY80       0.1956
      3  C         21.8780   14.1010   30.3670 C.2    80  GLY80       0.2612
      4  O         20.7480   14.2420   29.8990 O.2    80  GLY80      -0.2717
      5  N         22.4900   12.9240   30.4370 N.am   81  LEU81      -0.1965
      6  CA        21.8480   11.6780   30.0230 C.3    81  LEU81       0.1728
      7  C         20.6460   11.4170   30.9230 C.2    81  LEU81       0.2616
      8  O         20.8080   11.2930   32.1330 O.2    81  LEU81      -0.2715
      9  CB        22.8250   10.5020   30.1460 C.3    81  LEU81       0.0311
     10  CG        22.8970    9.5000   28.9930 C.3    81  LEU81       0.0022
     11  CD1       21.5450    8.9320   28.6260 C.3    81  LEU81       0.0001
     12  CD2       23.5530   10.1560   27.7770 C.3    81  LEU81       0.0001
     13  N         19.4540   11.3390   30.3380 N.am   82  LEU82      -0.1963
     14  CA        18.2150   11.1150   31.1020 C.3    82  LEU82       0.1728
     15  C         17.7980    9.6530   31.1310 C.2    82  LEU82       0.2616
     16  O         17.2330    9.1710   32.1230 O.2    82  LEU82      -0.2715
     17  CB        17.0680   11.9280   30.5030 C.3    82  LEU82       0.0311
     18  CG        17.3100   13.4280   30.3290 C.3    82  LEU82       0.0022
     19  CD1       16.0640   14.0940   29.7760 C.3    82  LEU82       0.0001
     20  CD2       17.7310   14.0730   31.6390 C.3    82  LEU82       0.0001
     21  N         18.0470    8.9670   30.0210 N.am   83  ALA83      -0.1963
     22  CA        17.6640    7.5700   29.8590 C.3    83  ALA83       0.1728
     23  C         18.2880    7.0190   28.5850 C.2    83  ALA83       0.2616
     24  O         18.8170    7.7670   27.7610 O.2    83  ALA83      -0.2715
     25  CB        16.1410    7.4500   29.7920 C.3    83  ALA83       0.0334
     26  N         18.2270    5.7090   28.4220 N.am   84  HIS84      -0.1959
     27  CA        18.5580    5.1130   27.1410 C.3    84  HIS84       0.1787
     28  C         17.8250    3.8030   26.9380 C.2    84  HIS84       0.2620
     29  O         17.3390    3.1930   27.8950 O.2    84  HIS84      -0.2715
     30  CB        20.0790    4.9510   26.9470 C.3    84  HIS84       0.0785
     31  CG        20.7780    4.2340   28.0600 C.ar   84  HIS84       0.0821
     32  ND1       21.9820    4.6660   28.5720 N.ar   84  HIS84      -0.2267
     33  CD2       20.4590    3.1100   28.7460 C.ar   84  HIS84       0.1154
     34  CE1       22.3670    3.8470   29.5330 C.ar   84  HIS84       0.1986
     35  NE2       21.4630    2.8930   29.6580 N.ar   84  HIS84      -0.2212
     36  N         17.7190    3.4020   25.6740 N.am   85  ALA85      -0.1977
     37  CA        17.0910    2.1430   25.3120 C.3    85  ALA85       0.1597
     38  C         17.8700    1.4520   24.2080 C.2    85  ALA85       0.2287
     39  O         18.6300    2.0850   23.4820 O.2    85  ALA85      -0.2864
     40  CB        15.6530    2.3700   24.8880 C.3    85  ALA85       0.0319
     41  N          6.6420   11.2120   28.5980 N.3   115  LEU115     -0.1231
     42  CA         7.2430   11.8290   27.4210 C.3   115  LEU115      0.1693
     43  C          8.5860   11.1860   27.0860 C.2   115  LEU115      0.2591
     44  O          8.8250   10.7890   25.9460 O.2   115  LEU115     -0.2718
     45  CB         7.4420   13.3150   27.6990 C.3   115  LEU115      0.0284
     46  CG         6.8520   14.3790   26.7780 C.3   115  LEU115      0.0019
     47  CD1        5.5070   14.0020   26.1580 C.3   115  LEU115      0.0001
     48  CD2        6.7460   15.6710   27.5680 C.3   115  LEU115      0.0001
     49  N          9.4590   11.0860   28.0810 N.am  116  VAL116     -0.1980
     50  CA        10.7830   10.4900   27.8720 C.3   116  VAL116      0.1595
     51  C         10.6320    9.0020   27.5330 C.2   116  VAL116      0.2287
     52  O         11.3080    8.4930   26.6390 O.2   116  VAL116     -0.2864
     53  CB        11.7100   10.7060   29.0950 C.3   116  VAL116      0.0276
     54  CG1       13.0360    9.9760   28.9240 C.3   116  VAL116      0.0022
     55  CG2       11.9610   12.2050   29.3150 C.3   116  VAL116      0.0022
     56  N          9.6490    8.4370   23.9250 N.3   119  HIS119     -0.1226
     57  CA        10.8590    8.5820   23.1160 C.3   119  HIS119      0.1752
     58  C         11.6970    7.3000   23.1820 C.2   119  HIS119      0.2595
     59  O         12.0750    6.7410   22.1520 O.2   119  HIS119     -0.2718
     60  CB        11.6650    9.7750   23.6090 C.3   119  HIS119      0.0759
     61  CG        12.9160   10.0320   22.8320 C.ar  119  HIS119      0.0818
     62  ND1       12.9910   10.9830   21.8370 N.ar  119  HIS119     -0.2268
     63  CD2       14.1520    9.4860   22.9270 C.ar  119  HIS119      0.1154
     64  CE1       14.2190   11.0050   21.3480 C.ar  119  HIS119      0.1986
     65  NE2       14.9410   10.1030   21.9890 N.ar  119  HIS119     -0.2212
     66  N         11.9500    6.8320   24.4010 N.am  120  GLU120     -0.1979
     67  CA        12.7380    5.6190   24.6320 C.3   120  GLU120      0.1602
     68  C         12.1600    4.4140   23.9010 C.2   120  GLU120      0.2287
     69  O         12.8960    3.6700   23.2490 O.2   120  GLU120     -0.2864
     70  CB        12.8310    5.3010   26.1320 C.3   120  GLU120      0.0415
     71  CG        13.6160    6.2930   26.9690 C.3   120  GLU120      0.1163
     72  CD        14.9490    6.6750   26.3510 C.2   120  GLU120      0.3649
     73  OE1       15.7340    5.7620   26.0330 O.co2 120  GLU120     -0.2457
     74  OE2       15.2060    7.8900   26.1810 O.co2 120  GLU120     -0.2457
     75  N         12.9480    4.1300   20.3440 N.3   123  HIS123     -0.1241
     76  CA        14.2160    3.4290   20.1630 C.3   123  HIS123      0.1621
     77  C         14.0490    1.9140   20.3080 C.2   123  HIS123      0.2264
     78  O         14.5880    1.1530   19.5060 O.2   123  HIS123     -0.2867
     79  CB        15.2690    3.9190   21.1540 C.3   123  HIS123      0.0745
     80  CG        15.6980    5.3410   20.9430 C.ar  123  HIS123      0.0817
     81  ND1       15.9590    5.8640   19.6970 N.ar  123  HIS123     -0.2268
     82  CD2       15.9580    6.3330   21.8270 C.ar  123  HIS123      0.1154
     83  CE1       16.3480    7.1190   19.8190 C.ar  123  HIS123      0.1986
     84  NE2       16.3590    7.4290   21.1030 N.ar  123  HIS123     -0.2212
     85  N         16.9850    8.7970   15.8260 N.3   129  HIS129     -0.1241
     86  CA        16.5600   10.1870   15.9290 C.3   129  HIS129      0.1621
     87  C         16.1080   10.8030   14.6040 C.2   129  HIS129      0.2264
     88  O         16.6400   10.4930   13.5370 O.2   129  HIS129     -0.2867
     89  CB        17.6630   11.0380   16.5530 C.3   129  HIS129      0.0745
     90  CG        17.8780   10.7440   18.0000 C.ar  129  HIS129      0.0817
     91  ND1       19.1290   10.6760   18.5700 N.ar  129  HIS129     -0.2268
     92  CD2       16.9960   10.4580   18.9870 C.ar  129  HIS129      0.1154
     93  CE1       19.0080   10.3810   19.8510 C.ar  129  HIS129      0.1986
     94  NE2       17.7230   10.2380   20.1280 N.ar  129  HIS129     -0.2212
     95  N          9.9690   19.0970   15.3660 N.3   134  GLY134     -0.1210
     96  CA         8.7350   18.8810   16.1150 C.3   134  GLY134      0.1956
     97  C          8.5100   17.4300   16.5070 C.2   134  GLY134      0.2612
     98  O          7.5590   17.1180   17.2230 O.2   134  GLY134     -0.2717
     99  N          9.3910   16.5390   16.0580 N.am  135  ALA135     -0.1965
    100  CA         9.1800   15.1100   16.2450 C.3   135  ALA135      0.1728
    101  C          9.4450   14.6650   17.6810 C.2   135  ALA135      0.2616
    102  O         10.3220   15.1970   18.3570 O.2   135  ALA135     -0.2715
    103  CB        10.0520   14.3230   15.2920 C.3   135  ALA135      0.0334
    104  N          8.6790   13.6750   18.1320 N.am  136  LEU136     -0.1977
    105  CA         8.9470   13.0010   19.4050 C.3   136  LEU136      0.1596
    106  C         10.3570   12.4260   19.4310 C.2   136  LEU136      0.2287
    107  O         11.0170   12.4570   20.4680 O.2   136  LEU136     -0.2864
    108  CB         7.9280   11.8810   19.6490 C.3   136  LEU136      0.0297
    109  CG         8.1420   10.9890   20.8690 C.3   136  LEU136      0.0022
    110  CD1        8.1740   11.8230   22.1460 C.3   136  LEU136      0.0001
    111  CD2        7.0550    9.9130   20.9410 C.3   136  LEU136      0.0001
    112  N         12.8860   13.6480   17.8300 N.3   138  PHE138     -0.1228
    113  CA        13.8880   14.7160   17.8360 C.3   138  PHE138      0.1721
    114  C         14.4850   14.7870   19.2490 C.2   138  PHE138      0.2437
    115  O         13.7430   14.9600   20.2100 O.2   138  PHE138     -0.2733
    116  CB        13.2680   16.0610   17.4670 C.3   138  PHE138      0.0547
    117  CG        14.2870   17.1310   17.1860 C.ar  138  PHE138     -0.0202
    118  CD1       14.9620   17.1600   15.9790 C.ar  138  PHE138     -0.0042
    119  CD2       14.5880   18.0930   18.1370 C.ar  138  PHE138     -0.0042
    120  CE1       15.9100   18.1430   15.7100 C.ar  138  PHE138     -0.0003
    121  CE2       15.5380   19.0840   17.8770 C.ar  138  PHE138     -0.0003
    122  CZ        16.1940   19.1070   16.6590 C.ar  138  PHE138     -0.0000
    123  N         15.8210   14.6470   19.3830 N.am  139  PRO139     -0.2718
    124  CA        16.4730   14.4520   20.6860 C.3   139  PRO139      0.1535
    125  C         16.6720   15.6910   21.5860 C.2   139  PRO139      0.2598
    126  O         17.7730   15.9010   22.1090 O.2   139  PRO139     -0.2715
    127  CB        17.8360   13.8650   20.2840 C.3   139  PRO139      0.0310
    128  CG        18.1270   14.4860   18.9780 C.3   139  PRO139      0.0237
    129  CD        16.8050   14.6340   18.2810 C.3   139  PRO139      0.0939
    130  N         15.6290   16.4990   21.7630 N.am  140  ILE140     -0.1964
    131  CA        15.6210   17.5520   22.7740 C.3   140  ILE140      0.1727
    132  C         14.3010   17.4510   23.5340 C.2   140  ILE140      0.2616
    133  O         13.2360   17.4860   22.9220 O.2   140  ILE140     -0.2715
    134  CB        15.7180   18.9680   22.1440 C.3   140  ILE140      0.0290
    135  CG1       17.0470   19.1370   21.4100 C.3   140  ILE140      0.0022
    136  CG2       15.5460   20.0580   23.2280 C.3   140  ILE140      0.0023
    137  CD1       17.2050   20.4700   20.7070 C.3   140  ILE140      0.0001
    138  N         14.3690   17.3330   24.8590 N.am  141  TYR141     -0.1960
    139  CA        13.1630   17.2710   25.6780 C.3   141  TYR141      0.1771
    140  C         12.4480   18.6190   25.6960 C.2   141  TYR141      0.2620
    141  O         13.0560   19.6520   25.9890 O.2   141  TYR141     -0.2715
    142  CB        13.4940   16.8240   27.1120 C.3   141  TYR141      0.0574
    143  CG        12.3110   16.8730   28.0640 C.ar  141  TYR141     -0.0198
    144  CD1       11.4740   15.7700   28.2320 C.ar  141  TYR141     -0.0009
    145  CD2       12.0310   18.0250   28.7960 C.ar  141  TYR141     -0.0009
    146  CE1       10.3820   15.8170   29.1000 C.ar  141  TYR141      0.0417
    147  CE2       10.9500   18.0840   29.6660 C.ar  141  TYR141      0.0417
    148  CZ        10.1270   16.9770   29.8150 C.ar  141  TYR141      0.1957
    149  OH         9.0570   17.0330   30.6760 O.3   141  TYR141     -0.2866
    150  N         11.1600   18.5970   25.3580 N.am  142  THR142     -0.1937
    151  CA        10.2800   19.7420   25.5680 C.3   142  THR142      0.2028
    152  C          8.9580   19.2710   26.1420 C.2   142  THR142      0.2642
    153  O          8.6150   18.0870   26.0850 O.2   142  THR142     -0.2714
    154  CB         9.9890   20.5500   24.2750 C.3   142  THR142      0.1808
    155  OG1        9.5330   19.6750   23.2380 O.3   142  THR142     -0.2208
    156  CG2       11.2130   21.3060   23.8110 C.3   142  THR142      0.0379
    157  N          8.2210   20.2270   26.6890 N.am  143  TYR143     -0.1959
    158  CA         6.9720   19.9670   27.3730 C.3   143  TYR143      0.1771
    159  C          5.9940   21.0430   26.9300 C.2   143  TYR143      0.2620
    160  O          6.2820   22.2360   27.0700 O.2   143  TYR143     -0.2715
    161  CB         7.2090   20.0430   28.8810 C.3   143  TYR143      0.0574
    162  CG         6.0450   19.6130   29.7310 C.ar  143  TYR143     -0.0198
    163  CD1        5.2230   20.5480   30.3450 C.ar  143  TYR143     -0.0009
    164  CD2        5.7830   18.2660   29.9480 C.ar  143  TYR143     -0.0009
    165  CE1        4.1550   20.1500   31.1430 C.ar  143  TYR143      0.0417
    166  CE2        4.7150   17.8590   30.7380 C.ar  143  TYR143      0.0417
    167  CZ         3.9090   18.8040   31.3340 C.ar  143  TYR143      0.1957
    168  OH         2.8520   18.4010   32.1180 O.3   143  TYR143     -0.2866
    169  N          4.8580   20.6260   26.3730 N.am  144  THR144     -0.1951
    170  CA         3.8950   21.5710   25.8030 C.3   144  THR144      0.1897
    171  C          3.0430   22.2420   26.8680 C.2   144  THR144      0.2313
    172  O          2.5170   23.3300   26.6430 O.2   144  THR144     -0.2863
    173  CB         2.9170   20.8840   24.8370 C.3   144  THR144      0.1794
    174  OG1        2.2030   19.8610   25.5410 O.3   144  THR144     -0.2208
    175  CG2        3.6520   20.2880   23.6230 C.3   144  THR144      0.0378
    176  N         -1.3790   14.6290   24.4400 N.3   149  PHE149     -0.1227
    177  CA        -0.2320   14.4630   23.5680 C.3   149  PHE149      0.1736
    178  C         -0.6750   13.8200   22.2650 C.2   149  PHE149      0.2595
    179  O         -1.3610   12.8000   22.2680 O.2   149  PHE149     -0.2718
    180  CB         0.8220   13.5810   24.2310 C.3   149  PHE149      0.0547
    181  CG         1.9550   13.2210   23.3260 C.ar  149  PHE149     -0.0202
    182  CD1        1.9630   12.0080   22.6520 C.ar  149  PHE149     -0.0042
    183  CD2        3.0060   14.1030   23.1310 C.ar  149  PHE149     -0.0042
    184  CE1        3.0080   11.6740   21.8070 C.ar  149  PHE149     -0.0003
    185  CE2        4.0610   13.7720   22.2810 C.ar  149  PHE149     -0.0003
    186  CZ         4.0540   12.5570   21.6190 C.ar  149  PHE149     -0.0000
    187  N         -0.2600   14.4160   21.1540 N.am  150  MET150     -0.1979
    188  CA        -0.5700   13.8970   19.8300 C.3   150  MET150      0.1605
    189  C          0.7380   13.5590   19.1190 C.2   150  MET150      0.2287
    190  O          1.5970   14.4250   18.9380 O.2   150  MET150     -0.2864
    191  CB        -1.4070   14.9280   19.0680 C.3   150  MET150      0.0413
    192  CG        -2.8770   14.9460   19.5440 C.3   150  MET150      0.0598
    193  SD        -3.6260   16.5650   19.8620 S.3   150  MET150     -0.1393
    194  CE        -3.8240   17.1900   18.1930 C.3   150  MET150      0.0692
    195  N          3.4610   13.3120   16.7050 N.3   152  PRO152     -0.2116
    196  CA         3.6900   14.0470   15.4580 C.3   152  PRO152      0.1372
    197  C          3.7340   13.1300   14.2280 C.2   152  PRO152      0.2244
    198  O          4.1340   11.9680   14.3430 O.2   152  PRO152     -0.2868
    199  CB         5.0470   14.7230   15.6910 C.3   152  PRO152      0.0268
    200  CG         5.1850   14.8000   17.1660 C.3   152  PRO152      0.0207
    201  CD         4.5220   13.5750   17.6940 C.3   152  PRO152      0.0892
@<TRIPOS>BOND
     1    88    87    2
     2   197   198    2
     3   197   196    1
     4    87    86    1
     5   103   100    1
     6    95    96    1
     7   196   199    1
     8   196   195    1
     9   199   200    1
    10   120   118   ar
    11   120   122   ar
    12    85    86    1
    13    86    89    1
    14   118   117   ar
    15    99   100    1
    16    99    97   am
    17    96    97    1
    18   100   101    1
    19    97    98    2
    20    89    90    1
    21   122   121   ar
    22   195   201    1
    23   200   201    1
    24   117   116    1
    25   117   119   ar
    26   116   113    1
    27   101   104   am
    28   101   102    2
    29   112   113    1
    30   113   114    1
    31   121   119   ar
    32    90    91   ar
    33    90    92   ar
    34   104   105    1
    35   194   193    1
    36   129   128    1
    37   129   123    1
    38    91    93   ar
    39   190   189    2
    40   128   127    1
    41    92    94   ar
    42   191   192    1
    43   191   188    1
    44   189   188    1
    45   114   123   am
    46   114   115    2
    47   123   124    1
    48   105   106    1
    49   105   108    1
    50   106   107    2
    51    78    77    2
    52   192   193    1
    53   108   109    1
    54    81    83   ar
    55    81    80   ar
    56    83    84   ar
    57   188   187    1
    58    93    94   ar
    59    76    77    1
    60    76    75    1
    61    76    79    1
    62   127   124    1
    63   124   125    1
    64   137   135    1
    65   109   111    1
    66   109   110    1
    67    80    79    1
    68    80    82   ar
    69    84    82   ar
    70   187   178   am
    71    64    62   ar
    72    64    65   ar
    73   135   134    1
    74   125   130   am
    75   125   126    2
    76   186   184   ar
    77   186   185   ar
    78   130   131    1
    79   184   182   ar
    80    62    61   ar
    81    65    63   ar
    82   134   131    1
    83   134   136    1
    84    59    58    2
    85   178   179    2
    86   178   177    1
    87   185   183   ar
    88   182   181   ar
    89   131   132    1
    90    61    63   ar
    91    61    60    1
    92   133   132    2
    93    57    58    1
    94    57    60    1
    95    57    56    1
    96   183   181   ar
    97    58    66   am
    98   155   154    1
    99    69    68    2
   100   181   180    1
   101    39    38    2
   102   132   138   am
   103   177   180    1
   104   177   176    1
   105   175   173    1
   106   156   154    1
   107    68    67    1
   108    38    37    1
   109   154   151    1
   110    66    67    1
   111    67    70    1
   112   173   174    1
   113   173   170    1
   114   138   139    1
   115    40    37    1
   116    37    36    1
   117   150   151    1
   118   150   140   am
   119   151   152    1
   120    36    28   am
   121   139   140    1
   122   139   142    1
   123   140   141    2
   124   170   169    1
   125   170   171    1
   126    44    43    2
   127    73    72   ar
   128   153   152    2
   129    70    71    1
   130   152   157   am
   131    47    46    1
   132    74    72   ar
   133    72    71    1
   134   169   159   am
   135    52    51    2
   136   172   171    2
   137   157   158    1
   138    46    48    1
   139    46    45    1
   140   159   160    2
   141   159   158    1
   142    28    27    1
   143    28    29    2
   144    30    27    1
   145    30    31    1
   146    43    42    1
   147    43    49   am
   148   142   143    1
   149    27    26    1
   150   158   161    1
   151    42    45    1
   152    42    41    1
   153    51    50    1
   154    24    23    2
   155    12    10    1
   156    50    49    1
   157    50    53    1
   158    31    32   ar
   159    31    33   ar
   160   143   144   ar
   161   143   145   ar
   162   144   146   ar
   163    26    23   am
   164    32    34   ar
   165    23    22    1
   166    11    10    1
   167    33    35   ar
   168   145   147   ar
   169   161   162    1
   170    54    53    1
   171    10     9    1
   172    53    55    1
   173   146   148   ar
   174    34    35   ar
   175   147   148   ar
   176   162   164   ar
   177   162   163   ar
   178    19    18    1
   179    25    22    1
   180   148   149    1
   181    22    21    1
   182     4     3    2
   183   164   166   ar
   184    21    15   am
   185     6     9    1
   186     6     5    1
   187     6     7    1
   188    18    17    1
   189    18    20    1
   190    13     7   am
   191    13    14    1
   192   163   165   ar
   193     3     5   am
   194     3     2    1
   195    17    14    1
   196   166   167   ar
   197     2     1    1
   198     7     8    2
   199    14    15    1
   200    15    16    2
   201   165   167   ar
   202   167   168    1
