@<TRIPOS>MOLECULE
tmp/4jpcA00.pdb
 195 187 0 0 0
SMALL
GASTEIGER

@<TRIPOS>ATOM
      1  N         32.1480   24.1360   12.8930 N.3    15  GLY15      -0.1210
      2  CA        31.6420   23.7300   11.5830 C.3    15  GLY15       0.1956
      3  C         31.6430   22.2330   11.3180 C.2    15  GLY15       0.2612
      4  O         31.2860   21.7860   10.2220 O.2    15  GLY15      -0.2717
      5  N         32.0410   21.4480   12.3160 N.am   16  GLN16      -0.1965
      6  CA        32.1230   20.0010   12.1420 C.3    16  GLN16       0.1733
      7  C         31.1930   19.2570   13.1120 C.2    16  GLN16       0.2617
      8  O         31.3290   18.0520   13.3110 O.2    16  GLN16      -0.2715
      9  CB        33.5800   19.5250   12.2420 C.3    16  GLN16       0.0408
     10  CG        34.4680   20.0500   11.1080 C.3    16  GLN16       0.0908
     11  CD        35.8890   19.5060   11.1240 C.2    16  GLN16       0.2608
     12  OE1       36.4560   19.2170   12.1820 O.2    16  GLN16      -0.2717
     13  NE2       36.4830   19.3870    9.9410 N.am   16  GLN16      -0.0878
     14  N         30.2490   19.9960   13.6930 N.am   17  GLY17      -0.1940
     15  CA        29.2110   19.4320   14.5630 C.3    17  GLY17       0.2014
     16  C         29.6470   19.3120   16.0150 C.2    17  GLY17       0.2638
     17  O         30.8240   19.4730   16.3300 O.2    17  GLY17      -0.2714
     18  N         28.6880   19.0310   16.8910 N.am   18  TYR18      -0.1973
     19  CA        28.9250   18.8530   18.3240 C.3    18  TYR18       0.1639
     20  C         28.7720   17.3820   18.6790 C.2    18  TYR18       0.2290
     21  O         27.8120   16.7400   18.2450 O.2    18  TYR18      -0.2864
     22  CB        27.8990   19.6570   19.1240 C.3    18  TYR18       0.0560
     23  CG        28.0970   21.1510   19.0530 C.ar   18  TYR18      -0.0198
     24  CD1       27.6610   21.8850   17.9430 C.ar   18  TYR18      -0.0009
     25  CD2       28.7070   21.8330   20.1020 C.ar   18  TYR18      -0.0009
     26  CE1       27.8460   23.2590   17.8810 C.ar   18  TYR18       0.0417
     27  CE2       28.8850   23.2040   20.0560 C.ar   18  TYR18       0.0417
     28  CZ        28.4570   23.9100   18.9490 C.ar   18  TYR18       0.1957
     29  OH        28.6590   25.2700   18.9300 O.3    18  TYR18      -0.2866
     30  N         28.3170   12.3060   17.2660 N.3    34  LEU34      -0.1245
     31  CA        27.6700   13.5470   16.8330 C.3    34  LEU34       0.1561
     32  C         26.2150   13.6000   17.2870 C.2    34  LEU34       0.2260
     33  O         25.4470   12.6680   17.0480 O.2    34  LEU34      -0.2867
     34  CB        27.7290   13.6790   15.3070 C.3    34  LEU34       0.0270
     35  CG        27.0350   14.8980   14.6910 C.3    34  LEU34       0.0019
     36  CD1       28.0290   16.0380   14.5460 C.3    34  LEU34       0.0001
     37  CD2       26.4590   14.5330   13.3300 C.3    34  LEU34       0.0001
     38  N         22.7290   14.7440   16.7410 N.3    36  ASP36      -0.1239
     39  CA        22.0270   15.0820   15.5010 C.3    36  ASP36       0.1674
     40  C         20.5000   15.0500   15.6280 C.2    36  ASP36       0.2266
     41  O         19.8640   13.9870   15.5070 O.2    36  ASP36      -0.2867
     42  CB        22.5040   14.1500   14.3790 C.3    36  ASP36       0.1410
     43  CG        21.9590   14.5340   13.0100 C.2    36  ASP36       0.3668
     44  OD1       21.3710   15.6310   12.8570 O.co2  36  ASP36      -0.2456
     45  OD2       22.1320   13.7190   12.0790 O.co2  36  ASP36      -0.2456
     46  N         18.6030   16.0860   13.4840 N.3    38  GLY38      -0.1210
     47  CA        18.1170   15.9760   12.1010 C.3    38  GLY38       0.1956
     48  C         18.0400   14.5680   11.5240 C.2    38  GLY38       0.2612
     49  O         17.7780   14.3960   10.3240 O.2    38  GLY38      -0.2717
     50  N         18.2680   13.5580   12.3640 N.am   39  SER39      -0.1952
     51  CA        18.2140   12.1620   11.9190 C.3    39  SER39       0.1924
     52  C         17.8380   11.2550   13.0820 C.2    39  SER39       0.2314
     53  O         17.7390   11.7220   14.2210 O.2    39  SER39      -0.2863
     54  CB        19.5430   11.7250   11.2810 C.3    39  SER39       0.2116
     55  OG        20.5290   11.5200   12.2730 O.3    39  SER39      -0.2180
     56  N         22.1080    3.6750    3.8690 N.3    73  VAL73      -0.1245
     57  CA        21.6090    5.0460    4.0020 C.3    73  VAL73       0.1561
     58  C         22.3600    6.0190    3.0940 C.2    73  VAL73       0.2260
     59  O         23.4030    6.5560    3.4790 O.2    73  VAL73      -0.2867
     60  CB        21.6400    5.5380    5.4740 C.3    73  VAL73       0.0252
     61  CG1       21.0110    6.9230    5.5980 C.3    73  VAL73       0.0019
     62  CG2       20.9230    4.5500    6.3780 C.3    73  VAL73       0.0019
     63  N         22.5520    9.6930    1.0830 N.3    75  TYR75      -0.1241
     64  CA        22.0730   11.0550    1.2950 C.3    75  TYR75       0.1605
     65  C         22.7750   11.9910    0.3090 C.2    75  TYR75       0.2264
     66  O         23.6430   11.5510   -0.4530 O.2    75  TYR75      -0.2867
     67  CB        22.2640   11.4910    2.7640 C.3    75  TYR75       0.0534
     68  CG        23.6610   11.2770    3.3080 C.ar   75  TYR75      -0.0201
     69  CD1       24.0460   10.0460    3.8510 C.ar   75  TYR75      -0.0009
     70  CD2       24.6010   12.3070    3.2840 C.ar   75  TYR75      -0.0009
     71  CE1       25.3270    9.8510    4.3440 C.ar   75  TYR75       0.0417
     72  CE2       25.8810   12.1200    3.7780 C.ar   75  TYR75       0.0417
     73  CZ        26.2390   10.8920    4.3020 C.ar   75  TYR75       0.1957
     74  OH        27.5140   10.7210    4.7860 O.3    75  TYR75      -0.2866
     75  N         25.1720   14.2240    0.3070 N.3    77  GLN77      -0.1245
     76  CA        26.6370   14.1700    0.2780 C.3    77  GLN77       0.1566
     77  C         27.1680   12.7830   -0.1220 C.2    77  GLN77       0.2260
     78  O         27.8840   12.6480   -1.1210 O.2    77  GLN77      -0.2867
     79  CB        27.2290   14.6020    1.6300 C.3    77  GLN77       0.0367
     80  CG        26.5500   15.8050    2.2780 C.3    77  GLN77       0.0905
     81  CD        26.8830   17.1210    1.5950 C.2    77  GLN77       0.2608
     82  OE1       28.0420   17.5430    1.5580 O.2    77  GLN77      -0.2717
     83  NE2       25.8610   17.7840    1.0630 N.am   77  GLN77      -0.0878
     84  N         26.2610    5.9500    4.2470 N.3    80  TRP80      -0.1241
     85  CA        26.8300    4.9900    5.1790 C.3    80  TRP80       0.1605
     86  C         26.0110    3.7180    5.0950 C.2    80  TRP80       0.2264
     87  O         24.8310    3.7570    4.7470 O.2    80  TRP80      -0.2867
     88  CB        26.9050    5.5370    6.6100 C.3    80  TRP80       0.0550
     89  CG        25.5860    5.7890    7.3010 C.ar   80  TRP80       0.0003
     90  CD1       24.9260    6.9850    7.4010 C.ar   80  TRP80       0.0946
     91  CD2       24.7920    4.8320    8.0210 C.ar   80  TRP80       0.0152
     92  NE1       23.7610    6.8250    8.1210 N.ar   80  TRP80      -0.2442
     93  CE2       23.6590    5.5160    8.5190 C.ar   80  TRP80       0.0810
     94  CE3       24.9220    3.4590    8.2830 C.ar   80  TRP80       0.0012
     95  CZ2       22.6640    4.8770    9.2690 C.ar   80  TRP80       0.0191
     96  CZ3       23.9260    2.8230    9.0250 C.ar   80  TRP80       0.0001
     97  CH2       22.8120    3.5380    9.5120 C.ar   80  TRP80       0.0015
     98  N         32.1290    9.7340    2.2190 N.3   111  LYS111     -0.1231
     99  CA        31.9390   11.1360    2.6090 C.3   111  LYS111      0.1693
    100  C         31.0200   11.2680    3.8280 C.2   111  LYS111      0.2592
    101  O         30.1520   12.1410    3.8840 O.2   111  LYS111     -0.2718
    102  CB        31.4210   11.9680    1.4260 C.3   111  LYS111      0.0285
    103  CG        32.3830   12.0480    0.2470 C.3   111  LYS111      0.0035
    104  CD        31.6970   12.6050   -0.9950 C.3   111  LYS111      0.0206
    105  CE        31.4100   14.0980   -0.8780 C.3   111  LYS111      0.1093
    106  NZ        32.6500   14.9230   -0.9630 N.3   111  LYS111     -0.1314
    107  N         31.2180   10.3690    4.7900 N.am  112  PHE112     -0.1976
    108  CA        30.4730   10.3650    6.0360 C.3   112  PHE112      0.1639
    109  C         31.3800   10.8870    7.1480 C.2   112  PHE112      0.2290
    110  O         31.1110   11.9340    7.7420 O.2   112  PHE112     -0.2864
    111  CB        29.9680    8.9490    6.3380 C.3   112  PHE112      0.0560
    112  CG        29.1840    8.8300    7.6140 C.ar  112  PHE112     -0.0200
    113  CD1       27.8610    9.2340    7.6710 C.ar  112  PHE112     -0.0042
    114  CD2       29.7660    8.2890    8.7520 C.ar  112  PHE112     -0.0042
    115  CE1       27.1380    9.1160    8.8430 C.ar  112  PHE112     -0.0003
    116  CE2       29.0450    8.1620    9.9260 C.ar  112  PHE112     -0.0003
    117  CZ        27.7270    8.5730    9.9690 C.ar  112  PHE112     -0.0000
    118  N         34.6810   12.6560    8.7300 N.3   114  ILE114     -0.1245
    119  CA        35.4360   13.8490    8.3800 C.3   114  ILE114      0.1561
    120  C         36.7770   13.8230    9.0950 C.2   114  ILE114      0.2260
    121  O         36.8320   13.6520   10.3180 O.2   114  ILE114     -0.2867
    122  CB        34.6740   15.1250    8.7940 C.3   114  ILE114      0.0252
    123  CG1       33.3420   15.2150    8.0470 C.3   114  ILE114      0.0019
    124  CG2       35.5150   16.3750    8.5470 C.3   114  ILE114      0.0019
    125  CD1       32.3070   16.0490    8.7620 C.3   114  ILE114      0.0001
    126  N         34.7740   12.7650   15.8060 N.3   119  TRP119     -0.1241
    127  CA        33.6480   11.8770   16.0910 C.3   119  TRP119      0.1605
    128  C         33.6420   10.6130   15.2340 C.2   119  TRP119      0.2264
    129  O         34.1390   10.6050   14.1020 O.2   119  TRP119     -0.2867
    130  CB        32.2880   12.6070   16.1040 C.3   119  TRP119      0.0550
    131  CG        31.9320   13.4110   14.8710 C.ar  119  TRP119      0.0003
    132  CD1       32.0250   14.7620   14.7310 C.ar  119  TRP119      0.0946
    133  CD2       31.3850   12.9140   13.6350 C.ar  119  TRP119      0.0152
    134  NE1       31.5830   15.1450   13.4810 N.ar  119  TRP119     -0.2442
    135  CE2       31.1900   14.0310   12.7870 C.ar  119  TRP119      0.0810
    136  CE3       31.0510   11.6380   13.1600 C.ar  119  TRP119      0.0012
    137  CZ2       30.6740   13.9100   11.4830 C.ar  119  TRP119      0.0191
    138  CZ3       30.5360   11.5140   11.8640 C.ar  119  TRP119      0.0001
    139  CH2       30.3500   12.6480   11.0430 C.ar  119  TRP119      0.0015
    140  N         27.0760    8.7490   15.0140 N.3   122  ILE122     -0.1245
    141  CA        26.0330    9.7640   15.0370 C.3   122  ILE122      0.1561
    142  C         24.8660    9.3000   15.9020 C.2   122  ILE122      0.2260
    143  O         24.4520    8.1360   15.8320 O.2   122  ILE122     -0.2867
    144  CB        25.5530   10.1030   13.6080 C.3   122  ILE122      0.0252
    145  CG1       26.7170   10.7070   12.8100 C.3   122  ILE122      0.0019
    146  CG2       24.3770   11.0780   13.6510 C.3   122  ILE122      0.0019
    147  CD1       26.3300   11.3180   11.4850 C.3   122  ILE122      0.0001
    148  N         17.7570   21.6010   13.5980 N.3   232  ASP232     -0.1225
    149  CA        18.7280   20.5470   13.2740 C.3   232  ASP232      0.1805
    150  C         20.1370   20.8230   13.8050 C.2   232  ASP232      0.2598
    151  O         20.9010   21.5780   13.1890 O.2   232  ASP232     -0.2718
    152  CB        18.7750   20.3180   11.7530 C.3   232  ASP232      0.1424
    153  CG        19.6880   19.1660   11.3590 C.2   232  ASP232      0.3668
    154  OD1       20.1080   18.3930   12.2510 O.co2 232  ASP232     -0.2456
    155  OD2       19.9790   19.0210   10.1480 O.co2 232  ASP232     -0.2456
    156  N         20.4900   20.1770   14.9190 N.am  233  SER233     -0.1938
    157  CA        21.8210   20.3270   15.5170 C.3   233  SER233      0.2055
    158  C         22.9080   19.7180   14.6330 C.2   233  SER233      0.2644
    159  O         24.0870   19.9770   14.8400 O.2   233  SER233     -0.2714
    160  CB        21.8660   19.6950   16.9120 C.3   233  SER233      0.2130
    161  OG        21.7090   18.2820   16.8500 O.3   233  SER233     -0.2179
    162  N         22.4990   18.9150   13.6500 N.am  234  GLY234     -0.1939
    163  CA        23.4300   18.3110   12.6980 C.3   234  GLY234      0.2014
    164  C         23.6650   19.1010   11.4180 C.2   234  GLY234      0.2640
    165  O         24.2370   18.5720   10.4540 O.2   234  GLY234     -0.2714
    166  N         23.2110   20.3540   11.3990 N.am  235  THR235     -0.1936
    167  CA        23.4900   21.2900   10.3070 C.3   235  THR235      0.2028
    168  C         24.2020   22.4960   10.9050 C.2   235  THR235      0.2642
    169  O         23.7770   23.0140   11.9370 O.2   235  THR235     -0.2714
    170  CB        22.1980   21.7680    9.5950 C.3   235  THR235      0.1808
    171  OG1       21.5720   20.6770    8.9050 O.3   235  THR235     -0.2208
    172  CG2       22.5030   22.8730    8.5840 C.3   235  THR235      0.0379
    173  N         25.2920   22.9400   10.2760 N.am  236  THR236     -0.1950
    174  CA        26.0430   24.0950   10.7860 C.3   236  THR236      0.1897
    175  C         25.3130   25.4140   10.5490 C.2   236  THR236      0.2313
    176  O         25.2320   26.2750   11.4380 O.2   236  THR236     -0.2863
    177  CB        27.4310   24.2110   10.1180 C.3   236  THR236      0.1794
    178  OG1       28.1670   23.0120   10.3510 O.3   236  THR236     -0.2208
    179  CG2       28.2170   25.4000   10.6880 C.3   236  THR236      0.0378
    180  N         19.9360   27.5400    7.0620 N.3   239  ARG239     -0.1245
    181  CA        19.6270   27.2610    5.6540 C.3   239  ARG239      0.1563
    182  C         18.2150   27.7320    5.3440 C.2   239  ARG239      0.2260
    183  O         17.2890   27.4650    6.1090 O.2   239  ARG239     -0.2867
    184  CB        19.8100   25.7660    5.3300 C.3   239  ARG239      0.0307
    185  CG        21.1810   25.2290    5.7080 C.3   239  ARG239      0.0489
    186  CD        21.4510   23.8290    5.1650 C.3   239  ARG239      0.2205
    187  NE        21.4260   23.7920    3.6980 N.pl3 239  ARG239     -0.0865
    188  CZ        20.6690   22.9690    2.9720 C.cat 239  ARG239      0.5346
    189  NH1       20.7120   23.0300    1.6480 N.pl3 239  ARG239      0.1354
    190  NH2       19.8760   22.0750    3.5580 N.pl3 239  ARG239      0.1354
    191  N         23.2230   25.1720   13.6630 N.3   339  ALA339     -0.1245
    192  CA        24.0660   25.7390   14.7190 C.3   339  ALA339      0.1562
    193  C         24.0260   27.2570   14.7560 C.2   339  ALA339      0.2260
    194  O         24.0590   27.8450   15.8430 O.2   339  ALA339     -0.2867
    195  CB        25.5100   25.2530   14.5870 C.3   339  ALA339      0.0290
@<TRIPOS>BOND
     1    78    77    2
     2   104   105    1
     3   104   103    1
     4   106   105    1
     5    66    65    2
     6    77    76    1
     7   103   102    1
     8    76    75    1
     9    76    79    1
    10    65    64    1
    11    83    81   am
    12    63    64    1
    13    64    67    1
    14   102    99    1
    15    82    81    2
    16    81    80    1
    17    79    80    1
    18   189   188    1
    19    98    99    1
    20    99   100    1
    21    67    68    1
    22   188   190    1
    23   188   187    2
    24    58    59    2
    25    58    57    1
    26    70    68   ar
    27    70    72   ar
    28    68    69   ar
    29   187   186    1
    30    72    73   ar
    31   100   101    2
    32   100   107   am
    33    69    71   ar
    34    56    57    1
    35    57    60    1
    36    84    85    1
    37    73    71   ar
    38    73    74    1
    39    87    86    2
    40   107   108    1
    41    86    85    1
    42   186   185    1
    43    85    88    1
    44   184   181    1
    45   184   185    1
    46   182   181    1
    47   182   183    2
    48    60    61    1
    49    60    62    1
    50   181   180    1
    51   108   111    1
    52   108   109    1
    53   111   112    1
    54    88    89    1
    55   109   110    2
    56    89    90   ar
    57    89    91   ar
    58    90    92   ar
    59   112   113   ar
    60   112   114   ar
    61   113   115   ar
    62    91    94   ar
    63    91    93   ar
    64   123   125    1
    65   123   122    1
    66    92    93   ar
    67    94    96   ar
    68   119   118    1
    69   119   122    1
    70   119   120    1
    71    93    95   ar
    72   124   122    1
    73   172   170    1
    74   114   116   ar
    75   115   117   ar
    76   171   170    1
    77    96    97   ar
    78   120   121    2
    79    95    97   ar
    80   170   167    1
    81   116   117   ar
    82    13    11   am
    83   177   178    1
    84   177   179    1
    85   177   174    1
    86   155   153   ar
    87     4     3    2
    88   173   174    1
    89   173   168   am
    90   167   168    1
    91   167   166    1
    92    49    48    2
    93   165   164    2
    94   175   174    1
    95   175   176    2
    96   168   169    2
    97   139   137   ar
    98   139   138   ar
    99    10    11    1
   100    10     9    1
   101    11    12    2
   102    54    51    1
   103    54    55    1
   104     3     2    1
   105     3     5   am
   106   153   152    1
   107   153   154   ar
   108   166   164   am
   109   164   163    1
   110   137   135   ar
   111   147   145    1
   112    48    47    1
   113    48    50   am
   114     2     1    1
   115   152   149    1
   116   138   136   ar
   117    51    50    1
   118    51    52    1
   119    45    43   ar
   120    47    46    1
   121     6     9    1
   122     6     5    1
   123     6     7    1
   124   163   162    1
   125   135   134   ar
   126   135   133   ar
   127   145   144    1
   128    44    43   ar
   129    43    42    1
   130    52    53    2
   131     7     8    2
   132     7    14   am
   133   136   133   ar
   134   151   150    2
   135   149   148    1
   136   149   150    1
   137    37    35    1
   138   134   132   ar
   139   144   146    1
   140   144   141    1
   141   133   131   ar
   142   162   158   am
   143   191   192    1
   144    14    15    1
   145   150   156   am
   146   129   128    2
   147    42    39    1
   148    36    35    1
   149    15    16    1
   150   195   192    1
   151   158   159    2
   152   158   157    1
   153    35    34    1
   154   192   193    1
   155   132   131   ar
   156   193   194    2
   157   131   130    1
   158   156   157    1
   159   140   141    1
   160   141   142    1
   161   128   127    1
   162    34    31    1
   163    39    40    1
   164    39    38    1
   165    41    40    2
   166   157   160    1
   167   126   127    1
   168   143   142    2
   169    16    17    2
   170    16    18   am
   171   127   130    1
   172    31    30    1
   173    31    32    1
   174   161   160    1
   175    18    19    1
   176    33    32    2
   177    26    24   ar
   178    26    28   ar
   179    24    23   ar
   180    21    20    2
   181    19    20    1
   182    19    22    1
   183    29    28    1
   184    28    27   ar
   185    23    22    1
   186    23    25   ar
   187    27    25   ar
