@<TRIPOS>MOLECULE
tmp/4jpeA00.pdb
 178 170 0 0 0
SMALL
GASTEIGER

@<TRIPOS>ATOM
      1  N         32.1400   23.9840   12.8310 N.3    15  GLY15      -0.1210
      2  CA        31.6500   23.5680   11.5220 C.3    15  GLY15       0.1956
      3  C         31.5650   22.0660   11.3160 C.2    15  GLY15       0.2612
      4  O         31.0970   21.6020   10.2700 O.2    15  GLY15      -0.2717
      5  N         32.0150   21.3030   12.3100 N.am   16  GLN16      -0.1965
      6  CA        32.1050   19.8500   12.1630 C.3    16  GLN16       0.1733
      7  C         31.2130   19.0780   13.1440 C.2    16  GLN16       0.2616
      8  O         31.3640   17.8710   13.3010 O.2    16  GLN16      -0.2715
      9  CB        33.5700   19.4000   12.2450 C.3    16  GLN16       0.0408
     10  CG        34.4400   20.0000   11.1370 C.3    16  GLN16       0.0908
     11  CD        35.8760   19.4940   11.1380 C.2    16  GLN16       0.2608
     12  OE1       36.4210   19.1330   12.1760 O.2    16  GLN16      -0.2717
     13  NE2       36.5000   19.4900    9.9680 N.am   16  GLN16      -0.0878
     14  N         30.2760   19.7830   13.7770 N.am   17  GLY17      -0.1955
     15  CA        29.2850   19.1700   14.6590 C.3    17  GLY17       0.1869
     16  C         29.7000   19.0640   16.1180 C.2    17  GLY17       0.2309
     17  O         30.8870   19.0680   16.4330 O.2    17  GLY17      -0.2863
     18  N         28.3390   12.2430   17.3980 N.3    34  LEU34      -0.1245
     19  CA        27.6970   13.4860   16.9600 C.3    34  LEU34       0.1561
     20  C         26.2420   13.5440   17.4060 C.2    34  LEU34       0.2260
     21  O         25.4750   12.6100   17.1570 O.2    34  LEU34      -0.2867
     22  CB        27.7610   13.6080   15.4340 C.3    34  LEU34       0.0270
     23  CG        26.9660   14.7620   14.8060 C.3    34  LEU34       0.0019
     24  CD1       27.8180   16.0110   14.8200 C.3    34  LEU34       0.0001
     25  CD2       26.5810   14.4060   13.3780 C.3    34  LEU34       0.0001
     26  N         22.7380   14.6960   16.8180 N.3    36  ASP36      -0.1239
     27  CA        22.0400   15.0210   15.5720 C.3    36  ASP36       0.1674
     28  C         20.5110   14.9960   15.7120 C.2    36  ASP36       0.2266
     29  O         19.8700   13.9450   15.6150 O.2    36  ASP36      -0.2867
     30  CB        22.4950   14.0670   14.4590 C.3    36  ASP36       0.1410
     31  CG        21.9800   14.4650   13.0800 C.2    36  ASP36       0.3668
     32  OD1       21.3960   15.5590   12.9320 O.co2  36  ASP36      -0.2456
     33  OD2       22.1990   13.6730   12.1340 O.co2  36  ASP36      -0.2456
     34  N         18.5710   16.0460   13.5610 N.3    38  GLY38      -0.1210
     35  CA        18.0220   15.9400   12.2060 C.3    38  GLY38       0.1956
     36  C         18.0300   14.5390   11.6170 C.2    38  GLY38       0.2612
     37  O         17.8010   14.3720   10.4100 O.2    38  GLY38      -0.2717
     38  N         18.3340   13.5350   12.4430 N.am   39  SER39      -0.1952
     39  CA        18.2710   12.1340   12.0060 C.3    39  SER39       0.1924
     40  C         17.8860   11.2200   13.1620 C.2    39  SER39       0.2314
     41  O         17.8210   11.6660   14.3080 O.2    39  SER39      -0.2863
     42  CB        19.5950   11.6760   11.3840 C.3    39  SER39       0.2116
     43  OG        20.5720   11.4660   12.3880 O.3    39  SER39      -0.2180
     44  N         22.0690    3.6130    3.8720 N.3    73  VAL73      -0.1245
     45  CA        21.5680    4.9750    4.0150 C.3    73  VAL73       0.1561
     46  C         22.3090    5.9420    3.0920 C.2    73  VAL73       0.2260
     47  O         23.3640    6.4660    3.4570 O.2    73  VAL73      -0.2867
     48  CB        21.6370    5.4570    5.4870 C.3    73  VAL73       0.0252
     49  CG1       20.9970    6.8330    5.6410 C.3    73  VAL73       0.0019
     50  CG2       20.9440    4.4550    6.4020 C.3    73  VAL73       0.0019
     51  N         22.4480    9.6420    1.1650 N.3    75  TYR75      -0.1241
     52  CA        21.9760   11.0000    1.4130 C.3    75  TYR75       0.1605
     53  C         22.6840   11.9420    0.4400 C.2    75  TYR75       0.2264
     54  O         23.5870   11.5160   -0.2870 O.2    75  TYR75      -0.2867
     55  CB        22.1920   11.4040    2.8860 C.3    75  TYR75       0.0534
     56  CG        23.5920   11.1660    3.4120 C.ar   75  TYR75      -0.0201
     57  CD1       23.9580    9.9350    3.9690 C.ar   75  TYR75      -0.0009
     58  CD2       24.5530   12.1730    3.3560 C.ar   75  TYR75      -0.0009
     59  CE1       25.2430    9.7230    4.4460 C.ar   75  TYR75       0.0417
     60  CE2       25.8360   11.9690    3.8310 C.ar   75  TYR75       0.0417
     61  CZ        26.1750   10.7430    4.3700 C.ar   75  TYR75       0.1957
     62  OH        27.4540   10.5570    4.8350 O.3    75  TYR75      -0.2866
     63  N         25.0200   14.2220    0.4670 N.3    77  GLN77      -0.1245
     64  CA        26.4850   14.2860    0.4870 C.3    77  GLN77       0.1566
     65  C         27.1770   12.9490    0.1780 C.2    77  GLN77       0.2260
     66  O         28.1960   12.9210   -0.5150 O.2    77  GLN77      -0.2867
     67  CB        26.9810   14.8300    1.8340 C.3    77  GLN77       0.0367
     68  CG        26.2990   16.1140    2.2970 C.3    77  GLN77       0.0905
     69  CD        26.8000   17.3540    1.5780 C.2    77  GLN77       0.2608
     70  OE1       28.0070   17.6040    1.5050 O.2    77  GLN77      -0.2717
     71  NE2       25.8710   18.1460    1.0530 N.am   77  GLN77      -0.0878
     72  N         26.2370    5.9220    4.2430 N.3    80  TRP80      -0.1241
     73  CA        26.7940    4.9900    5.2050 C.3    80  TRP80       0.1605
     74  C         25.9990    3.6960    5.1500 C.2    80  TRP80       0.2264
     75  O         24.8250    3.7030    4.7950 O.2    80  TRP80      -0.2867
     76  CB        26.8390    5.5870    6.6180 C.3    80  TRP80       0.0550
     77  CG        25.5100    5.8160    7.2980 C.ar   80  TRP80       0.0003
     78  CD1       24.8160    6.9960    7.3710 C.ar   80  TRP80       0.0946
     79  CD2       24.7430    4.8540    8.0420 C.ar   80  TRP80       0.0152
     80  NE1       23.6570    6.8190    8.0930 N.ar   80  TRP80      -0.2442
     81  CE2       23.5890    5.5170    8.5190 C.ar   80  TRP80       0.0810
     82  CE3       24.9120    3.4930    8.3370 C.ar   80  TRP80       0.0012
     83  CZ2       22.6150    4.8690    9.2870 C.ar   80  TRP80       0.0191
     84  CZ3       23.9390    2.8470    9.0930 C.ar   80  TRP80       0.0001
     85  CH2       22.8040    3.5400    9.5630 C.ar   80  TRP80       0.0015
     86  N         32.0150    9.8660    2.4670 N.3   111  LYS111     -0.1231
     87  CA        31.7910   11.2510    2.9070 C.3   111  LYS111      0.1693
     88  C         30.8270   11.3210    4.0980 C.2   111  LYS111      0.2592
     89  O         29.8770   12.1130    4.1270 O.2   111  LYS111     -0.2718
     90  CB        31.3080   12.1230    1.7410 C.3   111  LYS111      0.0285
     91  CG        32.2050   12.0550    0.5130 C.3   111  LYS111      0.0035
     92  CD        31.5900   12.7840   -0.6720 C.3   111  LYS111      0.0206
     93  CE        31.8810   14.2770   -0.6360 C.3   111  LYS111      0.1093
     94  NZ        33.3390   14.5620   -0.7430 N.3   111  LYS111     -0.1314
     95  N         31.0770   10.4480    5.0660 N.am  112  PHE112     -0.1976
     96  CA        30.3190   10.3990    6.3010 C.3   112  PHE112      0.1639
     97  C         31.2490   10.9290    7.3810 C.2   112  PHE112      0.2290
     98  O         30.9720   11.9630    7.9980 O.2   112  PHE112     -0.2864
     99  CB        29.8670    8.9600    6.5810 C.3   112  PHE112      0.0560
    100  CG        29.1020    8.7850    7.8670 C.ar  112  PHE112     -0.0200
    101  CD1       27.7340    8.9860    7.9070 C.ar  112  PHE112     -0.0042
    102  CD2       29.7510    8.3700    9.0260 C.ar  112  PHE112     -0.0042
    103  CE1       27.0220    8.8060    9.0860 C.ar  112  PHE112     -0.0003
    104  CE2       29.0490    8.1950   10.2090 C.ar  112  PHE112     -0.0003
    105  CZ        27.6800    8.4040   10.2370 C.ar  112  PHE112     -0.0000
    106  N         34.4860   12.7840    8.9780 N.3   114  ILE114     -0.1245
    107  CA        35.1910   14.0170    8.6570 C.3   114  ILE114      0.1561
    108  C         36.5530   13.9810    9.3260 C.2   114  ILE114      0.2260
    109  O         36.6470   13.8610   10.5540 O.2   114  ILE114     -0.2867
    110  CB        34.4120   15.2690    9.1240 C.3   114  ILE114      0.0252
    111  CG1       33.0280   15.3220    8.4690 C.3   114  ILE114      0.0019
    112  CG2       35.1930   16.5450    8.8120 C.3   114  ILE114      0.0019
    113  CD1       32.0990   16.3560    9.0650 C.3   114  ILE114      0.0001
    114  N         34.7920   12.7140   16.0110 N.3   119  TRP119     -0.1241
    115  CA        33.6740   11.8210   16.3160 C.3   119  TRP119      0.1605
    116  C         33.6690   10.5770   15.4300 C.2   119  TRP119      0.2264
    117  O         34.1250   10.6110   14.2800 O.2   119  TRP119     -0.2867
    118  CB        32.3110   12.5490   16.3280 C.3   119  TRP119      0.0550
    119  CG        31.9520   13.3710   15.0880 C.ar  119  TRP119      0.0003
    120  CD1       32.0490   14.7260   14.9560 C.ar  119  TRP119      0.0946
    121  CD2       31.3970   12.8890   13.8510 C.ar  119  TRP119      0.0152
    122  NE1       31.6090   15.1210   13.7110 N.ar  119  TRP119     -0.2442
    123  CE2       31.2000   14.0170   13.0140 C.ar  119  TRP119      0.0810
    124  CE3       31.0540   11.6210   13.3670 C.ar  119  TRP119      0.0012
    125  CZ2       30.6890   13.9110   11.7120 C.ar  119  TRP119      0.0191
    126  CZ3       30.5330   11.5140   12.0700 C.ar  119  TRP119      0.0001
    127  CH2       30.3530   12.6590   11.2610 C.ar  119  TRP119      0.0015
    128  N         27.1160    8.6870   15.0540 N.3   122  ILE122     -0.1245
    129  CA        26.0680    9.6970   15.1020 C.3   122  ILE122      0.1561
    130  C         24.8980    9.2440   15.9820 C.2   122  ILE122      0.2260
    131  O         24.4530    8.0900   15.8980 O.2   122  ILE122     -0.2867
    132  CB        25.5980   10.0710   13.6680 C.3   122  ILE122      0.0252
    133  CG1       26.7720   10.6540   12.8690 C.3   122  ILE122      0.0019
    134  CG2       24.4430   11.0750   13.7200 C.3   122  ILE122      0.0019
    135  CD1       26.3960   11.3240   11.5580 C.3   122  ILE122      0.0001
    136  N         17.7660   21.5670   13.7090 N.3   232  ASP232     -0.1225
    137  CA        18.7470   20.5250   13.3890 C.3   232  ASP232      0.1805
    138  C         20.1580   20.8210   13.8910 C.2   232  ASP232      0.2598
    139  O         20.9110   21.5770   13.2580 O.2   232  ASP232     -0.2718
    140  CB        18.7850   20.3040   11.8670 C.3   232  ASP232      0.1424
    141  CG        19.6430   19.1250   11.4640 C.2   232  ASP232      0.3668
    142  OD1       20.0430   18.3320   12.3430 O.co2 232  ASP232     -0.2456
    143  OD2       19.9130   18.9790   10.2460 O.co2 232  ASP232     -0.2456
    144  N         20.5420   20.1740   14.9930 N.am  233  SER233     -0.1938
    145  CA        21.9010   20.3220   15.5270 C.3   233  SER233      0.2055
    146  C         22.9490   19.7170   14.5900 C.2   233  SER233      0.2644
    147  O         24.1390   20.0020   14.7290 O.2   233  SER233     -0.2714
    148  CB        22.0090   19.6760   16.9100 C.3   233  SER233      0.2130
    149  OG        21.8460   18.2720   16.8320 O.3   233  SER233     -0.2179
    150  N         22.5010   18.8720   13.6600 N.am  234  GLY234     -0.1939
    151  CA        23.3820   18.2570   12.6550 C.3   234  GLY234      0.2014
    152  C         23.5640   19.0420   11.3580 C.2   234  GLY234      0.2640
    153  O         24.1040   18.5170   10.3700 O.2   234  GLY234     -0.2714
    154  N         23.1160   20.2940   11.3560 N.am  235  THR235     -0.1936
    155  CA        23.3980   21.2250   10.2640 C.3   235  THR235      0.2028
    156  C         24.1170   22.4200   10.8570 C.2   235  THR235      0.2642
    157  O         23.6800   22.9510   11.8820 O.2   235  THR235     -0.2714
    158  CB        22.1100   21.7400    9.5940 C.3   235  THR235      0.1808
    159  OG1       21.4500   20.6700    8.9090 O.3   235  THR235     -0.2208
    160  CG2       22.4230   22.8540    8.6010 C.3   235  THR235      0.0379
    161  N         25.2040   22.8550   10.2190 N.am  236  THR236     -0.1950
    162  CA        25.9610   24.0120   10.7170 C.3   236  THR236      0.1897
    163  C         25.1950   25.3230   10.5240 C.2   236  THR236      0.2313
    164  O         25.0920   26.1470   11.4440 O.2   236  THR236     -0.2863
    165  CB        27.3320   24.1350   10.0050 C.3   236  THR236      0.1794
    166  OG1       28.1260   22.9730   10.2750 O.3   236  THR236     -0.2208
    167  CG2       28.0850   25.3800   10.4680 C.3   236  THR236      0.0378
    168  N         19.7830   27.5210    7.0800 N.3   239  ARG239     -0.1245
    169  CA        19.4900   27.2240    5.6780 C.3   239  ARG239      0.1563
    170  C         18.0800   27.6950    5.3910 C.2   239  ARG239      0.2260
    171  O         17.1630   27.4530    6.1760 O.2   239  ARG239     -0.2867
    172  CB        19.6550   25.7320    5.3870 C.3   239  ARG239      0.0307
    173  CG        21.0330   25.2050    5.7620 C.3   239  ARG239      0.0489
    174  CD        21.3020   23.8060    5.2260 C.3   239  ARG239      0.2205
    175  NE        21.2940   23.7660    3.7600 N.pl3 239  ARG239     -0.0865
    176  CZ        20.5610   22.9360    3.0270 C.cat 239  ARG239      0.5346
    177  NH1       20.6250   22.9950    1.7000 N.pl3 239  ARG239      0.1354
    178  NH2       19.7720   22.0410    3.6070 N.pl3 239  ARG239      0.1354
@<TRIPOS>BOND
     1    94    93    1
     2    92    93    1
     3    92    91    1
     4    66    65    2
     5    54    53    2
     6    65    64    1
     7    53    52    1
     8    63    64    1
     9    64    67    1
    10    91    90    1
    11    71    69   am
    12    51    52    1
    13    52    55    1
    14    70    69    2
    15    69    68    1
    16   177   176    1
    17    90    87    1
    18    67    68    1
    19    86    87    1
    20    55    56    1
    21    87    88    1
    22   176   178    1
    23   176   175    2
    24    46    47    2
    25    46    45    1
    26    58    56   ar
    27    58    60   ar
    28    56    57   ar
    29   175   174    1
    30    60    61   ar
    31    44    45    1
    32    57    59   ar
    33    45    48    1
    34    88    89    2
    35    88    95   am
    36    72    73    1
    37    61    59   ar
    38    61    62    1
    39    75    74    2
    40    95    96    1
    41    74    73    1
    42    73    76    1
    43   174   173    1
    44   172   169    1
    45   172   173    1
    46   170   169    1
    47   170   171    2
    48    48    49    1
    49    48    50    1
    50   169   168    1
    51    96    99    1
    52    96    97    1
    53    99   100    1
    54    76    77    1
    55    77    78   ar
    56    77    79   ar
    57    78    80   ar
    58    97    98    2
    59   100   101   ar
    60   100   102   ar
    61   101   103   ar
    62    79    82   ar
    63    79    81   ar
    64    80    81   ar
    65    82    84   ar
    66   111   113    1
    67   111   110    1
    68    81    83   ar
    69   160   158    1
    70   107   106    1
    71   107   110    1
    72   107   108    1
    73   112   110    1
    74   159   158    1
    75   102   104   ar
    76   103   105   ar
    77    84    85   ar
    78    83    85   ar
    79   108   109    2
    80   158   155    1
    81    13    11   am
    82   165   166    1
    83   165   167    1
    84   165   162    1
    85   104   105   ar
    86   161   162    1
    87   161   156   am
    88   143   141   ar
    89   155   156    1
    90   155   154    1
    91     4     3    2
    92   153   152    2
    93    37    36    2
    94   163   162    1
    95   163   164    2
    96   156   157    2
    97    10    11    1
    98    10     9    1
    99    11    12    2
   100   127   125   ar
   101   127   126   ar
   102     3     2    1
   103     3     5   am
   104   154   152   am
   105   152   151    1
   106    42    39    1
   107    42    43    1
   108   141   140    1
   109   141   142   ar
   110     2     1    1
   111   135   133    1
   112    36    35    1
   113    36    38   am
   114   125   123   ar
   115   140   137    1
   116    39    38    1
   117    39    40    1
   118   126   124   ar
   119    33    31   ar
   120     6     9    1
   121     6     5    1
   122     6     7    1
   123    35    34    1
   124   151   150    1
   125   133   132    1
   126    32    31   ar
   127   123   122   ar
   128   123   121   ar
   129    31    30    1
   130     7     8    2
   131     7    14   am
   132    40    41    2
   133   139   138    2
   134   124   121   ar
   135    25    23    1
   136   137   136    1
   137   137   138    1
   138   150   146   am
   139   132   134    1
   140   132   129    1
   141   122   120   ar
   142    14    15    1
   143   121   119   ar
   144   138   144   am
   145   117   116    2
   146    30    27    1
   147   146   147    2
   148   146   145    1
   149    15    16    1
   150    23    24    1
   151    23    22    1
   152   120   119   ar
   153   144   145    1
   154   128   129    1
   155   119   118    1
   156   129   130    1
   157   116   115    1
   158    22    19    1
   159   145   148    1
   160    27    28    1
   161    27    26    1
   162    29    28    2
   163   131   130    2
   164   114   115    1
   165    16    17    2
   166   115   118    1
   167   149   148    1
   168    19    18    1
   169    19    20    1
   170    21    20    2
