@<TRIPOS>MOLECULE
tmp/4jpgA01.pdb
 121 115 0 0 0
SMALL
GASTEIGER

@<TRIPOS>ATOM
      1  N         14.9400   -1.6020   13.1590 N.3    14  PHE14      -0.1241
      2  CA        14.1460   -0.8360   12.2100 C.3    14  PHE14       0.1605
      3  C         15.0460   -0.1860   11.1400 C.2    14  PHE14       0.2264
      4  O         14.6860   -0.1820    9.9580 O.2    14  PHE14      -0.2867
      5  CB        13.2490    0.1930   12.9110 C.3    14  PHE14       0.0534
      6  CG        12.5330    1.0970   11.9270 C.ar   14  PHE14      -0.0203
      7  CD1       12.9610    2.4080   11.7210 C.ar   14  PHE14      -0.0042
      8  CD2       11.4620    0.6200   11.1700 C.ar   14  PHE14      -0.0042
      9  CE1       12.3120    3.2340   10.8010 C.ar   14  PHE14      -0.0003
     10  CE2       10.8280    1.4390   10.2430 C.ar   14  PHE14      -0.0003
     11  CZ        11.2410    2.7530   10.0800 C.ar   14  PHE14      -0.0000
     12  N         15.8950   -2.7810    8.6920 N.3    17  HIS17      -0.1226
     13  CA        14.6580   -3.0660    7.9510 C.3    17  HIS17       0.1752
     14  C         14.5130   -2.0700    6.7910 C.2    17  HIS17       0.2595
     15  O         14.2000   -2.4760    5.6670 O.2    17  HIS17      -0.2718
     16  CB        13.4520   -2.9970    8.9000 C.3    17  HIS17       0.0759
     17  CG        12.1390   -2.9830    8.1970 C.ar   17  HIS17       0.0818
     18  ND1       11.5680   -4.1450    7.7260 N.ar   17  HIS17      -0.2268
     19  CD2       11.3270   -1.9390    7.9050 C.ar   17  HIS17       0.1154
     20  CE1       10.4260   -3.7810    7.1640 C.ar   17  HIS17       0.1986
     21  NE2       10.2460   -2.4590    7.2390 N.ar   17  HIS17      -0.2212
     22  N         14.7690   -0.7710    7.0740 N.am   18  MET18      -0.1979
     23  CA        14.7630    0.3100    6.1000 C.3    18  MET18       0.1605
     24  C         15.8740    0.0680    5.0840 C.2    18  MET18       0.2287
     25  O         15.6450    0.2740    3.8930 O.2    18  MET18      -0.2864
     26  CB        15.0240    1.6470    6.8010 C.3    18  MET18       0.0413
     27  CG        13.8050    2.3040    7.4060 C.3    18  MET18       0.0598
     28  SD        14.3950    3.9070    8.0030 S.3    18  MET18      -0.1393
     29  CE        14.0960    4.9080    6.5930 C.3    18  MET18       0.0692
     30  N         14.7920   -2.5190    2.3410 N.3    21  LEU21      -0.1245
     31  CA        13.6500   -2.2930    1.4460 C.3    21  LEU21       0.1561
     32  C         14.0940   -2.3710    0.0020 C.2    21  LEU21       0.2260
     33  O         15.0940   -1.7690   -0.3780 O.2    21  LEU21      -0.2867
     34  CB        12.8940   -1.0010    1.7540 C.3    21  LEU21       0.0270
     35  CG        12.1870   -0.9880    3.1230 C.3    21  LEU21       0.0019
     36  CD1       11.7200    0.4250    3.4930 C.3    21  LEU21       0.0001
     37  CD2       11.0830   -2.0320    3.1910 C.3    21  LEU21       0.0001
     38  N         -0.2550   11.2760   13.1060 N.3   299  LYS299     -0.1245
     39  CA         0.3720   10.0740   13.7020 C.3   299  LYS299      0.1561
     40  C         -0.1520    9.7840   15.0960 C.2   299  LYS299      0.2260
     41  O         -0.2600    8.6280   15.4600 O.2   299  LYS299     -0.2867
     42  CB         1.9270   10.1490   13.6630 C.3   299  LYS299      0.0271
     43  CG         2.4430   10.0110   12.2360 C.3   299  LYS299      0.0035
     44  CD         3.8000   10.7000   12.0690 C.3   299  LYS299      0.0206
     45  CE         4.2280   10.8230   10.6220 C.3   299  LYS299      0.1093
     46  NZ         4.7070    9.5190   10.0990 N.3   299  LYS299     -0.1314
     47  N          3.3310    6.5710    3.3390 N.3   338  ASN338     -0.1240
     48  CA         3.5290    6.9130    4.7280 C.3   338  ASN338      0.1653
     49  C          2.2550    6.8100    5.5570 C.2   338  ASN338      0.2266
     50  O          2.3580    6.3840    6.6970 O.2   338  ASN338     -0.2867
     51  CB         4.1920    8.2620    4.8510 C.3   338  ASN338      0.1155
     52  CG         5.7070    8.1610    4.7730 C.2   338  ASN338      0.2627
     53  OD1        6.3530    7.4580    5.5450 O.2   338  ASN338     -0.2716
     54  ND2        6.3060    8.8460    3.8350 N.am  338  ASN338     -0.0877
     55  N          2.1450    3.1080    6.0520 N.3   341  LEU341     -0.1231
     56  CA         3.1810    2.7510    7.0070 C.3   341  LEU341      0.1693
     57  C          2.8140    3.1880    8.4350 C.2   341  LEU341      0.2592
     58  O          3.0890    2.4400    9.3710 O.2   341  LEU341     -0.2718
     59  CB         4.5600    3.3250    6.5900 C.3   341  LEU341      0.0284
     60  CG         5.1730    2.7250    5.3230 C.3   341  LEU341      0.0019
     61  CD1        6.3440    3.5270    4.8510 C.3   341  LEU341      0.0001
     62  CD2        5.5400    1.2550    5.5070 C.3   341  LEU341      0.0001
     63  N          2.1820    4.3810    8.5990 N.am  342  ASP342     -0.1974
     64  CA         1.7330    4.8800    9.9130 C.3   342  ASP342      0.1709
     65  C          0.7350    3.9150   10.5970 C.2   342  ASP342      0.2293
     66  O          0.6950    3.8850   11.8150 O.2   342  ASP342     -0.2864
     67  CB         1.0640    6.2720    9.8180 C.3   342  ASP342      0.1436
     68  CG         1.9460    7.4850    9.5450 C.2   342  ASP342      0.3671
     69  OD1        3.1760    7.3200    9.4620 O.co2 342  ASP342     -0.2456
     70  OD2        1.3900    8.5890    9.3290 O.co2 342  ASP342     -0.2456
     71  N          6.1830   -3.2910    2.9390 N.3   376  ALA376     -0.1231
     72  CA         7.2420   -2.5090    3.5920 C.3   376  ALA376      0.1694
     73  C          7.0420   -2.3380    5.1210 C.2   376  ALA376      0.2592
     74  O          7.9740   -1.9010    5.7790 O.2   376  ALA376     -0.2718
     75  CB         7.3960   -1.1480    2.9130 C.3   376  ALA376      0.0304
     76  N          5.8550   -2.6460    5.6750 N.am  377  ILE377     -0.1966
     77  CA         5.5980   -2.5370    7.1220 C.3   377  ILE377      0.1727
     78  C          6.5500   -3.4330    7.9380 C.2   377  ILE377      0.2616
     79  O          6.8770   -4.5380    7.5070 O.2   377  ILE377     -0.2715
     80  CB         4.0910   -2.8360    7.4360 C.3   377  ILE377      0.0290
     81  CG1        3.2050   -1.6680    6.9450 C.3   377  ILE377      0.0022
     82  CG2        3.8390   -3.1370    8.9500 C.3   377  ILE377      0.0023
     83  CD1        1.7060   -1.9900    6.8900 C.3   377  ILE377      0.0001
     84  N          6.9800   -2.9520    9.1040 N.am  378  TYR378     -0.1974
     85  CA         7.8470   -3.6890   10.0200 C.3   378  TYR378      0.1639
     86  C          6.9550   -4.4490   11.0240 C.2   378  TYR378      0.2290
     87  O          6.8050   -4.0540   12.1880 O.2   378  TYR378     -0.2864
     88  CB         8.8730   -2.7360   10.6830 C.3   378  TYR378      0.0560
     89  CG         9.9990   -3.4040   11.4410 C.ar  378  TYR378     -0.0198
     90  CD1       10.6060   -4.5610   10.9560 C.ar  378  TYR378     -0.0009
     91  CD2       10.5230   -2.8290   12.6000 C.ar  378  TYR378     -0.0009
     92  CE1       11.6670   -5.1600   11.6310 C.ar  378  TYR378      0.0417
     93  CE2       11.5840   -3.4230   13.2880 C.ar  378  TYR378      0.0417
     94  CZ        12.1560   -4.5870   12.7970 C.ar  378  TYR378      0.1957
     95  OH        13.2150   -5.1760   13.4590 O.3   378  TYR378     -0.2866
     96  N          8.1100   -5.5890   14.7110 N.3   381  GLN381     -0.1231
     97  CA         7.9120   -4.6170   15.7910 C.3   381  GLN381      0.1698
     98  C          6.4290   -4.2880   16.0220 C.2   381  GLN381      0.2592
     99  O          6.0010   -4.1620   17.1700 O.2   381  GLN381     -0.2718
    100  CB         8.7010   -3.3360   15.5350 C.3   381  GLN381      0.0381
    101  CG         8.8610   -2.4820   16.7840 C.3   381  GLN381      0.0905
    102  CD         9.8960   -1.3980   16.6530 C.2   381  GLN381      0.2608
    103  OE1       10.8560   -1.4780   15.8680 O.2   381  GLN381     -0.2717
    104  NE2        9.7170   -0.3640   17.4440 N.am  381  GLN381     -0.0878
    105  N          5.6670   -4.0950   14.9440 N.am  382  LEU382     -0.1980
    106  CA         4.2470   -3.7470   15.0430 C.3   382  LEU382      0.1596
    107  C          3.4310   -4.7970   15.8330 C.2   382  LEU382      0.2287
    108  O          2.7790   -4.4440   16.8100 O.2   382  LEU382     -0.2864
    109  CB         3.6590   -3.4980   13.6530 C.3   382  LEU382      0.0297
    110  CG         2.1560   -3.1750   13.5650 C.3   382  LEU382      0.0022
    111  CD1        1.8380   -1.8520   14.2430 C.3   382  LEU382      0.0001
    112  CD2        1.7160   -3.1320   12.1410 C.3   382  LEU382      0.0001
    113  N          4.4570   -4.9040   19.6380 N.3   385  GLU385     -0.1245
    114  CA         3.9260   -3.7320   20.3190 C.3   385  GLU385      0.1567
    115  C          2.4190   -3.7980   20.4920 C.2   385  GLU385      0.2260
    116  O          1.9180   -3.3950   21.5440 O.2   385  GLU385     -0.2867
    117  CB         4.3460   -2.4500   19.5900 C.3   385  GLU385      0.0388
    118  CG         5.8230   -2.1410   19.7690 C.3   385  GLU385      0.1160
    119  CD         6.3560   -0.8500   19.1850 C.2   385  GLU385      0.3649
    120  OE1        5.5800   -0.0940   18.5520 O.co2 385  GLU385     -0.2457
    121  OE2        7.5590   -0.5800   19.3950 O.co2 385  GLU385     -0.2457
@<TRIPOS>BOND
     1    33    32    2
     2    32    31    1
     3    31    34    1
     4    31    30    1
     5    34    35    1
     6    75    72    1
     7    71    72    1
     8    35    37    1
     9    35    36    1
    10    47    48    1
    11    72    73    1
    12    54    52   am
    13    25    24    2
    14    48    51    1
    15    48    49    1
    16    52    51    1
    17    52    53    2
    18    61    60    1
    19    24    23    1
    20    73    76   am
    21    73    74    2
    22    60    62    1
    23    60    59    1
    24    49    50    2
    25    15    14    2
    26    76    77    1
    27    55    56    1
    28    23    26    1
    29    23    22    1
    30    59    56    1
    31    29    28    1
    32    14    22   am
    33    14    13    1
    34    26    27    1
    35    83    81    1
    36    81    80    1
    37    56    57    1
    38    77    80    1
    39    77    78    1
    40    20    21   ar
    41    20    18   ar
    42    21    19   ar
    43    27    28    1
    44    80    82    1
    45    79    78    2
    46    18    17   ar
    47    19    17   ar
    48    78    84   am
    49    13    12    1
    50    13    16    1
    51    17    16    1
    52    57    63   am
    53    57    58    2
    54    63    64    1
    55    84    85    1
    56    70    68   ar
    57    69    68   ar
    58    68    67    1
    59    67    64    1
    60    64    65    1
    61     4     3    2
    62    85    88    1
    63    85    86    1
    64    11    10   ar
    65    11     9   ar
    66    46    45    1
    67    10     8   ar
    68    65    66    2
    69    45    44    1
    70    88    89    1
    71     9     7   ar
    72    90    89   ar
    73    90    92   ar
    74    86    87    2
    75     3     2    1
    76     8     6   ar
    77    89    91   ar
    78    92    94   ar
    79     7     6   ar
    80     6     5    1
    81    44    43    1
    82   112   110    1
    83     2     5    1
    84     2     1    1
    85    43    42    1
    86    91    93   ar
    87    94    93   ar
    88    94    95    1
    89    38    39    1
    90   110   109    1
    91   110   111    1
    92   109   106    1
    93    42    39    1
    94    39    40    1
    95    96    97    1
    96   105   106    1
    97   105    98   am
    98   106   107    1
    99    40    41    2
   100   100    97    1
   101   100   101    1
   102    97    98    1
   103   107   108    2
   104   103   102    2
   105    98    99    2
   106   102   101    1
   107   102   104   am
   108   120   119   ar
   109   119   121   ar
   110   119   118    1
   111   117   118    1
   112   117   114    1
   113   113   114    1
   114   114   115    1
   115   115   116    2
