@<TRIPOS>MOLECULE
tmp/4jpgD01.pdb
 101 95 0 0 0
SMALL
GASTEIGER

@<TRIPOS>ATOM
      1  N         19.2920  -12.9740   23.9330 N.3    13  PHE13      -0.1241
      2  CA        19.8440  -13.5820   25.1350 C.3    13  PHE13       0.1605
      3  C         19.9810  -15.0910   24.8960 C.2    13  PHE13       0.2264
      4  O         20.9710  -15.6980   25.3270 O.2    13  PHE13      -0.2867
      5  CB        19.0180  -13.2580   26.4030 C.3    13  PHE13       0.0534
      6  CG        19.5690  -13.9800   27.6190 C.ar   13  PHE13      -0.0203
      7  CD1       18.8920  -15.0620   28.1660 C.ar   13  PHE13      -0.0042
      8  CD2       20.8400  -13.6940   28.0990 C.ar   13  PHE13      -0.0042
      9  CE1       19.4340  -15.7740   29.2350 C.ar   13  PHE13      -0.0003
     10  CE2       21.3850  -14.4120   29.1580 C.ar   13  PHE13      -0.0003
     11  CZ        20.6770  -15.4420   29.7280 C.ar   13  PHE13      -0.0000
     12  N         23.4580  -17.1730   25.2930 N.3    17  MET17      -0.1245
     13  CA        23.6570  -18.4390   26.0300 C.3    17  MET17       0.1570
     14  C         24.3060  -19.5200   25.1140 C.2    17  MET17       0.2261
     15  O         25.3270  -20.1120   25.4950 O.2    17  MET17      -0.2867
     16  CB        22.3270  -18.9520   26.5820 C.3    17  MET17       0.0387
     17  CG        21.9250  -18.3210   27.8940 C.3    17  MET17       0.0595
     18  SD        20.2870  -18.9590   28.3680 S.3    17  MET17      -0.1393
     19  CE        20.7590  -20.5590   29.0230 C.3    17  MET17       0.0692
     20  N         15.8790  -17.4200   46.2880 N.3   288  PHE288     -0.1241
     21  CA        16.4220  -16.9640   45.0080 C.3   288  PHE288      0.1605
     22  C         15.6840  -15.7360   44.4540 C.2   288  PHE288      0.2264
     23  O         16.3110  -14.8960   43.8050 O.2   288  PHE288     -0.2867
     24  CB        16.4950  -18.1180   43.9950 C.3   288  PHE288      0.0534
     25  CG        15.1700  -18.4460   43.3680 C.ar  288  PHE288     -0.0203
     26  CD1       14.8210  -17.9220   42.1240 C.ar  288  PHE288     -0.0042
     27  CD2       14.2640  -19.2820   44.0160 C.ar  288  PHE288     -0.0042
     28  CE1       13.5830  -18.2140   41.5510 C.ar  288  PHE288     -0.0003
     29  CE2       13.0360  -19.5790   43.4350 C.ar  288  PHE288     -0.0003
     30  CZ        12.6960  -19.0270   42.2220 C.ar  288  PHE288     -0.0000
     31  N         17.4690  -12.1790   43.7740 N.3   292  LYS292     -0.1245
     32  CA        17.4280  -11.5200   42.4700 C.3   292  LYS292      0.1561
     33  C         16.7430  -10.1530   42.5280 C.2   292  LYS292      0.2260
     34  O         17.1600   -9.2280   41.8220 O.2   292  LYS292     -0.2867
     35  CB        16.8230  -12.4410   41.3880 C.3   292  LYS292      0.0271
     36  CG        17.7690  -13.5880   41.0270 C.3   292  LYS292      0.0035
     37  CD        17.0520  -14.7570   40.3800 C.3   292  LYS292      0.0206
     38  CE        17.9440  -15.9630   40.2710 C.3   292  LYS292      0.1093
     39  NZ        18.9680  -15.8000   39.2010 N.3   292  LYS292     -0.1314
     40  N         26.2740  -17.6760   39.0620 N.3   331  ASN331     -0.1240
     41  CA        24.9590  -17.0520   38.9740 C.3   331  ASN331      0.1653
     42  C         24.8290  -15.7770   39.8020 C.2   331  ASN331      0.2266
     43  O         24.1400  -14.8770   39.3260 O.2   331  ASN331     -0.2867
     44  CB        23.8250  -18.0270   39.2600 C.3   331  ASN331      0.1155
     45  CG        23.4740  -18.7900   38.0090 C.2   331  ASN331      0.2627
     46  OD1       22.9050  -18.2540   37.0500 O.2   331  ASN331     -0.2716
     47  ND2       23.8720  -20.0380   37.9610 N.am  331  ASN331     -0.0877
     48  N         26.4260  -13.3190   37.5760 N.3   334  LEU334     -0.1231
     49  CA        25.5570  -13.0760   36.4270 C.3   334  LEU334      0.1693
     50  C         24.3280  -12.2530   36.8120 C.2   334  LEU334      0.2592
     51  O         23.9350  -11.3920   36.0280 O.2   334  LEU334     -0.2718
     52  CB        25.1990  -14.3690   35.6650 C.3   334  LEU334      0.0284
     53  CG        26.3880  -15.1030   35.0180 C.3   334  LEU334      0.0019
     54  CD1       26.0730  -16.5680   34.7940 C.3   334  LEU334      0.0001
     55  CD2       26.8890  -14.4240   33.7330 C.3   334  LEU334      0.0001
     56  N         23.7880  -12.4320   38.0480 N.am  335  ASP335     -0.1974
     57  CA        22.6590  -11.6290   38.5590 C.3   335  ASP335      0.1709
     58  C         23.0530  -10.1510   38.6510 C.2   335  ASP335      0.2293
     59  O         22.2150   -9.2760   38.4570 O.2   335  ASP335     -0.2864
     60  CB        22.2220  -12.1040   39.9600 C.3   335  ASP335      0.1436
     61  CG        21.5580  -13.4780   40.0760 C.2   335  ASP335      0.3671
     62  OD1       21.1130  -14.0200   39.0380 O.co2 335  ASP335     -0.2456
     63  OD2       21.4340  -13.9760   41.2090 O.co2 335  ASP335     -0.2456
     64  N         25.8160  -10.4930   29.6450 N.3   371  TYR371     -0.1241
     65  CA        25.2400   -9.9610   28.4110 C.3   371  TYR371      0.1605
     66  C         25.2450   -8.4270   28.5160 C.2   371  TYR371      0.2264
     67  O         24.1980   -7.8020   28.7690 O.2   371  TYR371     -0.2867
     68  CB        23.8320  -10.5140   28.2080 C.3   371  TYR371      0.0534
     69  CG        23.2680  -10.3650   26.8100 C.ar  371  TYR371     -0.0201
     70  CD1       24.1040  -10.2880   25.6970 C.ar  371  TYR371     -0.0009
     71  CD2       21.8950  -10.3310   26.5970 C.ar  371  TYR371     -0.0009
     72  CE1       23.5830  -10.1890   24.4060 C.ar  371  TYR371      0.0417
     73  CE2       21.3650  -10.2030   25.3150 C.ar  371  TYR371      0.0417
     74  CZ        22.2140  -10.1660   24.2200 C.ar  371  TYR371      0.1957
     75  OH        21.6830  -10.0600   22.9610 O.3   371  TYR371     -0.2866
     76  N         22.4750   -6.0820   26.4740 N.3   374  GLN374     -0.1231
     77  CA        21.1750   -5.8310   27.1130 C.3   374  GLN374      0.1698
     78  C         21.3380   -5.0920   28.4690 C.2   374  GLN374      0.2592
     79  O         20.5410   -4.2140   28.7510 O.2   374  GLN374     -0.2718
     80  CB        20.3930   -7.1330   27.3030 C.3   374  GLN374      0.0381
     81  CG        18.9870   -6.9370   27.8790 C.3   374  GLN374      0.0905
     82  CD        18.0650   -8.1190   27.6630 C.2   374  GLN374      0.2608
     83  OE1       18.2840   -8.9740   26.7940 O.2   374  GLN374     -0.2717
     84  NE2       16.9830   -8.1670   28.4300 N.am  374  GLN374     -0.0878
     85  N         22.3180   -5.4890   29.3140 N.am  375  LEU375     -0.1980
     86  CA        22.5480   -4.8780   30.6430 C.3   375  LEU375      0.1596
     87  C         22.7760   -3.3470   30.5530 C.2   375  LEU375      0.2287
     88  O         22.0850   -2.5910   31.2370 O.2   375  LEU375     -0.2864
     89  CB        23.7180   -5.5620   31.3890 C.3   375  LEU375      0.0297
     90  CG        24.0890   -5.0190   32.8110 C.3   375  LEU375      0.0022
     91  CD1       22.9140   -5.1330   33.8080 C.3   375  LEU375      0.0001
     92  CD2       25.2390   -5.7670   33.3720 C.3   375  LEU375      0.0001
     93  N         19.5570   -1.4450   29.3690 N.3   378  GLU378     -0.1245
     94  CA        18.5920   -1.3930   30.4650 C.3   378  GLU378      0.1567
     95  C         18.9900   -0.4720   31.6080 C.2   378  GLU378      0.2260
     96  O         18.1150    0.2020   32.1340 O.2   378  GLU378     -0.2867
     97  CB        18.2650   -2.8000   30.9920 C.3   378  GLU378      0.0388
     98  CG        17.6830   -3.7420   29.9380 C.3   378  GLU378      0.1160
     99  CD        17.1530   -5.0750   30.4410 C.2   378  GLU378      0.3649
    100  OE1       17.4700   -5.4710   31.5870 O.co2 378  GLU378     -0.2457
    101  OE2       16.3490   -5.6910   29.7090 O.co2 378  GLU378     -0.2457
@<TRIPOS>BOND
     1    75    74    1
     2     1     2    1
     3    74    72   ar
     4    74    73   ar
     5    72    70   ar
     6     3     2    1
     7     3     4    2
     8    14    15    2
     9    14    13    1
    10     2     5    1
    11    12    13    1
    12    73    71   ar
    13    70    69   ar
    14    13    16    1
    15     5     6    1
    16    76    77    1
    17    16    17    1
    18    71    69   ar
    19    83    82    2
    20    69    68    1
    21    77    80    1
    22    77    78    1
    23    80    81    1
    24     6     8   ar
    25     6     7   ar
    26    82    81    1
    27    82    84   am
    28    17    18    1
    29     8    10   ar
    30     7     9   ar
    31    68    65    1
    32    18    19    1
    33    65    66    1
    34    65    64    1
    35    78    79    2
    36    78    85   am
    37    66    67    2
    38    10    11   ar
    39     9    11   ar
    40    85    86    1
    41    93    94    1
    42   101    99   ar
    43    98    99    1
    44    98    97    1
    45    99   100   ar
    46    94    97    1
    47    94    95    1
    48    87    86    1
    49    87    88    2
    50    86    89    1
    51    89    90    1
    52    95    96    2
    53    90    92    1
    54    90    91    1
    55    55    53    1
    56    54    53    1
    57    53    52    1
    58    52    49    1
    59    51    50    2
    60    49    50    1
    61    49    48    1
    62    50    56   am
    63    46    45    2
    64    47    45   am
    65    45    44    1
    66    56    57    1
    67    59    58    2
    68    57    58    1
    69    57    60    1
    70    41    40    1
    71    41    44    1
    72    41    42    1
    73    62    61   ar
    74    39    38    1
    75    43    42    2
    76    60    61    1
    77    61    63   ar
    78    38    37    1
    79    37    36    1
    80    36    35    1
    81    35    32    1
    82    28    26   ar
    83    28    30   ar
    84    34    33    2
    85    26    25   ar
    86    30    29   ar
    87    32    33    1
    88    32    31    1
    89    25    24    1
    90    25    27   ar
    91    29    27   ar
    92    23    22    2
    93    24    21    1
    94    22    21    1
    95    21    20    1
