@<TRIPOS>MOLECULE
tmp/4jplA01.pdb
 83 80 0 0 0
SMALL
GASTEIGER

@<TRIPOS>ATOM
      1  N        -15.1530    7.5170    1.8580 N.3   172  HIS172     -0.1226
      2  CA       -15.8190    6.5690    2.7790 C.3   172  HIS172      0.1752
      3  C        -17.2200    6.9860    3.2060 C.2   172  HIS172      0.2596
      4  O        -17.8240    6.2310    4.0130 O.2   172  HIS172     -0.2718
      5  CB       -14.8710    6.2710    3.9680 C.3   172  HIS172      0.0759
      6  CG       -13.7940    5.2960    3.6050 C.ar  172  HIS172      0.0818
      7  ND1      -12.8570    4.8880    4.5260 N.ar  172  HIS172     -0.2268
      8  CD2      -13.5470    4.5890    2.4660 C.ar  172  HIS172      0.1154
      9  CE1      -12.0750    3.9730    3.9600 C.ar  172  HIS172      0.1986
     10  NE2      -12.4740    3.7600    2.7060 N.ar  172  HIS172     -0.2212
     11  N        -17.7150    8.0720    2.6580 N.am  173  ALA173     -0.1966
     12  CA       -19.1750    8.2960    2.6870 C.3   173  ALA173      0.1728
     13  C        -19.9010    7.2840    1.8360 C.2   173  ALA173      0.2616
     14  O        -21.1310    7.0760    1.9870 O.2   173  ALA173     -0.2715
     15  CB       -19.4600    9.6640    2.0960 C.3   173  ALA173      0.0334
     16  N        -19.2350    6.6650    0.8560 N.am  174  LEU174     -0.1963
     17  CA       -19.9160    5.8620   -0.1980 C.3   174  LEU174      0.1728
     18  C        -19.9600    4.4020    0.1540 C.2   174  LEU174      0.2617
     19  O        -19.0060    3.8650    0.7140 O.2   174  LEU174     -0.2715
     20  CB       -19.1050    5.9630   -1.5120 C.3   174  LEU174      0.0311
     21  CG       -18.9050    7.3910   -2.0600 C.3   174  LEU174      0.0022
     22  CD1      -17.8700    7.3260   -3.1700 C.3   174  LEU174      0.0001
     23  CD2      -20.2660    7.9600   -2.5430 C.3   174  LEU174      0.0001
     24  N        -21.0550    3.7120   -0.1760 N.am  175  GLY175     -0.1940
     25  CA       -21.0930    2.2500   -0.1260 C.3   175  GLY175      0.2014
     26  C        -21.0250    1.7770    1.3180 C.2   175  GLY175      0.2639
     27  O        -21.5990    2.3950    2.2490 O.2   175  GLY175     -0.2714
     28  N        -20.3770    0.6490    1.5450 N.am  176  LYS176     -0.1963
     29  CA       -20.3530    0.0800    2.8940 C.3   176  LYS176      0.1728
     30  C        -19.3210   -1.0330    2.9030 C.2   176  LYS176      0.2616
     31  O        -18.9920   -1.5740    1.8410 O.2   176  LYS176     -0.2715
     32  CB       -21.7510   -0.4460    3.2950 C.3   176  LYS176      0.0311
     33  CG       -22.0930   -1.8080    2.7200 C.3   176  LYS176      0.0038
     34  CD       -23.6080   -2.1180    2.7710 C.3   176  LYS176      0.0206
     35  CE       -23.9640   -3.3200    1.8470 C.3   176  LYS176      0.1093
     36  NZ       -25.3920   -3.8480    1.8470 N.3   176  LYS176     -0.1314
     37  N        -18.8410   -1.3740    4.1010 N.am  177  THR177     -0.1951
     38  CA       -17.9200   -2.4760    4.3010 C.3   177  THR177      0.1897
     39  C        -18.7120   -3.7980    4.3180 C.2   177  THR177      0.2313
     40  O        -19.8950   -3.8050    4.6390 O.2   177  THR177     -0.2863
     41  CB       -17.1020   -2.2910    5.5910 C.3   177  THR177      0.1794
     42  OG1      -17.9400   -2.4230    6.7260 O.3   177  THR177     -0.2208
     43  CG2      -16.3750   -0.9650    5.6200 C.3   177  THR177      0.0378
     44  N        -22.2550   -0.3170    7.6270 N.3   187  GLY187     -0.1210
     45  CA       -23.2540    0.5720    8.2070 C.3   187  GLY187      0.1956
     46  C        -24.1780    1.1330    7.1320 C.2   187  GLY187      0.2612
     47  O        -24.3130    0.5560    6.0570 O.2   187  GLY187     -0.2717
     48  N        -24.8170    2.2590    7.4230 N.am  188  GLY188     -0.1956
     49  CA       -25.7090    2.9310    6.4710 C.3   188  GLY188      0.1869
     50  C        -25.0600    3.4620    5.2050 C.2   188  GLY188      0.2309
     51  O        -24.2830    4.4190    5.2360 O.2   188  GLY188     -0.2863
     52  N        -20.8390    3.6050   10.8090 N.3   225  MET225     -0.1230
     53  CA       -19.6290    2.9770   11.3210 C.3   225  MET225      0.1702
     54  C        -18.4550    3.7090   10.6930 C.2   225  MET225      0.2592
     55  O        -18.6040    4.5020    9.7500 O.2   225  MET225     -0.2718
     56  CB       -19.5710    1.4550   11.0340 C.3   225  MET225      0.0401
     57  CG       -18.2500    0.9420   10.5080 C.3   225  MET225      0.0596
     58  SD       -17.8440    1.3690    8.7660 S.3   225  MET225     -0.1393
     59  CE       -16.7460   -0.0350    8.5040 C.3   225  MET225      0.0692
     60  N        -17.2880    3.3990   11.2400 N.am  226  MET226     -0.1965
     61  CA       -15.9690    3.9120   10.8620 C.3   226  MET226      0.1736
     62  C        -14.9390    2.8360   11.1340 C.2   226  MET226      0.2616
     63  O        -14.9940    2.1270   12.1560 O.2   226  MET226     -0.2715
     64  CB       -15.6420    5.1610   11.7030 C.3   226  MET226      0.0427
     65  CG       -16.4980    6.3960   11.3900 C.3   226  MET226      0.0599
     66  SD       -16.1930    7.0760    9.7480 S.3   226  MET226     -0.1393
     67  CE       -17.5630    8.2000    9.6900 C.3   226  MET226      0.0692
     68  N        -14.0000    2.7290   10.2060 N.am  227  LEU227     -0.1977
     69  CA       -12.8480    1.8820   10.4570 C.3   227  LEU227      0.1596
     70  C        -11.9330    2.5390   11.4850 C.2   227  LEU227      0.2287
     71  O        -11.9370    3.7510   11.6320 O.2   227  LEU227     -0.2864
     72  CB       -12.0700    1.7210    9.1840 C.3   227  LEU227      0.0297
     73  CG       -12.7990    1.0490    8.0340 C.3   227  LEU227      0.0022
     74  CD1      -12.0790    1.3400    6.6820 C.3   227  LEU227      0.0001
     75  CD2      -12.9260   -0.4940    8.3020 C.3   227  LEU227      0.0001
     76  N        -10.3220    5.4080    9.7840 N.3   230  ASP230     -0.1239
     77  CA       -11.2220    6.5330    9.6240 C.3   230  ASP230      0.1674
     78  C        -11.2840    7.3350   10.9410 C.2   230  ASP230      0.2266
     79  O        -11.1210    8.5910   10.9420 O.2   230  ASP230     -0.2867
     80  CB       -12.6260    6.0220    9.3920 C.3   230  ASP230      0.1410
     81  CG       -12.8160    5.3470    8.0580 C.2   230  ASP230      0.3668
     82  OD1      -12.1730    5.7850    7.0590 O.co2 230  ASP230     -0.2456
     83  OD2      -13.6970    4.4560    7.9800 O.co2 230  ASP230     -0.2456
@<TRIPOS>BOND
     1    22    21    1
     2    23    21    1
     3    21    20    1
     4    20    17    1
     5    17    18    1
     6    17    16    1
     7    24    25    1
     8    24    18   am
     9    25    26    1
    10    18    19    2
    11    16    13   am
    12    26    28   am
    13    26    27    2
    14    28    29    1
    15    13    14    2
    16    13    12    1
    17    31    30    2
    18    36    35    1
    19    35    34    1
    20     1     2    1
    21    15    12    1
    22     8    10   ar
    23     8     6   ar
    24    11    12    1
    25    11     3   am
    26    10     9   ar
    27    33    34    1
    28    33    32    1
    29     2     3    1
    30     2     5    1
    31    29    30    1
    32    29    32    1
    33    30    37   am
    34     3     4    2
    35     6     5    1
    36     6     7   ar
    37     9     7   ar
    38    37    38    1
    39    38    39    1
    40    38    41    1
    41    39    40    2
    42    50    51    2
    43    50    49    1
    44    41    43    1
    45    41    42    1
    46    47    46    2
    47    49    48    1
    48    74    73    1
    49    82    81   ar
    50    46    48   am
    51    46    45    1
    52    44    45    1
    53    83    81   ar
    54    73    75    1
    55    73    72    1
    56    81    80    1
    57    59    58    1
    58    58    57    1
    59    72    69    1
    60    80    77    1
    61    77    76    1
    62    77    78    1
    63    67    66    1
    64    66    65    1
    65    55    54    2
    66    68    69    1
    67    68    62   am
    68    69    70    1
    69    57    56    1
    70    54    60   am
    71    54    53    1
    72    52    53    1
    73    61    62    1
    74    61    60    1
    75    61    64    1
    76    78    79    2
    77    56    53    1
    78    62    63    2
    79    65    64    1
    80    70    71    2
