@<TRIPOS>MOLECULE
tmp/4jpmA02.pdb
 136 127 0 0 0
SMALL
GASTEIGER

@<TRIPOS>ATOM
      1  N          8.6520   33.8950   11.7850 N.3    44  MET44      -0.1230
      2  CA         8.4040   34.1680   10.3760 C.3    44  MET44       0.1702
      3  C          7.9620   32.8570    9.7010 C.2    44  MET44       0.2593
      4  O          7.2660   32.0370   10.3030 O.2    44  MET44      -0.2718
      5  CB         9.6630   34.7760    9.7190 C.3    44  MET44       0.0401
      6  CG        10.2700   35.8910   10.5380 C.3    44  MET44       0.0596
      7  SD        12.0620   36.0750   10.3010 S.3    44  MET44      -0.1393
      8  CE        12.6400   34.5660   11.0700 C.3    44  MET44       0.0692
      9  N          8.3780   32.6360    8.4560 N.am   45  SER45      -0.1952
     10  CA         7.9120   31.4690    7.7150 C.3    45  SER45       0.1924
     11  C          8.4220   30.1460    8.2540 C.2    45  SER45       0.2314
     12  O          7.9330   29.0980    7.8190 O.2    45  SER45      -0.2863
     13  CB         8.3160   31.5330    6.2420 C.3    45  SER45       0.2116
     14  OG         7.7040   32.6140    5.5550 O.3    45  SER45      -0.2180
     15  N         -0.7580   38.2290    0.4500 N.3    79  ASP79      -0.1225
     16  CA         0.4670   38.5190   -0.2580 C.3    79  ASP79       0.1805
     17  C          1.3700   37.2930   -0.4080 C.2    79  ASP79       0.2597
     18  O          1.5370   36.5580    0.5320 O.2    79  ASP79      -0.2718
     19  CB         1.2260   39.6090    0.5040 C.3    79  ASP79       0.1424
     20  CG         2.3840   40.1640   -0.2900 C.2    79  ASP79       0.3668
     21  OD1        2.3240   40.1810   -1.5450 O.co2  79  ASP79      -0.2456
     22  OD2        3.3620   40.5860    0.3540 O.co2  79  ASP79      -0.2456
     23  N          1.9400   37.1010   -1.5990 N.am   80  TYR80      -0.1976
     24  CA         2.8970   36.0370   -1.9150 C.3    80  TYR80       0.1639
     25  C          2.2660   34.6350   -1.9000 C.2    80  TYR80       0.2290
     26  O          2.3890   33.8510   -0.9480 O.2    80  TYR80      -0.2864
     27  CB         4.1650   36.1030   -1.0550 C.3    80  TYR80       0.0560
     28  CG         5.3000   35.3910   -1.7250 C.ar   80  TYR80      -0.0198
     29  CD1        5.9370   35.9790   -2.8080 C.ar   80  TYR80      -0.0009
     30  CD2        5.7410   34.1380   -1.2920 C.ar   80  TYR80      -0.0009
     31  CE1        6.9800   35.3560   -3.4600 C.ar   80  TYR80       0.0417
     32  CE2        6.8010   33.4950   -1.9440 C.ar   80  TYR80       0.0417
     33  CZ         7.4020   34.1120   -3.0290 C.ar   80  TYR80       0.1957
     34  OH         8.4510   33.4950   -3.6800 O.3    80  TYR80      -0.2866
     35  N          7.2550   28.7010    0.3300 N.3   105  SER105     -0.1217
     36  CA         6.8430   29.7300    1.2900 C.3   105  SER105      0.1889
     37  C          5.5750   30.4460    0.8370 C.2   105  SER105      0.2288
     38  O          5.4140   31.6600    1.0340 O.2   105  SER105     -0.2866
     39  CB         7.9660   30.7190    1.6300 C.3   105  SER105      0.2089
     40  OG         7.9440   30.9740    3.0300 O.3   105  SER105     -0.2183
     41  N          2.2460   31.9010    1.1920 N.3   107  ASN107     -0.1240
     42  CA         1.5650   32.3830    2.3900 C.3   107  ASN107      0.1653
     43  C          0.1080   31.9710    2.4670 C.2   107  ASN107      0.2266
     44  O         -0.4010   31.6900    3.5660 O.2   107  ASN107     -0.2867
     45  CB         1.6680   33.9020    2.5070 C.3   107  ASN107      0.1155
     46  CG         3.0530   34.3740    2.8510 C.2   107  ASN107      0.2627
     47  OD1        3.8000   33.7040    3.5700 O.2   107  ASN107     -0.2716
     48  ND2        3.3740   35.5700    2.4050 N.am  107  ASN107     -0.0877
     49  N         -0.6000   34.6720    8.2710 N.3   141  GLU141     -0.1231
     50  CA         0.1850   35.3820    7.2760 C.3   141  GLU141      0.1699
     51  C         -0.6610   36.5270    6.7360 C.2   141  GLU141      0.2592
     52  O         -1.8530   36.3230    6.4780 O.2   141  GLU141     -0.2718
     53  CB         0.5550   34.4710    6.1160 C.3   141  GLU141      0.0402
     54  CG         1.6560   33.4690    6.4590 C.3   141  GLU141      0.1161
     55  CD         3.0340   34.1050    6.6160 C.2   141  GLU141      0.3649
     56  OE1        3.1540   35.3360    6.4640 O.co2 141  GLU141     -0.2457
     57  OE2        4.0060   33.3450    6.9050 O.co2 141  GLU141     -0.2457
     58  N         -0.1010   37.7300    6.5740 N.am  142  THR142     -0.1953
     59  CA         1.3210   38.0590    6.7540 C.3   142  THR142      0.1897
     60  C          1.6000   38.8730    8.0330 C.2   142  THR142      0.2313
     61  O          2.7500   39.2600    8.2760 O.2   142  THR142     -0.2863
     62  CB         1.8840   38.8740    5.5600 C.3   142  THR142      0.1794
     63  OG1        1.1690   40.1120    5.4920 O.3   142  THR142     -0.2208
     64  CG2        1.7070   38.1280    4.2600 C.3   142  THR142      0.0378
     65  N          4.6020   38.4090   10.6890 N.3   145  ASN145     -0.1240
     66  CA         5.9720   38.8250   10.3960 C.3   145  ASN145      0.1653
     67  C          6.3860   40.1880   10.9220 C.2   145  ASN145      0.2266
     68  O          7.5060   40.6490   10.6470 O.2   145  ASN145     -0.2867
     69  CB         6.2280   38.7900    8.8940 C.3   145  ASN145      0.1155
     70  CG         6.1170   37.4080    8.3590 C.2   145  ASN145      0.2627
     71  OD1        6.9070   36.5330    8.7180 O.2   145  ASN145     -0.2716
     72  ND2        5.0630   37.1650    7.5800 N.am  145  ASN145     -0.0877
     73  N         13.2240   27.7320   -1.9460 N.3   191  VAL191     -0.1245
     74  CA        13.5460   29.1170   -1.6690 C.3   191  VAL191      0.1561
     75  C         15.0400   29.3000   -1.3680 C.2   191  VAL191      0.2260
     76  O         15.6730   30.1960   -1.9160 O.2   191  VAL191     -0.2867
     77  CB        12.6440   29.6620   -0.5440 C.3   191  VAL191      0.0252
     78  CG1       13.0970   31.0370   -0.0660 C.3   191  VAL191      0.0019
     79  CG2       11.1910   29.7100   -1.0160 C.3   191  VAL191      0.0019
     80  N         14.0570   25.1640    6.2010 N.3   209  LYS209     -0.1231
     81  CA        13.0470   26.1770    5.9460 C.3   209  LYS209      0.1693
     82  C         13.6040   27.5000    6.4330 C.2   209  LYS209      0.2593
     83  O         14.0540   27.5970    7.5770 O.2   209  LYS209     -0.2718
     84  CB        11.7190   25.8640    6.6550 C.3   209  LYS209      0.0285
     85  CG        10.6430   26.9370    6.4070 C.3   209  LYS209      0.0035
     86  CD        10.0530   26.8440    4.9890 C.3   209  LYS209      0.0206
     87  CE         9.1910   28.0270    4.6470 C.3   209  LYS209      0.1093
     88  NZ         9.9770   29.1470    4.0240 N.3   209  LYS209     -0.1314
     89  N         13.5320   28.5200    5.5860 N.am  210  THR210     -0.1939
     90  CA        13.9660   29.8610    5.9720 C.3   210  THR210      0.2028
     91  C         12.7920   30.8030    6.2180 C.2   210  THR210      0.2643
     92  O         11.6560   30.5240    5.8580 O.2   210  THR210     -0.2714
     93  CB        14.9360   30.4630    4.9230 C.3   210  THR210      0.1808
     94  OG1       14.2820   30.5720    3.6610 O.3   210  THR210     -0.2208
     95  CG2       16.1610   29.5930    4.7610 C.3   210  THR210      0.0379
     96  N         13.1080   31.9450    6.8280 N.am  211  GLY211     -0.1939
     97  CA        12.1300   32.9720    7.0450 C.3   211  GLY211      0.2014
     98  C         12.7740   34.3400    7.0300 C.2   211  GLY211      0.2639
     99  O         13.9710   34.4760    7.2850 O.2   211  GLY211     -0.2714
    100  N         11.9500   35.3410    6.7610 N.am  212  ALA212     -0.1963
    101  CA        12.3560   36.7470    6.8360 C.3   212  ALA212      0.1728
    102  C         11.1620   37.5590    7.2820 C.2   212  ALA212      0.2617
    103  O         10.0300   37.2090    6.9590 O.2   212  ALA212     -0.2715
    104  CB        12.8170   37.2160    5.4550 C.3   212  ALA212      0.0334
    105  N         11.4050   38.6460    8.0070 N.am  213  GLY213     -0.1940
    106  CA        10.3320   39.5130    8.4960 C.3   213  GLY213      0.2014
    107  C         10.7950   40.9430    8.6230 C.2   213  GLY213      0.2638
    108  O         11.7840   41.3470    8.0170 O.2   213  GLY213     -0.2714
    109  N         10.0700   41.7290    9.4000 N.am  214  GLU214     -0.1977
    110  CA        10.3610   43.1460    9.5170 C.3   214  GLU214      0.1602
    111  C         11.5020   43.3720   10.5040 C.2   214  GLU214      0.2287
    112  O         11.8870   42.4620   11.2480 O.2   214  GLU214     -0.2864
    113  CB         9.1120   43.9090    9.9830 C.3   214  GLU214      0.0415
    114  CG         7.9100   43.7950    9.0550 C.3   214  GLU214      0.1163
    115  CD         8.1730   44.3710    7.6810 C.2   214  GLU214      0.3649
    116  OE1        7.6990   43.7800    6.6830 O.co2 214  GLU214     -0.2457
    117  OE2        8.8600   45.4050    7.5920 O.co2 214  GLU214     -0.2457
    118  N         15.2240   37.4410   10.4330 N.3   218  ARG218     -0.1245
    119  CA        15.6630   36.4650    9.4410 C.3   218  ARG218      0.1563
    120  C         15.9130   35.1780   10.1820 C.2   218  ARG218      0.2260
    121  O         16.3440   35.2020   11.3320 O.2   218  ARG218     -0.2867
    122  CB        16.9700   36.9550    8.7920 C.3   218  ARG218      0.0307
    123  CG        17.4790   36.1050    7.6300 C.3   218  ARG218      0.0489
    124  CD        16.6480   36.3680    6.4230 C.3   218  ARG218      0.2205
    125  NE        17.1880   35.8060    5.1760 N.pl3 218  ARG218     -0.0865
    126  CZ        16.5360   34.9600    4.3920 C.cat 218  ARG218      0.5346
    127  NH1       17.0420   34.6500    3.1970 N.pl3 218  ARG218      0.1354
    128  NH2       15.3750   34.4680    4.7660 N.pl3 218  ARG218      0.1354
    129  N         19.3220   42.4640    3.4820 N.3   245  MET245     -0.1245
    130  CA        19.0650   41.0270    3.3620 C.3   245  MET245      0.1570
    131  C         20.3390   40.2830    2.9800 C.2   245  MET245      0.2261
    132  O         20.6330   39.2330    3.5380 O.2   245  MET245     -0.2867
    133  CB        17.9870   40.7790    2.3260 C.3   245  MET245      0.0387
    134  CG        17.6190   39.3110    2.1510 C.3   245  MET245      0.0595
    135  SD        16.8350   38.6230    3.6020 S.3   245  MET245     -0.1393
    136  CE        15.3240   39.5720    3.5290 C.3   245  MET245      0.0692
@<TRIPOS>BOND
     1    34    33    1
     2    31    33   ar
     3    31    29   ar
     4    33    32   ar
     5    29    28   ar
     6    73    74    1
     7    32    30   ar
     8    76    75    2
     9    24    25    1
    10    24    23    1
    11    24    27    1
    12    25    26    2
    13    28    30   ar
    14    28    27    1
    15    74    75    1
    16    74    77    1
    17    23    17   am
    18    21    20   ar
    19    79    77    1
    20    77    78    1
    21    17    16    1
    22    17    18    2
    23    20    22   ar
    24    20    19    1
    25    16    15    1
    26    16    19    1
    27    35    36    1
    28    37    38    2
    29    37    36    1
    30    41    42    1
    31    36    39    1
    32    39    40    1
    33   134   133    1
    34   134   135    1
    35   133   130    1
    36    42    43    1
    37    42    45    1
    38    48    46   am
    39    43    44    2
    40    45    46    1
    41    46    47    2
    42   131   130    1
    43   131   132    2
    44   127   126    1
    45   130   129    1
    46   136   135    1
    47    94    93    1
    48    88    87    1
    49    64    62    1
    50   126   128    1
    51   126   125    2
    52    87    86    1
    53    95    93    1
    54    93    90    1
    55    86    85    1
    56   125   124    1
    57   104   101    1
    58    63    62    1
    59    14    13    1
    60    62    59    1
    61    89    90    1
    62    89    82   am
    63    92    91    2
    64    81    80    1
    65    81    82    1
    66    81    84    1
    67    90    91    1
    68    53    54    1
    69    53    50    1
    70    91    96   am
    71    13    10    1
    72    85    84    1
    73   124   123    1
    74    82    83    2
    75    54    55    1
    76    56    55   ar
    77    52    51    2
    78    58    51   am
    79    58    59    1
    80    55    57   ar
    81   116   115   ar
    82    51    50    1
    83    59    60    1
    84   100   101    1
    85   100    98   am
    86    96    97    1
    87   101   102    1
    88   103   102    2
    89    98    97    1
    90    98    99    2
    91    50    49    1
    92   102   105   am
    93    72    70   am
    94   117   115   ar
    95   123   122    1
    96   115   114    1
    97    10    11    1
    98    10     9    1
    99    12    11    2
   100   105   106    1
   101   108   107    2
   102    60    61    2
   103    70    71    2
   104    70    69    1
   105     9     3   am
   106   106   107    1
   107   107   109   am
   108   122   119    1
   109    69    66    1
   110   114   113    1
   111   109   110    1
   112   119   120    1
   113   119   118    1
   114   110   113    1
   115   110   111    1
   116     3     4    2
   117     3     2    1
   118     5     2    1
   119     5     6    1
   120   120   121    2
   121     7     6    1
   122     7     8    1
   123     2     1    1
   124    66    65    1
   125    66    67    1
   126   111   112    2
   127    68    67    2
