@<TRIPOS>MOLECULE
tmp/4jpqA00.pdb
 113 112 0 0 0
SMALL
GASTEIGER

@<TRIPOS>ATOM
      1  N         16.8570   43.2730   40.2900 N.3    43  TYR43      -0.1241
      2  CA        15.5890   43.6920   40.9060 C.3    43  TYR43       0.1605
      3  C         15.9070   44.1330   42.3310 C.2    43  TYR43       0.2264
      4  O         15.7880   43.3310   43.2730 O.2    43  TYR43      -0.2867
      5  CB        14.5490   42.5580   40.8320 C.3    43  TYR43       0.0534
      6  CG        14.1980   42.2140   39.3860 C.ar   43  TYR43      -0.0201
      7  CD1       13.1970   42.9080   38.7110 C.ar   43  TYR43      -0.0009
      8  CD2       14.8940   41.2220   38.6870 C.ar   43  TYR43      -0.0009
      9  CE1       12.8770   42.6110   37.3920 C.ar   43  TYR43       0.0417
     10  CE2       14.5810   40.9140   37.3600 C.ar   43  TYR43       0.0417
     11  CZ        13.5660   41.6140   36.7120 C.ar   43  TYR43       0.1957
     12  OH        13.2260   41.3560   35.3960 O.3    43  TYR43      -0.2866
     13  N          1.1890   35.2080   41.1240 N.3    83  TRP83      -0.1241
     14  CA         2.5690   35.7360   41.1590 C.3    83  TRP83       0.1605
     15  C          2.7140   37.0900   40.4240 C.2    83  TRP83       0.2264
     16  O          3.6740   37.8360   40.6790 O.2    83  TRP83      -0.2867
     17  CB         3.5790   34.7040   40.6090 C.3    83  TRP83       0.0550
     18  CG         3.3230   34.3570   39.1850 C.ar   83  TRP83       0.0003
     19  CD1        3.7920   35.0110   38.1000 C.ar   83  TRP83       0.0946
     20  CD2        2.4810   33.3140   38.6950 C.ar   83  TRP83       0.0152
     21  NE1        3.2960   34.4510   36.9460 N.ar   83  TRP83      -0.2442
     22  CE2        2.4960   33.3940   37.2820 C.ar   83  TRP83       0.0810
     23  CE3        1.7030   32.3180   39.3100 C.ar   83  TRP83       0.0012
     24  CZ2        1.7740   32.5060   36.4660 C.ar   83  TRP83       0.0191
     25  CZ3        0.9850   31.4290   38.5050 C.ar   83  TRP83       0.0001
     26  CH2        1.0270   31.5290   37.0930 C.ar   83  TRP83       0.0015
     27  N          4.3270   34.2600   49.3260 N.3    89  GLU89      -0.1196
     28  CA         4.4410   32.8350   49.0410 C.3    89  GLU89       0.1783
     29  C          5.1210   32.0550   50.1710 C.2    89  GLU89       0.2306
     30  O          5.9370   32.6050   50.9100 O.2    89  GLU89      -0.2863
     31  CB         5.2270   32.6340   47.7310 C.2    89  GLU89       0.0071
     32  CG         4.7360   33.4570   46.5300 C.2    89  GLU89       0.0834
     33  CD         5.5070   33.2350   45.2370 C.2    89  GLU89       0.3877
     34  OE1        6.5110   32.5090   45.2290 O.co2  89  GLU89      -0.2406
     35  OE2        5.1140   33.8170   44.2100 O.co2  89  GLU89      -0.2406
     36  N          6.8170   28.0850   50.4120 N.3    91  PHE91      -0.1241
     37  CA         7.2320   26.8490   49.7320 C.3    91  PHE91       0.1605
     38  C          7.7340   25.9190   50.8290 C.2    91  PHE91       0.2264
     39  O          8.4650   26.3740   51.7060 O.2    91  PHE91      -0.2867
     40  CB         8.3750   27.1040   48.7450 C.3    91  PHE91       0.0534
     41  CG         7.9550   27.6810   47.4050 C.ar   91  PHE91      -0.0203
     42  CD1        7.1130   28.7950   47.3060 C.ar   91  PHE91      -0.0042
     43  CD2        8.4870   27.1570   46.2240 C.ar   91  PHE91      -0.0042
     44  CE1        6.7710   29.3270   46.0600 C.ar   91  PHE91      -0.0003
     45  CE2        8.1510   27.6880   44.9850 C.ar   91  PHE91      -0.0003
     46  CZ         7.2860   28.7710   44.9010 C.ar   91  PHE91      -0.0000
     47  N          1.0210   30.0740   47.0270 N.3   104  GLU104     -0.1245
     48  CA         1.1720   31.4540   46.5710 C.3   104  GLU104      0.1567
     49  C         -0.1940   32.1000   46.7050 C.2   104  GLU104      0.2260
     50  O         -1.1790   31.5640   46.2000 O.2   104  GLU104     -0.2867
     51  CB         1.6750   31.4730   45.1270 C.3   104  GLU104      0.0388
     52  CG         2.9680   30.6800   44.9270 C.3   104  GLU104      0.1160
     53  CD         3.5550   30.7560   43.5260 C.2   104  GLU104      0.3649
     54  OE1        3.1930   31.6510   42.7500 O.co2 104  GLU104     -0.2457
     55  OE2        4.4120   29.9090   43.1980 O.co2 104  GLU104     -0.2457
     56  N          5.0810   40.2130   39.6190 N.3   183  ASP183     -0.1239
     57  CA         5.6210   40.3030   38.2570 C.3   183  ASP183      0.1674
     58  C          5.0440   41.4440   37.4240 C.2   183  ASP183      0.2266
     59  O          5.8030   42.0960   36.7220 O.2   183  ASP183     -0.2867
     60  CB         5.5160   38.9570   37.4870 C.3   183  ASP183      0.1410
     61  CG         6.4280   37.8390   38.0620 C.2   183  ASP183      0.3668
     62  OD1        6.9010   37.9320   39.2140 O.co2 183  ASP183     -0.2456
     63  OD2        6.6530   36.8400   37.3440 O.co2 183  ASP183     -0.2456
     64  N         11.7210   40.7210   43.7870 N.3   190  PHE190     -0.1241
     65  CA        11.8670   39.3250   44.2220 C.3   190  PHE190      0.1605
     66  C         12.6550   39.2450   45.5270 C.2   190  PHE190      0.2264
     67  O         13.8600   39.5240   45.5420 O.2   190  PHE190     -0.2867
     68  CB        12.5570   38.5310   43.1160 C.3   190  PHE190      0.0534
     69  CG        11.7820   38.5020   41.8470 C.ar  190  PHE190     -0.0203
     70  CD1       10.6450   37.6950   41.7400 C.ar  190  PHE190     -0.0042
     71  CD2       12.1290   39.3200   40.7820 C.ar  190  PHE190     -0.0042
     72  CE1        9.8880   37.6660   40.5680 C.ar  190  PHE190     -0.0003
     73  CE2       11.3730   39.3100   39.6100 C.ar  190  PHE190     -0.0003
     74  CZ        10.2510   38.4760   39.4990 C.ar  190  PHE190     -0.0000
     75  N         19.6570   33.9800   38.4390 N.3   200  ARG200     -0.1231
     76  CA        18.5010   34.8970   38.1930 C.3   200  ARG200      0.1679
     77  C         17.2420   34.4720   39.0190 C.2   200  ARG200      0.2434
     78  O         17.2850   33.4290   39.6690 O.2   200  ARG200     -0.2733
     79  CB        18.2500   35.0430   36.6850 C.3   200  ARG200      0.0321
     80  CG        17.9650   33.7390   36.0000 C.3   200  ARG200      0.0489
     81  CD        18.0160   33.8210   34.4790 C.3   200  ARG200      0.2205
     82  NE        17.9030   32.4530   33.9960 N.pl3 200  ARG200     -0.0865
     83  CZ        16.7750   31.7380   33.9560 C.cat 200  ARG200      0.5346
     84  NH1       15.5960   32.2530   34.3240 N.pl3 200  ARG200      0.1354
     85  NH2       16.8290   30.4750   33.5420 N.pl3 200  ARG200      0.1354
     86  N         16.1650   35.3030   39.0650 N.am  201  PRO201     -0.2729
     87  CA        15.0050   34.9980   39.9360 C.3   201  PRO201      0.1401
     88  C         14.2870   33.6930   39.6800 C.2   201  PRO201      0.2269
     89  O         13.5700   33.5460   38.6910 O.2   201  PRO201     -0.2865
     90  CB        14.0750   36.1960   39.7270 C.3   201  PRO201      0.0296
     91  CG        15.0190   37.2850   39.3950 C.3   201  PRO201      0.0237
     92  CD        16.0060   36.6410   38.4770 C.3   201  PRO201      0.0939
     93  N         12.3860   30.6720   42.2040 N.3   202  PHE202     -0.1227
     94  CA        11.9350   30.2910   43.5460 C.3   202  PHE202      0.1736
     95  C         11.7300   28.7950   43.7660 C.2   202  PHE202      0.2595
     96  O         11.7080   28.3710   44.9190 O.2   202  PHE202     -0.2718
     97  CB        10.6080   31.0000   43.9150 C.3   202  PHE202      0.0547
     98  CG        10.6950   32.5040   44.1360 C.ar  202  PHE202     -0.0202
     99  CD1       11.8450   33.1500   44.6310 C.ar  202  PHE202     -0.0042
    100  CD2        9.5450   33.2670   43.9590 C.ar  202  PHE202     -0.0042
    101  CE1       11.8540   34.5210   44.8510 C.ar  202  PHE202     -0.0003
    102  CE2        9.5500   34.6330   44.1930 C.ar  202  PHE202     -0.0003
    103  CZ        10.7070   35.2610   44.6400 C.ar  202  PHE202     -0.0000
    104  N         11.5740   28.0030   42.7020 N.am  203  HIS203     -0.1975
    105  CA        11.3440   26.5430   42.8180 C.3   203  HIS203      0.1656
    106  C         12.6640   25.7570   43.0160 C.2   203  HIS203      0.2291
    107  O         12.9850   24.8470   42.2460 O.2   203  HIS203     -0.2864
    108  CB        10.5500   26.0590   41.5980 C.3   203  HIS203      0.0771
    109  CG         9.1750   26.6410   41.5070 C.ar  203  HIS203      0.0820
    110  ND1        8.0450   25.9490   41.8830 N.ar  203  HIS203     -0.2267
    111  CD2        8.7520   27.8620   41.1030 C.ar  203  HIS203      0.1154
    112  CE1        6.9820   26.7150   41.7020 C.ar  203  HIS203      0.1986
    113  NE2        7.3830   27.8820   41.2310 N.ar  203  HIS203     -0.2212
@<TRIPOS>BOND
     1    85    83    1
     2    83    82    2
     3    83    84    1
     4    82    81    1
     5    81    80    1
     6    12    11    1
     7    80    79    1
     8    24    26   ar
     9    24    22   ar
    10    79    76    1
    11    11    10   ar
    12    11     9   ar
    13    59    58    2
    14    21    22   ar
    15    21    19   ar
    16    26    25   ar
    17    22    20   ar
    18    63    61   ar
    19    10     8   ar
    20     9     7   ar
    21    58    57    1
    22    60    61    1
    23    60    57    1
    24    61    62   ar
    25    19    18   ar
    26    76    75    1
    27    76    77    1
    28    57    56    1
    29    92    86    1
    30    92    91    1
    31    25    23   ar
    32     8     6   ar
    33    89    88    2
    34    20    18   ar
    35    20    23   ar
    36     7     6   ar
    37    77    86   am
    38    77    78    2
    39    86    87    1
    40    18    17    1
    41     6     5    1
    42    91    90    1
    43    74    73   ar
    44    74    72   ar
    45    73    71   ar
    46    88    87    1
    47    90    87    1
    48     1     2    1
    49    15    16    2
    50    15    14    1
    51    72    70   ar
    52    17    14    1
    53    71    69   ar
    54     5     2    1
    55     2     3    1
    56   111   113   ar
    57   111   109   ar
    58    13    14    1
    59   113   112   ar
    60   109   108    1
    61   109   110   ar
    62   108   105    1
    63   112   110   ar
    64    70    69   ar
    65    69    68    1
    66    93    94    1
    67   107   106    2
    68     3     4    2
    69   104   105    1
    70   104    95   am
    71    54    53   ar
    72   105   106    1
    73    68    65    1
    74    55    53   ar
    75    53    52    1
    76    94    95    1
    77    94    97    1
    78    95    96    2
    79    64    65    1
    80    97    98    1
    81   100    98   ar
    82   100   102   ar
    83    98    99   ar
    84   102   103   ar
    85    35    33   ar
    86    65    66    1
    87    99   101   ar
    88   103   101   ar
    89    46    45   ar
    90    46    44   ar
    91    52    51    1
    92    45    43   ar
    93    51    48    1
    94    34    33   ar
    95    33    32    1
    96    66    67    2
    97    44    42   ar
    98    50    49    2
    99    43    41   ar
   100    32    31    2
   101    48    49    1
   102    48    47    1
   103    42    41   ar
   104    41    40    1
   105    31    28    1
   106    40    37    1
   107    28    27    1
   108    28    29    1
   109    37    36    1
   110    37    38    1
   111    29    30    2
   112    38    39    2
