@<TRIPOS>MOLECULE
tmp/4jpsA00.pdb
 193 185 0 0 0
SMALL
GASTEIGER

@<TRIPOS>ATOM
      1  N         10.9700  -10.9910   18.6180 N.3   716  ARG716     -0.1245
      2  CA        11.0260   -9.7310   19.3650 C.3   716  ARG716      0.1563
      3  C         10.1190   -9.7230   20.5650 C.2   716  ARG716      0.2260
      4  O          9.1540  -10.4800   20.6260 O.2   716  ARG716     -0.2867
      5  CB        10.6760   -8.5270   18.4470 C.3   716  ARG716      0.0307
      6  CG         9.3070   -8.6370   17.7630 C.3   716  ARG716      0.0489
      7  CD         9.2210   -7.7290   16.5600 C.3   716  ARG716      0.2205
      8  NE         8.1340   -8.1020   15.6510 N.pl3 716  ARG716     -0.0865
      9  CZ         6.8970   -7.6210   15.7170 C.cat 716  ARG716      0.5346
     10  NH1        6.5580   -6.7590   16.6760 N.pl3 716  ARG716      0.1354
     11  NH2        5.9830   -8.0010   14.8340 N.pl3 716  ARG716      0.1354
     12  N          7.3410   -7.6770   22.3900 N.3   718  MET718     -0.1245
     13  CA         6.3200   -6.7150   22.0050 C.3   718  MET718      0.1570
     14  C          6.2190   -5.5990   23.0390 C.2   718  MET718      0.2261
     15  O          6.5960   -5.8050   24.1960 O.2   718  MET718     -0.2867
     16  CB         4.9880   -7.4170   21.7430 C.3   718  MET718      0.0387
     17  CG         5.0660   -8.4030   20.5700 C.3   718  MET718      0.0595
     18  SD         3.5860   -9.4330   20.3650 S.3   718  MET718     -0.1393
     19  CE         2.4720   -8.2130   19.5750 C.3   718  MET718      0.0692
     20  N          3.7630   -4.2220   24.6190 N.3   720  SER720     -0.1217
     21  CA         2.7910   -4.4180   25.7050 C.3   720  SER720      0.1889
     22  C          3.4720   -4.5990   27.0790 C.2   720  SER720      0.2288
     23  O          4.6540   -4.9410   27.1450 O.2   720  SER720     -0.2866
     24  CB         1.8930   -5.6080   25.3910 C.3   720  SER720      0.2089
     25  OG         1.0240   -5.3420   24.3030 O.3   720  SER720     -0.2183
     26  N          5.0420   -9.6490   25.7870 N.3   724  PRO724     -0.2116
     27  CA         4.7900  -10.8370   24.9600 C.3   724  PRO724      0.1372
     28  C          5.9470  -11.0680   23.9980 C.2   724  PRO724      0.2244
     29  O          6.5700  -10.0990   23.5550 O.2   724  PRO724     -0.2868
     30  CB         3.5140  -10.4710   24.1880 C.3   724  PRO724      0.0268
     31  CG         2.9540   -9.2850   24.8700 C.3   724  PRO724      0.0207
     32  CD         4.1110   -8.5620   25.4320 C.3   724  PRO724      0.0892
     33  N          7.0990  -12.2970   20.3800 N.3   726  TRP726     -0.1241
     34  CA         6.6880  -12.6150   19.0260 C.3   726  TRP726      0.1605
     35  C          7.7750  -13.5750   18.5500 C.2   726  TRP726      0.2264
     36  O          8.9530  -13.2270   18.5990 O.2   726  TRP726     -0.2867
     37  CB         6.6780  -11.3420   18.1660 C.3   726  TRP726      0.0550
     38  CG         6.2950  -11.5450   16.7320 C.ar  726  TRP726      0.0003
     39  CD1        7.0410  -12.1410   15.7580 C.ar  726  TRP726      0.0946
     40  CD2        5.1230  -11.0370   16.0860 C.ar  726  TRP726      0.0152
     41  NE1        6.3950  -12.0570   14.5470 N.ar  726  TRP726     -0.2442
     42  CE2        5.2200  -11.3680   14.7160 C.ar  726  TRP726      0.0810
     43  CE3        4.0050  -10.3050   16.5270 C.ar  726  TRP726      0.0012
     44  CZ2        4.2340  -11.0130   13.7880 C.ar  726  TRP726      0.0191
     45  CZ3        3.0170   -9.9790   15.6100 C.ar  726  TRP726      0.0001
     46  CH2        3.1480  -10.3130   14.2570 C.ar  726  TRP726      0.0015
     47  N          2.7170  -15.8440   19.1550 N.3   746  ILE746     -0.1245
     48  CA         2.9500  -14.9150   20.2440 C.3   746  ILE746      0.1561
     49  C          2.9050  -15.7370   21.5400 C.2   746  ILE746      0.2260
     50  O          1.9110  -16.4180   21.8140 O.2   746  ILE746     -0.2867
     51  CB         1.9440  -13.7340   20.2630 C.3   746  ILE746      0.0252
     52  CG1        2.1230  -12.8490   19.0070 C.3   746  ILE746      0.0019
     53  CG2        2.1100  -12.9020   21.5610 C.3   746  ILE746      0.0019
     54  CD1        0.9220  -11.9920   18.6440 C.3   746  ILE746      0.0001
     55  N          2.6810  -15.4430   25.4480 N.3   748  LYS748     -0.1245
     56  CA         2.3670  -14.4530   26.4700 C.3   748  LYS748      0.1561
     57  C          2.3290  -15.0500   27.8650 C.2   748  LYS748      0.2260
     58  O          1.5640  -15.9740   28.1470 O.2   748  LYS748     -0.2867
     59  CB         1.0770  -13.6640   26.1450 C.3   748  LYS748      0.0271
     60  CG         0.9030  -12.4360   27.0450 C.3   748  LYS748      0.0035
     61  CD        -0.0090  -11.3730   26.4590 C.3   748  LYS748      0.0206
     62  CE        -1.4640  -11.7630   26.4990 C.3   748  LYS748      0.1093
     63  NZ        -2.3300  -10.5670   26.3760 N.3   748  LYS748     -0.1314
     64  N         -5.6810  -16.5510   29.5800 N.3   753  LEU753     -0.1245
     65  CA        -6.1510  -16.7320   28.2030 C.3   753  LEU753      0.1561
     66  C         -7.3440  -17.6780   28.0820 C.2   753  LEU753      0.2260
     67  O         -7.8100  -17.9110   26.9660 O.2   753  LEU753     -0.2867
     68  CB        -4.9970  -17.2290   27.3020 C.3   753  LEU753      0.0270
     69  CG        -3.7640  -16.3290   27.1230 C.3   753  LEU753      0.0019
     70  CD1       -2.8140  -16.9380   26.1310 C.3   753  LEU753      0.0001
     71  CD2       -4.1380  -14.9400   26.6080 C.3   753  LEU753      0.0001
     72  N         -8.5440  -17.4370   15.3630 N.3   782  TYR782     -0.1241
     73  CA        -7.1090  -17.7480   15.4110 C.3   782  TYR782      0.1605
     74  C         -6.8170  -18.6350   16.6200 C.2   782  TYR782      0.2264
     75  O         -7.5570  -18.6020   17.6070 O.2   782  TYR782     -0.2867
     76  CB        -6.2380  -16.4760   15.4370 C.3   782  TYR782      0.0534
     77  CG        -6.6470  -15.4920   16.5070 C.ar  782  TYR782     -0.0201
     78  CD1       -6.1500  -15.5930   17.8050 C.ar  782  TYR782     -0.0009
     79  CD2       -7.5230  -14.4460   16.2240 C.ar  782  TYR782     -0.0009
     80  CE1       -6.5500  -14.7100   18.8020 C.ar  782  TYR782      0.0417
     81  CE2       -7.9400  -13.5640   17.2170 C.ar  782  TYR782      0.0417
     82  CZ        -7.4420  -13.6930   18.5020 C.ar  782  TYR782      0.1957
     83  OH        -7.8350  -12.8140   19.4800 O.3   782  TYR782     -0.2866
     84  N         -0.6140  -17.6430   21.1700 N.3   794  ILE794     -0.1231
     85  CA        -1.5510  -17.0200   20.2320 C.3   794  ILE794      0.1692
     86  C         -0.9810  -17.1480   18.8180 C.2   794  ILE794      0.2592
     87  O          0.1500  -16.7480   18.5830 O.2   794  ILE794     -0.2718
     88  CB        -1.8730  -15.5390   20.6000 C.3   794  ILE794      0.0266
     89  CG1       -2.5860  -15.4290   21.9510 C.3   794  ILE794      0.0019
     90  CG2       -2.6770  -14.8250   19.5030 C.3   794  ILE794      0.0020
     91  CD1       -1.9480  -14.4340   22.8610 C.3   794  ILE794      0.0001
     92  N         -1.7740  -17.6830   17.8840 N.am  795  GLU795     -0.1966
     93  CA        -1.4070  -17.8190   16.4700 C.3   795  GLU795      0.1733
     94  C         -1.4700  -16.4460   15.8050 C.2   795  GLU795      0.2616
     95  O         -2.5170  -15.8070   15.8350 O.2   795  GLU795     -0.2715
     96  CB        -2.3910  -18.7630   15.7670 C.3   795  GLU795      0.0429
     97  CG        -2.2550  -18.8130   14.2500 C.3   795  GLU795      0.1163
     98  CD        -3.4540  -19.3510   13.4930 C.2   795  GLU795      0.3649
     99  OE1       -4.3930  -19.8810   14.1280 O.co2 795  GLU795     -0.2457
    100  OE2       -3.4530  -19.2470   12.2490 O.co2 795  GLU795     -0.2457
    101  N         -0.3590  -16.0050   15.1950 N.am  796  VAL796     -0.1963
    102  CA        -0.2990  -14.7130   14.4980 C.3   796  VAL796      0.1727
    103  C         -1.0490  -14.8100   13.1790 C.2   796  VAL796      0.2616
    104  O         -0.8360  -15.7590   12.4230 O.2   796  VAL796     -0.2715
    105  CB         1.1700  -14.2530   14.2510 C.3   796  VAL796      0.0290
    106  CG1        1.2580  -13.1050   13.2350 C.3   796  VAL796      0.0023
    107  CG2        1.8790  -13.8930   15.5470 C.3   796  VAL796      0.0023
    108  N         -1.9060  -13.8140   12.8910 N.am  797  VAL797     -0.1963
    109  CA        -2.5600  -13.7220   11.5860 C.3   797  VAL797      0.1727
    110  C         -1.6750  -12.7570   10.7920 C.2   797  VAL797      0.2616
    111  O         -1.5690  -11.5850   11.1500 O.2   797  VAL797     -0.2715
    112  CB        -4.0330  -13.2470   11.6610 C.3   797  VAL797      0.0290
    113  CG1       -4.5710  -12.9210   10.2650 C.3   797  VAL797      0.0023
    114  CG2       -4.9030  -14.2900   12.3590 C.3   797  VAL797      0.0023
    115  N         -0.9950  -13.2660    9.7730 N.am  798  ARG798     -0.1963
    116  CA        -0.0930  -12.4670    8.9460 C.3   798  ARG798      0.1729
    117  C         -0.8820  -11.5720    7.9940 C.2   798  ARG798      0.2616
    118  O         -2.0420  -11.8690    7.6920 O.2   798  ARG798     -0.2715
    119  CB         0.8820  -13.3750    8.1680 C.3   798  ARG798      0.0348
    120  CG         1.9640  -14.0200    9.0480 C.3   798  ARG798      0.0492
    121  CD         2.8950  -14.9370    8.2600 C.3   798  ARG798      0.2205
    122  NE         3.4930  -14.2770    7.0900 N.pl3 798  ARG798     -0.0865
    123  CZ         4.6160  -13.5640    7.1110 C.cat 798  ARG798      0.5346
    124  NH1        5.2930  -13.4080    8.2410 N.pl3 798  ARG798      0.1354
    125  NH2        5.0700  -13.0000    6.0010 N.pl3 798  ARG798      0.1354
    126  N         -0.2500  -10.4740    7.5350 N.am  799  ASN799     -0.1958
    127  CA        -0.8270   -9.4930    6.6040 C.3   799  ASN799      0.1819
    128  C         -2.1280   -8.8850    7.1390 C.2   799  ASN799      0.2622
    129  O         -3.0940   -8.7410    6.3940 O.2   799  ASN799     -0.2715
    130  CB        -1.0240  -10.1150    5.2100 C.3   799  ASN799      0.1195
    131  CG         0.2520  -10.6480    4.6020 C.2   799  ASN799      0.2630
    132  OD1        1.2120   -9.9140    4.3640 O.2   799  ASN799     -0.2716
    133  ND2        0.2960  -11.9390    4.3640 N.am  799  ASN799     -0.0877
    134  N         -2.1500   -8.5550    8.4370 N.am  800  SER800     -0.1936
    135  CA        -3.3040   -7.9720    9.1090 C.3   800  SER800      0.2055
    136  C         -2.8290   -6.8670   10.0040 C.2   800  SER800      0.2643
    137  O         -1.7500   -6.9690   10.5740 O.2   800  SER800     -0.2714
    138  CB        -4.0690   -9.0260    9.9080 C.3   800  SER800      0.2130
    139  OG        -3.3290   -9.4960   11.0220 O.3   800  SER800     -0.2179
    140  N         -3.6000   -5.7880   10.0980 N.am  801  HIS801     -0.1973
    141  CA        -3.2340   -4.6340   10.9110 C.3   801  HIS801      0.1656
    142  C         -4.4490   -4.1260   11.6750 C.2   801  HIS801      0.2291
    143  O         -5.5780   -4.2940   11.2150 O.2   801  HIS801     -0.2864
    144  CB        -2.6420   -3.5100   10.0120 C.3   801  HIS801      0.0771
    145  CG        -1.4340   -3.9520    9.2370 C.ar  801  HIS801      0.0820
    146  ND1       -1.5590   -4.6870    8.0710 N.ar  801  HIS801     -0.2267
    147  CD2       -0.1210   -3.8160    9.5270 C.ar  801  HIS801      0.1154
    148  CE1       -0.3270   -4.9740    7.6850 C.ar  801  HIS801      0.1986
    149  NE2        0.5740   -4.4700    8.5280 N.ar  801  HIS801     -0.2212
    150  N         -3.4000    1.1910   13.3340 N.3   805  GLN805     -0.1245
    151  CA        -2.2070    1.0560   12.4860 C.3   805  GLN805      0.1566
    152  C         -2.4900    1.5970   11.0790 C.2   805  GLN805      0.2260
    153  O         -1.6520    2.2980   10.5100 O.2   805  GLN805     -0.2867
    154  CB        -1.7190   -0.4080   12.4080 C.3   805  GLN805      0.0367
    155  CG        -1.1020   -0.9120   13.7140 C.3   805  GLN805      0.0905
    156  CD        -0.5700   -2.3200   13.6280 C.2   805  GLN805      0.2608
    157  OE1       -1.2620   -3.2640   13.2380 O.2   805  GLN805     -0.2717
    158  NE2        0.6640   -2.5010   14.0580 N.am  805  GLN805     -0.0878
    159  N         -8.9330   -5.8750   13.7170 N.3   860  MET860     -0.1245
    160  CA        -7.8930   -5.9980   12.7050 C.3   860  MET860      0.1570
    161  C         -8.4810   -6.2730   11.3450 C.2   860  MET860      0.2261
    162  O         -9.5750   -6.8410   11.2220 O.2   860  MET860     -0.2867
    163  CB        -6.8630   -7.0860   13.0830 C.3   860  MET860      0.0387
    164  CG        -6.1350   -6.8130   14.4050 C.3   860  MET860      0.0595
    165  SD        -4.7330   -7.9240   14.7220 S.3   860  MET860     -0.1393
    166  CE        -3.4470   -7.0910   13.8310 C.3   860  MET860      0.0692
    167  N        -11.5980   -8.9450   11.4700 N.3   868  PHE868     -0.1241
    168  CA       -11.6840   -9.8410   12.6180 C.3   868  PHE868      0.1605
    169  C        -11.3800   -9.1100   13.8880 C.2   868  PHE868      0.2264
    170  O        -10.7690   -8.0360   13.8540 O.2   868  PHE868     -0.2867
    171  CB       -10.7810  -11.0830   12.4530 C.3   868  PHE868      0.0534
    172  CG        -9.2870  -10.8510   12.4080 C.ar  868  PHE868     -0.0203
    173  CD1       -8.6680  -10.4140   11.2390 C.ar  868  PHE868     -0.0042
    174  CD2       -8.4860  -11.1440   13.5140 C.ar  868  PHE868     -0.0042
    175  CE1       -7.2800  -10.2300   11.1890 C.ar  868  PHE868     -0.0003
    176  CE2       -7.1000  -10.9570   13.4630 C.ar  868  PHE868     -0.0003
    177  CZ        -6.5060  -10.5050   12.3010 C.ar  868  PHE868     -0.0000
    178  N         -9.7450   -9.2390   17.9500 N.3   870  ILE870     -0.1231
    179  CA        -8.6970   -9.8060   18.7980 C.3   870  ILE870      0.1692
    180  C         -8.9600   -9.3740   20.2300 C.2   870  ILE870      0.2592
    181  O         -9.7280   -8.4400   20.4530 O.2   870  ILE870     -0.2718
    182  CB        -7.2530   -9.4110   18.3590 C.3   870  ILE870      0.0266
    183  CG1       -7.0140   -7.8790   18.4630 C.3   870  ILE870      0.0019
    184  CG2       -6.8960   -9.9690   16.9770 C.3   870  ILE870      0.0020
    185  CD1       -5.6140   -7.4570   18.7030 C.3   870  ILE870      0.0001
    186  N         -8.2790  -10.0090   21.1990 N.am  871  ASP871     -0.1974
    187  CA        -8.3370   -9.6290   22.6100 C.3   871  ASP871      0.1709
    188  C         -9.7690   -9.4650   23.1340 C.2   871  ASP871      0.2293
    189  O        -10.2370   -8.3550   23.3850 O.2   871  ASP871     -0.2864
    190  CB        -7.4840   -8.3600   22.8410 C.3   871  ASP871      0.1436
    191  CG        -7.1640   -8.0880   24.2900 C.2   871  ASP871      0.3671
    192  OD1       -6.7700   -9.0410   24.9990 O.co2 871  ASP871     -0.2456
    193  OD2       -7.2230   -6.9090   24.6950 O.co2 871  ASP871     -0.2456
@<TRIPOS>BOND
     1   133   131   am
     2   132   131    2
     3   131   130    1
     4   130   127    1
     5   125   123    1
     6   129   128    2
     7   127   128    1
     8   127   126    1
     9   122   123    2
    10   122   121    1
    11   123   124    1
    12   128   134   am
    13   126   117   am
    14   148   146   ar
    15   148   149   ar
    16   118   117    2
    17   117   116    1
    18   146   145   ar
    19   119   116    1
    20   119   120    1
    21   121   120    1
    22   134   135    1
    23   149   147   ar
    24   116   115    1
    25   135   138    1
    26   135   136    1
    27   145   147   ar
    28   145   144    1
    29   115   110   am
    30   138   139    1
    31   136   140   am
    32   136   137    2
    33   144   141    1
    34   140   141    1
    35   113   112    1
    36   153   152    2
    37   110   111    2
    38   110   109    1
    39   141   142    1
    40   152   151    1
    41   175   173   ar
    42   175   177   ar
    43   143   142    2
    44   162   161    2
    45   173   172   ar
    46   161   160    1
    47   167   168    1
    48   109   112    1
    49   109   108    1
    50   112   114    1
    51   100    98   ar
    52   177   176   ar
    53   154   151    1
    54   154   155    1
    55   172   171    1
    56   172   174   ar
    57   104   103    2
    58   171   168    1
    59   151   150    1
    60   168   169    1
    61   160   163    1
    62   160   159    1
    63   108   103   am
    64   163   164    1
    65   103   102    1
    66   106   105    1
    67   157   156    2
    68   176   174   ar
    69    98    99   ar
    70    98    97    1
    71   156   155    1
    72   156   158   am
    73    44    46   ar
    74    44    42   ar
    75   166   165    1
    76   170   169    2
    77    97    96    1
    78   105   102    1
    79   105   107    1
    80    46    45   ar
    81   164   165    1
    82   102   101    1
    83    41    42   ar
    84    41    39   ar
    85    42    40   ar
    86    11     9    1
    87   101    94   am
    88    72    73    1
    89    73    76    1
    90    73    74    1
    91    76    77    1
    92    45    43   ar
    93     8     9    2
    94     8     7    1
    95     9    10    1
    96    39    38   ar
    97    96    93    1
    98    94    95    2
    99    94    93    1
   100    40    43   ar
   101    40    38   ar
   102    79    77   ar
   103    79    81   ar
   104    93    92    1
   105    77    78   ar
   106     7     6    1
   107    74    75    2
   108    38    37    1
   109   184   182    1
   110    81    82   ar
   111     6     5    1
   112    78    80   ar
   113    92    86   am
   114   178   179    1
   115    37    34    1
   116   182   183    1
   117   182   179    1
   118     5     2    1
   119   183   185    1
   120    82    80   ar
   121    82    83    1
   122    35    36    2
   123    35    34    1
   124    87    86    2
   125     1     2    1
   126    54    52    1
   127   179   180    1
   128    86    85    1
   129    52    51    1
   130    34    33    1
   131    47    48    1
   132     2     3    1
   133    90    88    1
   134    19    18    1
   135   180   181    2
   136   180   186   am
   137    85    88    1
   138    85    84    1
   139    48    51    1
   140    48    49    1
   141    51    53    1
   142    18    17    1
   143     3     4    2
   144    17    16    1
   145    88    89    1
   146   186   187    1
   147    49    50    2
   148    16    13    1
   149    89    91    1
   150    13    12    1
   151    13    14    1
   152   187   190    1
   153   187   188    1
   154   190   191    1
   155    14    15    2
   156   188   189    2
   157    29    28    2
   158    28    27    1
   159    30    31    1
   160    30    27    1
   161   191   193   ar
   162   191   192   ar
   163    25    24    1
   164    20    21    1
   165    31    32    1
   166    27    26    1
   167    24    21    1
   168    32    26    1
   169    55    56    1
   170    21    22    1
   171    70    69    1
   172    59    56    1
   173    59    60    1
   174    63    62    1
   175    61    62    1
   176    61    60    1
   177    56    57    1
   178    71    69    1
   179    67    66    2
   180    22    23    2
   181    69    68    1
   182    68    65    1
   183    57    58    2
   184    66    65    1
   185    65    64    1
