@<TRIPOS>MOLECULE
tmp/4jptA01.pdb
 118 114 0 0 0
SMALL
GASTEIGER

@<TRIPOS>ATOM
      1  N         15.2750   -7.4590    1.7740 N.3   172  HIS172     -0.1226
      2  CA        15.9660   -6.5430    2.7060 C.3   172  HIS172      0.1752
      3  C         17.3330   -7.0450    3.0860 C.2   172  HIS172      0.2596
      4  O         17.9860   -6.3470    3.8920 O.2   172  HIS172     -0.2718
      5  CB        15.0600   -6.2250    3.8960 C.3   172  HIS172      0.0759
      6  CG        13.9740   -5.2610    3.5490 C.ar  172  HIS172      0.0818
      7  ND1       13.0230   -4.8540    4.4570 N.ar  172  HIS172     -0.2268
      8  CD2       13.7240   -4.5680    2.4230 C.ar  172  HIS172      0.1154
      9  CE1       12.2560   -3.9280    3.8930 C.ar  172  HIS172      0.1986
     10  NE2       12.6530   -3.7440    2.6630 N.ar  172  HIS172     -0.2212
     11  N         17.8110   -8.1570    2.5650 N.am  173  ALA173     -0.1966
     12  CA        19.2630   -8.4420    2.5420 C.3   173  ALA173      0.1728
     13  C         20.0050   -7.3470    1.7680 C.2   173  ALA173      0.2616
     14  O         21.2270   -7.1410    1.9950 O.2   173  ALA173     -0.2715
     15  CB        19.5300   -9.7850    1.9390 C.3   173  ALA173      0.0334
     16  N         19.3620   -6.7240    0.8050 N.am  174  LEU174     -0.1963
     17  CA        19.9910   -5.8680   -0.2180 C.3   174  LEU174      0.1728
     18  C         20.0330   -4.4210    0.2280 C.2   174  LEU174      0.2617
     19  O         19.0740   -3.8810    0.7870 O.2   174  LEU174     -0.2715
     20  CB        19.2160   -5.9320   -1.5120 C.3   174  LEU174      0.0311
     21  CG        19.0520   -7.3000   -2.1470 C.3   174  LEU174      0.0022
     22  CD1       18.0550   -7.1880   -3.3100 C.3   174  LEU174      0.0001
     23  CD2       20.4630   -7.8670   -2.6170 C.3   174  LEU174      0.0001
     24  N         21.1140   -3.7180   -0.1090 N.am  175  GLY175     -0.1940
     25  CA        21.1030   -2.2610    0.0010 C.3   175  GLY175      0.2014
     26  C         20.9450   -1.7900    1.4240 C.2   175  GLY175      0.2639
     27  O         21.3810   -2.4580    2.3630 O.2   175  GLY175     -0.2714
     28  N         20.3120   -0.6280    1.5720 N.am  176  LYS176     -0.1963
     29  CA        20.2510    0.0460    2.8480 C.3   176  LYS176      0.1728
     30  C         19.1340    1.0380    2.8720 C.2   176  LYS176      0.2616
     31  O         18.6270    1.4770    1.8470 O.2   176  LYS176     -0.2715
     32  CB        21.5690    0.8000    3.1080 C.3   176  LYS176      0.0311
     33  CG        21.7140    2.1030    2.3460 C.3   176  LYS176      0.0038
     34  CD        23.1170    2.7120    2.5390 C.3   176  LYS176      0.0206
     35  CE        23.2810    3.1850    3.9330 C.3   176  LYS176      0.1093
     36  NZ        22.7330    4.5730    4.1330 N.3   176  LYS176     -0.1314
     37  N         18.7810    1.4510    4.0820 N.am  177  THR177     -0.1951
     38  CA        17.9600    2.5920    4.2540 C.3   177  THR177      0.1897
     39  C         18.8260    3.8850    4.2520 C.2   177  THR177      0.2313
     40  O         19.9820    3.8170    4.5940 O.2   177  THR177     -0.2863
     41  CB        17.1340    2.5120    5.5530 C.3   177  THR177      0.1794
     42  OG1       17.9710    2.5550    6.6700 O.3   177  THR177     -0.2208
     43  CG2       16.3620    1.1600    5.6690 C.3   177  THR177      0.0378
     44  N         24.7910   -0.8450    5.9430 N.3   188  GLY188     -0.1225
     45  CA        25.1750   -1.9600    5.0610 C.3   188  GLY188      0.1811
     46  C         25.5130   -1.5360    3.6490 C.2   188  GLY188      0.2280
     47  O         25.1850   -0.4270    3.1960 O.2   188  GLY188     -0.2866
     48  N         25.3970   -4.3410    1.1360 N.3   190  ASN190     -0.1240
     49  CA        25.2780   -5.6080    0.4150 C.3   190  ASN190      0.1653
     50  C         24.5850   -5.5220   -0.9620 C.2   190  ASN190      0.2266
     51  O         23.4900   -4.9820   -1.0680 O.2   190  ASN190     -0.2867
     52  CB        24.5160   -6.5880    1.2600 C.3   190  ASN190      0.1155
     53  CG        24.4580   -7.8590    0.6480 C.2   190  ASN190      0.2627
     54  OD1       25.4650   -8.3660    0.1710 O.2   190  ASN190     -0.2716
     55  ND2       23.2570   -8.4870    0.6470 N.am  190  ASN190     -0.0877
     56  N         19.2010  -11.9970    5.4150 N.3   197  PHE197     -0.1241
     57  CA        18.2400  -11.2240    6.2070 C.3   197  PHE197      0.1605
     58  C         17.7170  -12.0610    7.3600 C.2   197  PHE197      0.2264
     59  O         17.6090  -11.6320    8.4960 O.2   197  PHE197     -0.2867
     60  CB        17.1230  -10.7450    5.2930 C.3   197  PHE197      0.0534
     61  CG        15.9180  -10.1350    5.9480 C.ar  197  PHE197     -0.0203
     62  CD1       15.9380   -8.8250    6.3650 C.ar  197  PHE197     -0.0042
     63  CD2       14.7530  -10.8330    6.1110 C.ar  197  PHE197     -0.0042
     64  CE1       14.8130   -8.2160    6.8790 C.ar  197  PHE197     -0.0003
     65  CE2       13.6150  -10.2100    6.6320 C.ar  197  PHE197     -0.0003
     66  CZ        13.6840   -8.9050    7.0390 C.ar  197  PHE197     -0.0000
     67  N         20.4380  -12.9410    9.9710 N.3   200  ASN200     -0.1240
     68  CA        20.6990  -11.7500   10.8080 C.3   200  ASN200      0.1653
     69  C         19.5810  -11.5600   11.8130 C.2   200  ASN200      0.2266
     70  O         19.7910  -11.3100   13.0030 O.2   200  ASN200     -0.2867
     71  CB        20.8840  -10.5040    9.9800 C.3   200  ASN200      0.1155
     72  CG        22.1580  -10.4790    9.1870 C.2   200  ASN200      0.2627
     73  OD1       23.0920  -11.2320    9.5000 O.2   200  ASN200     -0.2716
     74  ND2       22.2070   -9.6480    8.1720 N.am  200  ASN200     -0.0877
     75  N         24.3780   -3.9480   12.2170 N.3   224  TYR224     -0.1227
     76  CA        23.2050   -4.2690   11.3830 C.3   224  TYR224      0.1736
     77  C         21.9940   -3.4740   11.8980 C.2   224  TYR224      0.2595
     78  O         21.9510   -3.0600   13.0660 O.2   224  TYR224     -0.2718
     79  CB        22.9100   -5.7790   11.3830 C.3   224  TYR224      0.0548
     80  CG        23.9670   -6.6800   10.7720 C.ar  224  TYR224     -0.0200
     81  CD1       24.7410   -7.4660   11.5730 C.ar  224  TYR224     -0.0009
     82  CD2       24.1530   -6.7090    9.4040 C.ar  224  TYR224     -0.0009
     83  CE1       25.7230   -8.3050   11.0320 C.ar  224  TYR224      0.0417
     84  CE2       25.1350   -7.5420    8.8460 C.ar  224  TYR224      0.0417
     85  CZ        25.8890   -8.3310    9.6880 C.ar  224  TYR224      0.1957
     86  OH        26.8910   -9.1690    9.1770 O.3   224  TYR224     -0.2866
     87  N         20.9610   -3.3800   11.0520 N.am  225  MET225     -0.1965
     88  CA        19.7020   -2.7790   11.4440 C.3   225  MET225      0.1736
     89  C         18.5360   -3.5960   10.8920 C.2   225  MET225      0.2616
     90  O         18.6670   -4.3140    9.8860 O.2   225  MET225     -0.2715
     91  CB        19.5780   -1.3190   10.9790 C.3   225  MET225      0.0427
     92  CG        19.5090   -1.0880    9.5210 C.3   225  MET225      0.0599
     93  SD        17.8520   -1.2620    8.7960 S.3   225  MET225     -0.1393
     94  CE        17.0480    0.2050    9.3500 C.3   225  MET225      0.0692
     95  N         17.3960   -3.3790   11.5360 N.am  226  MET226     -0.1963
     96  CA        16.0800   -3.8800   11.0740 C.3   226  MET226      0.1736
     97  C         15.0270   -2.8150   11.2590 C.2   226  MET226      0.2616
     98  O         15.0140   -2.1360   12.3390 O.2   226  MET226     -0.2715
     99  CB        15.6790   -5.1500   11.8330 C.3   226  MET226      0.0427
    100  CG        16.5710   -6.3420   11.5840 C.3   226  MET226      0.0599
    101  SD        16.2470   -7.0500    9.9290 S.3   226  MET226     -0.1393
    102  CE        17.6230   -8.1890    9.7640 C.3   226  MET226      0.0692
    103  N         14.1210   -2.7020   10.3070 N.am  227  LEU227     -0.1977
    104  CA        12.9620   -1.8710   10.5050 C.3   227  LEU227      0.1596
    105  C         12.0170   -2.5090   11.4980 C.2   227  LEU227      0.2287
    106  O         12.0480   -3.7120   11.6880 O.2   227  LEU227     -0.2864
    107  CB        12.2320   -1.6670    9.1900 C.3   227  LEU227      0.0297
    108  CG        12.9640   -1.0660    8.0520 C.3   227  LEU227      0.0022
    109  CD1       12.2000   -1.2860    6.7200 C.3   227  LEU227      0.0001
    110  CD2       13.1460    0.4850    8.3300 C.3   227  LEU227      0.0001
    111  N         10.4380   -5.2740    9.7560 N.3   230  ASP230     -0.1239
    112  CA        11.3470   -6.4370    9.6170 C.3   230  ASP230      0.1674
    113  C         11.3490   -7.2330   10.8920 C.2   230  ASP230      0.2266
    114  O         11.2440   -8.4600   10.8950 O.2   230  ASP230     -0.2867
    115  CB        12.7800   -5.9340    9.3720 C.3   230  ASP230      0.1410
    116  CG        12.9920   -5.2950    8.0670 C.2   230  ASP230      0.3668
    117  OD1       12.3430   -5.5900    7.0500 O.co2 230  ASP230     -0.2456
    118  OD2       13.9490   -4.4140    8.0160 O.co2 230  ASP230     -0.2456
@<TRIPOS>BOND
     1    22    21    1
     2    23    21    1
     3    21    20    1
     4    20    17    1
     5    51    50    2
     6    50    49    1
     7    17    18    1
     8    17    16    1
     9    24    25    1
    10    24    18   am
    11    25    26    1
    12    54    53    2
    13    18    19    2
    14    49    48    1
    15    49    52    1
    16    55    53   am
    17    53    52    1
    18    16    13   am
    19    26    28   am
    20    26    27    2
    21    28    29    1
    22    13    14    2
    23    13    12    1
    24     1     2    1
    25    31    30    2
    26    15    12    1
    27    33    34    1
    28    33    32    1
    29     8    10   ar
    30     8     6   ar
    31    34    35    1
    32    12    11    1
    33    11     3   am
    34    10     9   ar
    35     2     3    1
    36     2     5    1
    37    29    30    1
    38    29    32    1
    39    30    37   am
    40     3     4    2
    41    47    46    2
    42     6     5    1
    43     6     7   ar
    44    46    45    1
    45     9     7   ar
    46    35    36    1
    47    37    38    1
    48    39    38    1
    49    39    40    2
    50    38    41    1
    51    45    44    1
    52    60    61    1
    53    60    57    1
    54    56    57    1
    55    41    43    1
    56    41    42    1
    57    61    63   ar
    58    61    62   ar
    59    63    65   ar
    60    57    58    1
    61    62    64   ar
    62    65    66   ar
    63   109   108    1
    64    64    66   ar
    65   117   116   ar
    66    58    59    2
    67   118   116   ar
    68   108   110    1
    69   108   107    1
    70   116   115    1
    71    74    72   am
    72    93    94    1
    73    93    92    1
    74    84    82   ar
    75    84    85   ar
    76    86    85    1
    77    72    73    2
    78    72    71    1
    79   107   104    1
    80   115   112    1
    81    82    80   ar
    82    92    91    1
    83   112   111    1
    84   112   113    1
    85    85    83   ar
    86   102   101    1
    87    90    89    2
    88   101   100    1
    89    67    68    1
    90    71    68    1
    91   103   104    1
    92   103    97   am
    93   104   105    1
    94    80    79    1
    95    80    81   ar
    96    68    69    1
    97   113   114    2
    98    89    88    1
    99    89    95   am
   100    91    88    1
   101    83    81   ar
   102    87    88    1
   103    87    77   am
   104    96    97    1
   105    96    95    1
   106    96    99    1
   107    97    98    2
   108    79    76    1
   109    76    77    1
   110    76    75    1
   111   105   106    2
   112   100    99    1
   113    69    70    2
   114    77    78    2
