@<TRIPOS>MOLECULE
tmp/4jq3A00.pdb
 150 147 0 0 0
SMALL
GASTEIGER

@<TRIPOS>ATOM
      1  N        109.9840  106.1650  206.1270 N.3    21  TYR21      -0.1241
      2  CA       110.3000  105.3420  204.9550 C.3    21  TYR21       0.1605
      3  C        109.0910  105.1050  204.0730 C.2    21  TYR21       0.2264
      4  O        108.0060  104.7590  204.5780 O.2    21  TYR21      -0.2867
      5  CB       110.8100  103.9910  205.3460 C.3    21  TYR21       0.0534
      6  CG       110.9950  103.1770  204.0960 C.ar   21  TYR21      -0.0201
      7  CD1      111.9070  103.5800  203.1010 C.ar   21  TYR21      -0.0009
      8  CD2      110.2020  102.0600  203.8590 C.ar   21  TYR21      -0.0009
      9  CE1      112.0320  102.8680  201.9130 C.ar   21  TYR21       0.0417
     10  CE2      110.3270  101.3240  202.6810 C.ar   21  TYR21       0.0417
     11  CZ       111.2370  101.7360  201.7140 C.ar   21  TYR21       0.1957
     12  OH       111.3340  101.0030  200.5520 O.3    21  TYR21      -0.2866
     13  N        119.6260  105.9680  204.4230 N.3    51  VAL51      -0.1231
     14  CA       119.3500  104.9750  203.3820 C.3    51  VAL51       0.1692
     15  C        117.9410  105.2080  202.8180 C.2    51  VAL51       0.2592
     16  O        117.6630  104.8360  201.7100 O.2    51  VAL51      -0.2718
     17  CB       119.6650  103.5720  203.9990 C.3    51  VAL51       0.0266
     18  CG1      118.4700  102.9680  204.7280 C.3    51  VAL51       0.0020
     19  CG2      120.3190  102.6110  203.0040 C.3    51  VAL51       0.0020
     20  N        117.0740  105.9200  203.5320 N.am   52  TYR52      -0.1976
     21  CA       115.7230  106.2780  203.0060 C.3    52  TYR52       0.1639
     22  C        115.7040  107.3090  201.8870 C.2    52  TYR52       0.2290
     23  O        114.6890  107.4330  201.1890 O.2    52  TYR52      -0.2864
     24  CB       114.7670  106.7730  204.1020 C.3    52  TYR52       0.0560
     25  CG       114.6280  105.8630  205.3080 C.ar   52  TYR52      -0.0198
     26  CD1      115.0570  104.5560  205.2830 C.ar   52  TYR52      -0.0009
     27  CD2      114.0270  106.3230  206.4890 C.ar   52  TYR52      -0.0009
     28  CE1      114.9080  103.7010  206.3890 C.ar   52  TYR52       0.0417
     29  CE2      113.8910  105.4750  207.6140 C.ar   52  TYR52       0.0417
     30  CZ       114.3300  104.1630  207.5460 C.ar   52  TYR52       0.1957
     31  OH       114.2350  103.3680  208.6770 O.3    52  TYR52      -0.2866
     32  N        120.1950  107.4170  211.0670 N.3    81  LYS81      -0.1245
     33  CA       120.8150  106.1310  211.1860 C.3    81  LYS81       0.1561
     34  C        122.0290  106.0800  210.2800 C.2    81  LYS81       0.2260
     35  O        122.0120  106.5720  209.1500 O.2    81  LYS81      -0.2867
     36  CB       119.8230  104.9780  210.9140 C.3    81  LYS81       0.0271
     37  CG       118.5360  105.0850  211.7170 C.3    81  LYS81       0.0035
     38  CD       117.5960  103.8720  211.5220 C.3    81  LYS81       0.0206
     39  CE       116.1510  104.1250  212.0110 C.3    81  LYS81       0.1093
     40  NZ       115.3050  104.8160  210.9860 N.3    81  LYS81      -0.1314
     41  N        124.3330  104.2560  208.0040 N.3    83  TRP83      -0.1241
     42  CA       124.1970  103.1180  207.0400 C.3    83  TRP83       0.1605
     43  C        125.4830  102.2740  207.0560 C.2    83  TRP83       0.2264
     44  O        126.5700  102.7250  207.4500 O.2    83  TRP83      -0.2867
     45  CB       123.7460  103.5300  205.6040 C.3    83  TRP83       0.0550
     46  CG       123.4670  102.2440  204.7840 C.ar   83  TRP83       0.0003
     47  CD1      124.1040  101.8320  203.6370 C.ar   83  TRP83       0.0946
     48  CD2      122.6380  101.1360  205.2010 C.ar   83  TRP83       0.0152
     49  NE1      123.7040  100.5530  203.3160 N.ar   83  TRP83      -0.2442
     50  CE2      122.7830  100.1210  204.2510 C.ar   83  TRP83       0.0810
     51  CE3      121.7650  100.9170  206.2840 C.ar   83  TRP83       0.0012
     52  CZ2      122.1090   98.8840  204.3840 C.ar   83  TRP83       0.0191
     53  CZ3      121.1110   99.7350  206.3990 C.ar   83  TRP83       0.0001
     54  CH2      121.2810   98.7190  205.4690 C.ar   83  TRP83       0.0015
     55  N        122.4430  101.4330  212.0310 N.3   114  HIS114     -0.1241
     56  CA       121.2000  100.9800  211.3520 C.3   114  HIS114      0.1621
     57  C        121.0870   99.4580  211.2700 C.2   114  HIS114      0.2264
     58  O        120.0160   98.8950  211.5410 O.2   114  HIS114     -0.2867
     59  CB       121.1030  101.6050  209.9730 C.3   114  HIS114      0.0745
     60  CG       119.7280  101.5840  209.3850 C.ar  114  HIS114      0.0817
     61  ND1      119.3520  102.4420  208.3690 N.ar  114  HIS114     -0.2268
     62  CD2      118.6280  100.8630  209.6960 C.ar  114  HIS114      0.1154
     63  CE1      118.0880  102.2400  208.0730 C.ar  114  HIS114      0.1986
     64  NE2      117.6290  101.2740  208.8530 N.ar  114  HIS114     -0.2212
     65  N        124.6390  102.3840  198.5240 N.3   125  VAL125     -0.1231
     66  CA       124.0930  101.8410  199.7610 C.3   125  VAL125      0.1692
     67  C        124.1960  100.3150  199.8380 C.2   125  VAL125      0.2591
     68  O        124.5200   99.7610  200.9250 O.2   125  VAL125     -0.2718
     69  CB       122.6270  102.2800  200.0180 C.3   125  VAL125      0.0266
     70  CG1      122.5960  103.7340  200.4520 C.3   125  VAL125      0.0020
     71  CG2      121.7730  102.1120  198.7940 C.3   125  VAL125      0.0020
     72  N        123.9710   99.6510  198.6960 N.am  126  ILE126     -0.1980
     73  CA       124.1250   98.1960  198.5840 C.3   126  ILE126      0.1595
     74  C        125.1600   97.9570  197.4610 C.2   126  ILE126      0.2287
     75  O        124.8180   97.7300  196.3230 O.2   126  ILE126     -0.2864
     76  CB       122.7680   97.4770  198.3800 C.3   126  ILE126      0.0276
     77  CG1      121.9060   97.6920  199.6640 C.3   126  ILE126      0.0022
     78  CG2      122.9890   95.9870  198.2200 C.3   126  ILE126      0.0022
     79  CD1      120.4990   97.1980  199.5920 C.3   126  ILE126      0.0001
     80  N        118.2970   96.7960  215.0330 N.3   164  ASN164     -0.1240
     81  CA       118.3770   95.4260  214.4910 C.3   164  ASN164      0.1653
     82  C        119.5600   94.6660  215.1010 C.2   164  ASN164      0.2266
     83  O        120.1660   93.7940  214.4510 O.2   164  ASN164     -0.2867
     84  CB       118.5560   95.4380  212.9800 C.3   164  ASN164      0.1155
     85  CG       117.4110   96.0920  212.2520 C.2   164  ASN164      0.2627
     86  OD1      116.2810   95.5120  212.3550 O.2   164  ASN164     -0.2716
     87  ND2      117.5820   97.0940  211.5490 N.am  164  ASN164     -0.0877
     88  N        109.5690   99.2050  215.2100 N.3   213  TYR213     -0.1241
     89  CA       109.2070   99.4630  213.8780 C.3   213  TYR213      0.1605
     90  C        108.3410   98.3880  213.2740 C.2   213  TYR213      0.2264
     91  O        108.2070   97.2850  213.8020 O.2   213  TYR213     -0.2867
     92  CB       110.4320   99.7440  213.0340 C.3   213  TYR213      0.0534
     93  CG       111.2830   98.6010  212.5900 C.ar  213  TYR213     -0.0201
     94  CD1      110.8180   97.6020  211.6910 C.ar  213  TYR213     -0.0009
     95  CD2      112.6060   98.5590  212.9450 C.ar  213  TYR213     -0.0009
     96  CE1      111.6900   96.6200  211.2170 C.ar  213  TYR213      0.0417
     97  CE2      113.4540   97.5610  212.4970 C.ar  213  TYR213      0.0417
     98  CZ       112.9890   96.6060  211.6420 C.ar  213  TYR213      0.1957
     99  OH       113.8710   95.6460  211.2110 O.3   213  TYR213     -0.2866
    100  N        105.1890   98.0810  205.5510 N.3   219  HIS219     -0.1241
    101  CA       104.9170   98.3930  204.1250 C.3   219  HIS219      0.1621
    102  C        104.3240   97.1990  203.2820 C.2   219  HIS219      0.2264
    103  O        103.5350   97.4180  202.3370 O.2   219  HIS219     -0.2867
    104  CB       106.1830   99.0380  203.4310 C.3   219  HIS219      0.0745
    105  CG       107.5260   98.5660  203.9600 C.ar  219  HIS219      0.0817
    106  ND1      108.1940   97.4620  203.4610 N.ar  219  HIS219     -0.2268
    107  CD2      108.3490   99.0930  204.9060 C.ar  219  HIS219      0.1154
    108  CE1      109.3460   97.3110  204.0940 C.ar  219  HIS219      0.1986
    109  NE2      109.4640   98.2850  204.9780 N.ar  219  HIS219     -0.2212
    110  N        111.1850   92.6570  199.9370 N.3   224  TRP224     -0.1241
    111  CA       111.5700   92.6430  201.3860 C.3   224  TRP224      0.1605
    112  C        110.6260   91.8280  202.3110 C.2   224  TRP224      0.2264
    113  O        111.0830   91.2840  203.3430 O.2   224  TRP224     -0.2867
    114  CB       111.7280   94.0650  201.9920 C.3   224  TRP224      0.0550
    115  CG       112.4960   95.0370  201.1860 C.ar  224  TRP224      0.0003
    116  CD1      112.0080   96.1750  200.6460 C.ar  224  TRP224      0.0946
    117  CD2      113.8990   94.9830  200.8200 C.ar  224  TRP224      0.0152
    118  NE1      112.9930   96.8300  199.9670 N.ar  224  TRP224     -0.2442
    119  CE2      114.1640   96.1240  200.0510 C.ar  224  TRP224      0.0810
    120  CE3      114.9450   94.0780  201.0600 C.ar  224  TRP224      0.0012
    121  CZ2      115.4390   96.3970  199.5130 C.ar  224  TRP224      0.0191
    122  CZ3      116.2150   94.3630  200.5300 C.ar  224  TRP224      0.0001
    123  CH2      116.4410   95.5030  199.7650 C.ar  224  TRP224      0.0015
    124  N        110.4780   91.4940  208.3250 N.3   303  LEU303     -0.1245
    125  CA       111.6530   92.1050  207.7380 C.3   303  LEU303      0.1561
    126  C        112.9020   91.3100  208.0820 C.2   303  LEU303      0.2260
    127  O        113.4620   91.4420  209.1640 O.2   303  LEU303     -0.2867
    128  CB       111.8070   93.5610  208.1860 C.3   303  LEU303      0.0270
    129  CG       112.6700   94.3220  207.1670 C.3   303  LEU303      0.0019
    130  CD1      111.9170   94.4790  205.8470 C.3   303  LEU303      0.0001
    131  CD2      113.0880   95.6950  207.6640 C.3   303  LEU303      0.0001
    132  N        115.6730   91.1920  205.7990 N.3   305  LEU305     -0.1245
    133  CA       116.8410   91.6940  205.1040 C.3   305  LEU305      0.1561
    134  C        117.8630   90.5810  204.7610 C.2   305  LEU305      0.2260
    135  O        119.0810   90.6860  205.0650 O.2   305  LEU305     -0.2867
    136  CB       117.5080   92.7450  205.9780 C.3   305  LEU305      0.0270
    137  CG       118.3050   93.7870  205.2370 C.3   305  LEU305      0.0019
    138  CD1      117.9820   93.9320  203.7330 C.3   305  LEU305      0.0001
    139  CD2      118.0900   95.0990  206.0020 C.3   305  LEU305      0.0001
    140  N        121.5070   90.3660  203.3910 N.3   308  PHE308     -0.1241
    141  CA       122.6940   90.5350  204.2370 C.3   308  PHE308      0.1605
    142  C        123.0380   89.3200  205.1030 C.2   308  PHE308      0.2264
    143  O        123.9230   89.3920  206.0000 O.2   308  PHE308     -0.2867
    144  CB       122.5790   91.7760  205.1200 C.3   308  PHE308      0.0534
    145  CG       122.4370   93.0520  204.3540 C.ar  308  PHE308     -0.0203
    146  CD1      123.3270   93.3980  203.3880 C.ar  308  PHE308     -0.0042
    147  CD2      121.4410   93.9290  204.6300 C.ar  308  PHE308     -0.0042
    148  CE1      123.2310   94.5830  202.6710 C.ar  308  PHE308     -0.0003
    149  CE2      121.3000   95.1170  203.9110 C.ar  308  PHE308     -0.0003
    150  CZ       122.2130   95.4530  202.9320 C.ar  308  PHE308     -0.0000
@<TRIPOS>BOND
     1    75    74    2
     2    74    73    1
     3    78    76    1
     4    76    73    1
     5    76    77    1
     6    65    66    1
     7    73    72    1
     8    72    67   am
     9    71    69    1
    10   121   123   ar
    11   121   119   ar
    12    79    77    1
    13    66    67    1
    14    66    69    1
    15   123   122   ar
    16    67    68    2
    17   110   111    1
    18   118   119   ar
    19   118   116   ar
    20    69    70    1
    21   119   117   ar
    22   122   120   ar
    23    12    11    1
    24   116   115   ar
    25   117   120   ar
    26   117   115   ar
    27   115   114    1
    28    23    22    2
    29   111   114    1
    30   111   112    1
    31    16    15    2
    32    11     9   ar
    33    11    10   ar
    34    22    21    1
    35     9     7   ar
    36   112   113    2
    37   103   102    2
    38   148   150   ar
    39   148   146   ar
    40    10     8   ar
    41    15    14    1
    42    15    20   am
    43   150   149   ar
    44    19    17    1
    45    21    20    1
    46    21    24    1
    47     7     6   ar
    48   102   101    1
    49    49    47   ar
    50    49    50   ar
    51    14    17    1
    52    14    13    1
    53   146   145   ar
    54   140   141    1
    55   104   105    1
    56   104   101    1
    57   106   105   ar
    58   106   108   ar
    59    47    46   ar
    60   138   137    1
    61     8     6   ar
    62   149   147   ar
    63   105   107   ar
    64    17    18    1
    65     3     4    2
    66     3     2    1
    67   108   109   ar
    68     6     5    1
    69    24    25    1
    70   101   100    1
    71   141   142    1
    72   141   144    1
    73    50    52   ar
    74    50    48   ar
    75   145   147   ar
    76   145   144    1
    77    52    54   ar
    78   134   135    2
    79   134   133    1
    80    46    48   ar
    81    46    45    1
    82   107   109   ar
    83     2     5    1
    84     2     1    1
    85   142   143    2
    86   133   132    1
    87   133   136    1
    88    48    51   ar
    89   137   136    1
    90   137   139    1
    91    26    25   ar
    92    26    28   ar
    93    25    27   ar
    94    54    53   ar
    95    45    42    1
    96   130   129    1
    97    51    53   ar
    98    28    30   ar
    99    27    29   ar
   100    42    43    1
   101    42    41    1
   102    43    44    2
   103   129   131    1
   104   129   128    1
   105    30    29   ar
   106    30    31    1
   107   125   126    1
   108   125   128    1
   109   125   124    1
   110    63    61   ar
   111    63    64   ar
   112   126   127    2
   113    61    60   ar
   114    64    62   ar
   115    35    34    2
   116    60    62   ar
   117    60    59    1
   118    59    56    1
   119    34    33    1
   120    36    33    1
   121    36    37    1
   122    40    39    1
   123    32    33    1
   124    99    98    1
   125    96    98   ar
   126    96    94   ar
   127    57    56    1
   128    57    58    2
   129    56    55    1
   130    38    37    1
   131    38    39    1
   132    87    85   am
   133    98    97   ar
   134    94    93   ar
   135    85    86    2
   136    85    84    1
   137    97    95   ar
   138    93    95   ar
   139    93    92    1
   140    84    81    1
   141    92    89    1
   142    90    91    2
   143    90    89    1
   144    89    88    1
   145    83    82    2
   146    81    80    1
   147    81    82    1
