@<TRIPOS>MOLECULE
tmp/4jq7A00.pdb
 177 166 0 0 0
SMALL
GASTEIGER

@<TRIPOS>ATOM
      1  N        -45.8620    3.5380  -19.2220 N.3    23  LEU23      -0.1231
      2  CA       -46.6660    2.4810  -18.6060 C.3    23  LEU23       0.1693
      3  C        -45.9890    1.1120  -18.7220 C.2    23  LEU23       0.2592
      4  O        -46.0390    0.3140  -17.7850 O.2    23  LEU23      -0.2718
      5  CB       -48.0660    2.4370  -19.2260 C.3    23  LEU23       0.0284
      6  CG       -48.9950    3.6100  -18.8960 C.3    23  LEU23       0.0019
      7  CD1      -50.2700    3.5220  -19.7180 C.3    23  LEU23       0.0001
      8  CD2      -49.3250    3.6500  -17.4130 C.3    23  LEU23       0.0001
      9  N        -45.3620    0.8410  -19.8640 N.am   24  GLY24      -0.1957
     10  CA       -44.6650   -0.4280  -20.0770 C.3    24  GLY24       0.1869
     11  C        -43.8460   -0.4130  -21.3500 C.2    24  GLY24       0.2309
     12  O        -44.0450    0.4500  -22.2030 O.2    24  GLY24      -0.2863
     13  N        -42.4700   -4.5210  -28.1840 N.3    28  PHE28      -0.1241
     14  CA       -43.4250   -3.8280  -29.0530 C.3    28  PHE28       0.1605
     15  C        -43.2360   -2.3080  -28.9750 C.2    28  PHE28       0.2264
     16  O        -44.1250   -1.5460  -29.3620 O.2    28  PHE28      -0.2867
     17  CB       -44.8640   -4.2120  -28.6670 C.3    28  PHE28       0.0534
     18  CG       -45.1230   -4.2080  -27.1810 C.ar   28  PHE28      -0.0203
     19  CD1      -45.3260   -3.0170  -26.4950 C.ar   28  PHE28      -0.0042
     20  CD2      -45.1570   -5.4010  -26.4660 C.ar   28  PHE28      -0.0042
     21  CE1      -45.5590   -3.0160  -25.1280 C.ar   28  PHE28      -0.0003
     22  CE2      -45.3920   -5.4060  -25.1000 C.ar   28  PHE28      -0.0003
     23  CZ       -45.5940   -4.2120  -24.4300 C.ar   28  PHE28      -0.0000
     24  N        -45.3660    1.9860  -24.3100 N.3    31  VAL31      -0.1245
     25  CA       -46.6900    2.5870  -24.1550 C.3    31  VAL31       0.1561
     26  C        -46.6170    3.6800  -23.0900 C.2    31  VAL31       0.2260
     27  O        -46.1730    3.4270  -21.9690 O.2    31  VAL31      -0.2867
     28  CB       -47.7420    1.5420  -23.7360 C.3    31  VAL31       0.0252
     29  CG1      -49.1240    2.1720  -23.6580 C.3    31  VAL31       0.0019
     30  CG2      -47.7450    0.3750  -24.7090 C.3    31  VAL31       0.0019
     31  N        -53.7440    6.3950  -23.7670 N.3    48  ALA48      -0.1245
     32  CA       -52.5530    5.5590  -23.8360 C.3    48  ALA48       0.1562
     33  C        -51.9120    5.7930  -25.1980 C.2    48  ALA48       0.2260
     34  O        -52.6030    5.7830  -26.2180 O.2    48  ALA48      -0.2867
     35  CB       -52.9180    4.0960  -23.6660 C.3    48  ALA48       0.0290
     36  N        -48.9860    4.5340  -27.7760 N.3    50  LYS50      -0.1245
     37  CA       -48.0940    3.4290  -28.1230 C.3    50  LYS50       0.1561
     38  C        -47.2490    3.7900  -29.3380 C.2    50  LYS50       0.2260
     39  O        -47.7700    4.2880  -30.3330 O.2    50  LYS50      -0.2867
     40  CB       -48.9320    2.1840  -28.4090 C.3    50  LYS50       0.0271
     41  CG       -48.1760    0.9320  -28.8180 C.3    50  LYS50       0.0035
     42  CD       -49.1270   -0.2580  -28.7660 C.3    50  LYS50       0.0206
     43  CE       -48.6500   -1.4260  -29.6080 C.3    50  LYS50       0.1093
     44  NZ       -49.6660   -2.5140  -29.6230 N.3    50  LYS50      -0.1314
     45  N        -52.5120   -2.6740  -37.1950 N.3    67  GLU67      -0.1245
     46  CA       -53.1740   -2.5740  -35.8970 C.3    67  GLU67       0.1567
     47  C        -54.0540   -1.3190  -35.8180 C.2    67  GLU67       0.2260
     48  O        -55.1090   -1.3360  -35.1860 O.2    67  GLU67      -0.2867
     49  CB       -52.1280   -2.5720  -34.7790 C.3    67  GLU67       0.0388
     50  CG       -52.6940   -2.6160  -33.3710 C.3    67  GLU67       0.1160
     51  CD       -51.6180   -2.5320  -32.3060 C.2    67  GLU67       0.3649
     52  OE1      -50.4260   -2.7270  -32.6320 O.co2  67  GLU67      -0.2457
     53  OE2      -51.9670   -2.2720  -31.1350 O.co2  67  GLU67      -0.2457
     54  N        -58.1950   -1.3840  -35.3020 N.3    71  MET71      -0.1245
     55  CA       -58.7070   -0.6350  -34.1410 C.3    71  MET71       0.1570
     56  C        -59.6130    0.5090  -34.5740 C.2    71  MET71       0.2261
     57  O        -60.6050    0.8040  -33.9070 O.2    71  MET71      -0.2867
     58  CB       -57.5750   -0.0410  -33.3020 C.3    71  MET71       0.0387
     59  CG       -56.8750   -0.9970  -32.3580 C.3    71  MET71       0.0595
     60  SD       -55.9000   -0.0710  -31.1550 S.3    71  MET71      -0.1393
     61  CE       -57.1260    0.1670  -29.8700 C.3    71  MET71       0.0692
     62  N        -61.5620   -2.1880  -27.5400 N.3    80  CYS80      -0.1235
     63  CA       -60.7530   -0.9780  -27.5630 C.3    80  CYS80       0.1677
     64  C        -60.6960   -0.4040  -28.9620 C.2    80  CYS80       0.2270
     65  O        -60.4870   -1.1270  -29.9340 O.2    80  CYS80      -0.2867
     66  CB       -59.3500   -1.2560  -27.0520 C.3    80  CYS80       0.0956
     67  SG       -59.3120   -1.4120  -25.2600 S.3    80  CYS80      -0.0801
     68  N        -49.7400    5.2200  -31.9770 N.3    93  LEU93      -0.1245
     69  CA       -51.1410    4.8430  -31.8210 C.3    93  LEU93       0.1561
     70  C        -51.6840    5.4810  -30.5480 C.2    93  LEU93       0.2260
     71  O        -51.0410    5.4150  -29.5010 O.2    93  LEU93      -0.2867
     72  CB       -51.2920    3.3210  -31.7480 C.3    93  LEU93       0.0270
     73  CG       -50.9340    2.5430  -33.0170 C.3    93  LEU93       0.0019
     74  CD1      -50.8990    1.0460  -32.7460 C.3    93  LEU93       0.0001
     75  CD2      -51.9130    2.8570  -34.1350 C.3    93  LEU93       0.0001
     76  N        -55.1050    5.7520  -27.9850 N.3    95  THR95      -0.1203
     77  CA       -56.3690    5.1530  -27.5650 C.3    95  THR95       0.1994
     78  C        -56.7350    5.5950  -26.1610 C.2    95  THR95       0.2618
     79  O        -55.9200    6.1790  -25.4490 O.2    95  THR95      -0.2717
     80  CB       -56.3100    3.6120  -27.5760 C.3    95  THR95       0.1784
     81  OG1      -55.1070    3.1700  -26.9340 O.3    95  THR95      -0.2211
     82  CG2      -56.3340    3.0930  -28.9890 C.3    95  THR95       0.0376
     83  N        -57.9750    5.3060  -25.7810 N.am   96  GLN96      -0.1965
     84  CA       -58.4800    5.5760  -24.4460 C.3    96  GLN96       0.1733
     85  C        -57.6210    4.8680  -23.4090 C.2    96  GLN96       0.2616
     86  O        -57.3170    3.6870  -23.5600 O.2    96  GLN96      -0.2715
     87  CB       -59.9140    5.0660  -24.3430 C.3    96  GLN96       0.0408
     88  CG       -60.5880    5.2980  -23.0010 C.3    96  GLN96       0.0908
     89  CD       -61.8640    4.4950  -22.8470 C.2    96  GLN96       0.2608
     90  OE1      -62.0220    3.4310  -23.4450 O.2    96  GLN96      -0.2717
     91  NE2      -62.7780    4.9970  -22.0330 N.am   96  GLN96      -0.0878
     92  N        -57.2320    5.5920  -22.3620 N.am   97  LEU97      -0.1963
     93  CA       -56.4990    4.9920  -21.2540 C.3    97  LEU97       0.1728
     94  C        -57.4130    4.0300  -20.5000 C.2    97  LEU97       0.2616
     95  O        -58.5370    4.3860  -20.1420 O.2    97  LEU97      -0.2715
     96  CB       -55.9740    6.0680  -20.2960 C.3    97  LEU97       0.0311
     97  CG       -55.1050    5.5790  -19.1290 C.3    97  LEU97       0.0022
     98  CD1      -53.8310    4.9210  -19.6330 C.3    97  LEU97       0.0001
     99  CD2      -54.7710    6.7270  -18.1920 C.3    97  LEU97       0.0001
    100  N        -56.9290    2.8080  -20.2910 N.am   98  MET98      -0.1964
    101  CA       -57.5940    1.8260  -19.4370 C.3    98  MET98       0.1722
    102  C        -56.7780    1.7590  -18.1410 C.2    98  MET98       0.2458
    103  O        -55.8790    0.9250  -18.0150 O.2    98  MET98      -0.2730
    104  CB       -57.6460    0.4640  -20.1350 C.3    98  MET98       0.0427
    105  CG       -58.2880    0.4920  -21.5160 C.3    98  MET98       0.0599
    106  SD       -60.0430    0.9090  -21.4900 S.3    98  MET98      -0.1393
    107  CE       -60.7660   -0.6740  -21.0530 C.3    98  MET98       0.0692
    108  N        -57.0890    2.6420  -17.1690 N.am   99  PRO99      -0.2716
    109  CA       -56.1370    2.9470  -16.0910 C.3    99  PRO99       0.1536
    110  C        -55.7270    1.7530  -15.2350 C.2    99  PRO99       0.2599
    111  O        -54.6080    1.7230  -14.7200 O.2    99  PRO99      -0.2715
    112  CB       -56.8830    3.9850  -15.2290 C.3    99  PRO99       0.0310
    113  CG       -58.0640    4.4140  -16.0300 C.3    99  PRO99       0.0237
    114  CD       -58.4050    3.2540  -16.9090 C.3    99  PRO99       0.0939
    115  N        -56.6180    0.7750  -15.0960 N.am  100  PHE100     -0.1960
    116  CA       -56.3630   -0.3820  -14.2350 C.3   100  PHE100      0.1771
    117  C        -55.5650   -1.4930  -14.9340 C.2   100  PHE100      0.2620
    118  O        -55.3800   -2.5740  -14.3690 O.2   100  PHE100     -0.2715
    119  CB       -57.6880   -0.9260  -13.6870 C.3   100  PHE100      0.0574
    120  CG       -58.4120    0.0370  -12.7890 C.ar  100  PHE100     -0.0200
    121  CD1      -59.2580    0.9990  -13.3190 C.ar  100  PHE100     -0.0042
    122  CD2      -58.2500   -0.0200  -11.4120 C.ar  100  PHE100     -0.0042
    123  CE1      -59.9270    1.8890  -12.4960 C.ar  100  PHE100     -0.0003
    124  CE2      -58.9170    0.8640  -10.5820 C.ar  100  PHE100     -0.0003
    125  CZ       -59.7570    1.8210  -11.1250 C.ar  100  PHE100     -0.0000
    126  N        -55.1010   -1.2290  -16.1560 N.am  101  GLY101     -0.1940
    127  CA       -54.2040   -2.1390  -16.8620 C.3   101  GLY101      0.2014
    128  C        -54.8840   -3.3970  -17.3670 C.2   101  GLY101      0.2639
    129  O        -56.1140   -3.4650  -17.4290 O.2   101  GLY101     -0.2714
    130  N        -54.0730   -4.3940  -17.7230 N.am  102  CYS102     -0.1967
    131  CA       -54.5740   -5.6620  -18.2490 C.3   102  CYS102      0.1712
    132  C        -55.1970   -6.5100  -17.1430 C.2   102  CYS102      0.2296
    133  O        -54.7700   -6.4630  -15.9900 O.2   102  CYS102     -0.2864
    134  CB       -53.4650   -6.4500  -18.9600 C.3   102  CYS102      0.0983
    135  SG       -52.2440   -7.2370  -17.8830 S.3   102  CYS102     -0.0798
    136  N        -53.0020   -9.1470  -14.8790 N.3   105  ASP105     -0.1239
    137  CA       -52.3490   -8.5610  -13.7120 C.3   105  ASP105      0.1674
    138  C        -53.3640   -8.1780  -12.6420 C.2   105  ASP105      0.2266
    139  O        -53.0740   -8.2740  -11.4530 O.2   105  ASP105     -0.2867
    140  CB       -51.5130   -7.3410  -14.1090 C.3   105  ASP105      0.1410
    141  CG       -50.2790   -7.7140  -14.9120 C.2   105  ASP105      0.3668
    142  OD1      -49.8310   -8.8780  -14.8290 O.co2 105  ASP105     -0.2456
    143  OD2      -49.7500   -6.8380  -15.6250 O.co2 105  ASP105     -0.2456
    144  N        -54.2140  -11.2590  -20.7820 N.3   146  ARG146     -0.1245
    145  CA       -53.2750  -10.1430  -20.9370 C.3   146  ARG146      0.1563
    146  C        -53.7310   -9.1110  -21.9770 C.2   146  ARG146      0.2260
    147  O        -53.3250   -7.9540  -21.9090 O.2   146  ARG146     -0.2867
    148  CB       -51.8660  -10.6580  -21.2870 C.3   146  ARG146      0.0307
    149  CG       -51.5750  -10.7850  -22.7770 C.3   146  ARG146      0.0489
    150  CD       -50.2650  -11.5090  -23.0460 C.3   146  ARG146      0.2205
    151  NE       -50.4860  -12.9250  -23.3400 N.pl3 146  ARG146     -0.0865
    152  CZ       -50.8250  -13.4170  -24.5310 C.cat 146  ARG146      0.5346
    153  NH1      -50.9900  -12.6180  -25.5830 N.pl3 146  ARG146      0.1354
    154  NH2      -51.0030  -14.7260  -24.6750 N.pl3 146  ARG146      0.1354
    155  N        -58.2130   -5.3210  -21.2900 N.3   149  LEU149     -0.1245
    156  CA       -57.8520   -4.2150  -20.4070 C.3   149  LEU149      0.1561
    157  C        -59.0430   -3.8070  -19.5500 C.2   149  LEU149      0.2260
    158  O        -60.1890   -4.1350  -19.8680 O.2   149  LEU149     -0.2867
    159  CB       -57.3230   -3.0220  -21.2120 C.3   149  LEU149      0.0270
    160  CG       -56.0560   -3.2780  -22.0460 C.3   149  LEU149      0.0019
    161  CD1      -55.6850   -2.0430  -22.8550 C.3   149  LEU149      0.0001
    162  CD2      -54.8840   -3.7170  -21.1800 C.3   149  LEU149      0.0001
    163  N        -58.4640   -5.7620  -26.4950 N.3   159  THR159     -0.1203
    164  CA       -57.4930   -4.9140  -27.1920 C.3   159  THR159      0.1994
    165  C        -56.4680   -5.7690  -27.9570 C.2   159  THR159      0.2617
    166  O        -56.7170   -6.9490  -28.2080 O.2   159  THR159     -0.2717
    167  CB       -56.7980   -3.9610  -26.1980 C.3   159  THR159      0.1784
    168  OG1      -56.1180   -2.9220  -26.9130 O.3   159  THR159     -0.2211
    169  CG2      -55.8140   -4.7150  -25.3180 C.3   159  THR159      0.0376
    170  N        -55.3750   -5.1620  -28.3440 N.am  160  ASP160     -0.1973
    171  CA       -54.3200   -5.8260  -29.0600 C.3   160  ASP160      0.1709
    172  C        -54.6020   -6.5030  -30.3700 C.2   160  ASP160      0.2293
    173  O        -54.3710   -7.6730  -30.5270 O.2   160  ASP160     -0.2864
    174  CB       -53.6390   -6.7970  -28.1420 C.3   160  ASP160      0.1436
    175  CG       -52.1940   -6.5170  -27.9770 C.2   160  ASP160      0.3671
    176  OD1      -51.4010   -6.9610  -28.8170 O.co2 160  ASP160     -0.2456
    177  OD2      -51.8510   -5.8850  -26.9840 O.co2 160  ASP160     -0.2456
@<TRIPOS>BOND
     1    45    46    1
     2    46    47    1
     3    46    49    1
     4    47    48    2
     5    54    55    1
     6    49    50    1
     7    56    55    1
     8    56    57    2
     9    55    58    1
    10    75    73    1
    11    50    51    1
    12    58    59    1
    13    73    74    1
    14    73    72    1
    15    52    51   ar
    16    59    60    1
    17    51    53   ar
    18    68    69    1
    19    69    72    1
    20    69    70    1
    21    60    61    1
    22    70    71    2
    23   173   172    2
    24   172   171    1
    25    39    38    2
    26    65    64    2
    27    44    43    1
    28    43    42    1
    29    16    15    2
    30    38    37    1
    31   171   170    1
    32   171   174    1
    33    14    15    1
    34    14    17    1
    35    14    13    1
    36    82    80    1
    37    64    63    1
    38    41    42    1
    39    41    40    1
    40   176   175   ar
    41    17    18    1
    42    40    37    1
    43   170   165   am
    44   166   165    2
    45   174   175    1
    46    37    36    1
    47    76    77    1
    48   175   177   ar
    49   165   164    1
    50    80    77    1
    51    80    81    1
    52    77    78    1
    53    63    62    1
    54    63    66    1
    55   164   163    1
    56   164   167    1
    57    18    19   ar
    58    18    20   ar
    59    66    67    1
    60   168   167    1
    61    19    21   ar
    62    20    22   ar
    63    34    33    2
    64   167   169    1
    65    78    83   am
    66    78    79    2
    67    83    84    1
    68   153   152    1
    69    33    32    1
    70    21    23   ar
    71    22    23   ar
    72    30    28    1
    73   154   152    1
    74   152   151    2
    75    84    87    1
    76    84    85    1
    77    87    88    1
    78    24    25    1
    79    25    28    1
    80    25    26    1
    81    32    31    1
    82    32    35    1
    83    28    29    1
    84    86    85    2
    85    90    89    2
    86    85    92   am
    87   151   150    1
    88    26    27    2
    89   150   149    1
    90    88    89    1
    91   161   160    1
    92    89    91   am
    93   149   148    1
    94    92    93    1
    95    12    11    2
    96   160   159    1
    97   160   162    1
    98   146   147    2
    99   146   145    1
   100   105   106    1
   101   105   104    1
   102   106   107    1
   103    11    10    1
   104   155   156    1
   105   148   145    1
   106    93    94    1
   107    93    96    1
   108   159   156    1
   109   145   144    1
   110    94   100   am
   111    94    95    2
   112   156   157    1
   113    96    97    1
   114   100   101    1
   115   104   101    1
   116    10     9    1
   117   158   157    2
   118     9     3   am
   119     7     6    1
   120    98    97    1
   121   101   102    1
   122     5     6    1
   123     5     2    1
   124     1     2    1
   125    97    99    1
   126   134   131    1
   127   134   135    1
   128     6     8    1
   129     3     2    1
   130     3     4    2
   131   131   130    1
   132   131   132    1
   133   102   103    2
   134   102   108   am
   135   130   128   am
   136   129   128    2
   137   128   127    1
   138   108   114    1
   139   108   109    1
   140   132   133    2
   141   114   113    1
   142   127   126    1
   143   126   117   am
   144   109   110    1
   145   109   112    1
   146   113   112    1
   147   143   141   ar
   148   110   115   am
   149   110   111    2
   150   115   116    1
   151   117   118    2
   152   117   116    1
   153   141   142   ar
   154   141   140    1
   155   136   137    1
   156   116   119    1
   157   140   137    1
   158   137   138    1
   159   119   120    1
   160   121   120   ar
   161   121   123   ar
   162   120   122   ar
   163   138   139    2
   164   123   125   ar
   165   122   124   ar
   166   125   124   ar
