@<TRIPOS>MOLECULE
tmp/4jq8A00.pdb
 193 183 0 0 0
SMALL
GASTEIGER

@<TRIPOS>ATOM
      1  N        143.1680  127.2650  193.1000 N.3    23  LEU23      -0.1231
      2  CA       144.2050  127.8700  193.9500 C.3    23  LEU23       0.1693
      3  C        145.5640  127.7600  193.2830 C.2    23  LEU23       0.2592
      4  O        146.4050  128.6380  193.4290 O.2    23  LEU23      -0.2718
      5  CB       144.2400  127.2360  195.3400 C.3    23  LEU23       0.0284
      6  CG       143.0610  127.6180  196.2480 C.3    23  LEU23       0.0019
      7  CD1      143.0420  126.8270  197.5370 C.3    23  LEU23       0.0001
      8  CD2      143.1000  129.0870  196.5770 C.3    23  LEU23       0.0001
      9  N        145.7670  126.6960  192.5230 N.am   24  GLY24      -0.1957
     10  CA       147.0090  126.5400  191.7870 C.3    24  GLY24       0.1869
     11  C        147.0500  125.2180  191.0790 C.2    24  GLY24       0.2309
     12  O        146.2740  124.3230  191.3950 O.2    24  GLY24      -0.2863
     13  N        151.3240  118.4700  190.0290 N.3    28  PHE28      -0.1241
     14  CA       150.5960  117.6410  190.9920 C.3    28  PHE28       0.1605
     15  C        149.0840  117.7240  190.7710 C.2    28  PHE28       0.2264
     16  O        148.3020  117.5350  191.7090 O.2    28  PHE28      -0.2867
     17  CB       150.9500  118.0640  192.4190 C.3    28  PHE28       0.0534
     18  CG       150.9180  119.5480  192.6370 C.ar   28  PHE28      -0.0203
     19  CD1      149.7150  120.2130  192.8440 C.ar   28  PHE28      -0.0042
     20  CD2      152.0970  120.2840  192.6310 C.ar   28  PHE28      -0.0042
     21  CE1      149.6940  121.5830  193.0450 C.ar   28  PHE28      -0.0003
     22  CE2      152.0800  121.6530  192.8340 C.ar   28  PHE28      -0.0003
     23  CZ       150.8760  122.3040  193.0380 C.ar   28  PHE28      -0.0000
     24  N        144.8700  122.1500  192.6930 N.3    31  VAL31      -0.1245
     25  CA       144.2630  122.3210  194.0110 C.3    31  VAL31       0.1561
     26  C        143.1700  123.3920  193.8940 C.2    31  VAL31       0.2260
     27  O        143.4070  124.5000  193.3780 O.2    31  VAL31      -0.2867
     28  CB       145.3060  122.7360  195.0750 C.3    31  VAL31       0.0252
     29  CG1      144.6470  123.1160  196.3930 C.3    31  VAL31       0.0019
     30  CG2      146.3080  121.6290  195.2940 C.3    31  VAL31       0.0019
     31  N        140.3610  122.7860  200.8790 N.3    48  ALA48      -0.1231
     32  CA       141.1300  122.6540  199.6390 C.3    48  ALA48       0.1694
     33  C        140.8730  121.2820  199.0820 C.2    48  ALA48       0.2592
     34  O        140.8130  120.3150  199.8390 O.2    48  ALA48      -0.2718
     35  CB       142.6090  122.8310  199.8880 C.3    48  ALA48       0.0304
     36  N        140.7180  121.2010  197.7630 N.am   49  ILE49      -0.1966
     37  CA       140.4350  119.9320  197.0560 C.3    49  ILE49       0.1727
     38  C        141.4870  119.6530  195.9860 C.2    49  ILE49       0.2616
     39  O        141.6580  120.4240  195.0360 O.2    49  ILE49      -0.2715
     40  CB       139.0740  119.9680  196.3690 C.3    49  ILE49       0.0290
     41  CG1      137.9720  120.1900  197.3960 C.3    49  ILE49       0.0022
     42  CG2      138.8380  118.6940  195.5820 C.3    49  ILE49       0.0023
     43  CD1      136.8290  121.0080  196.8490 C.3    49  ILE49       0.0001
     44  N        142.1850  118.5390  196.1450 N.am   50  LYS50      -0.1977
     45  CA       143.3070  118.1980  195.2750 C.3    50  LYS50       0.1596
     46  C        142.9990  116.9730  194.4350 C.2    50  LYS50       0.2287
     47  O        142.5100  115.9800  194.9530 O.2    50  LYS50      -0.2864
     48  CB       144.5430  117.9340  196.1120 C.3    50  LYS50       0.0298
     49  CG       145.8340  117.7810  195.3280 C.3    50  LYS50       0.0038
     50  CD       146.9570  117.4480  196.2970 C.3    50  LYS50       0.0206
     51  CE       148.1180  116.7690  195.6120 C.3    50  LYS50       0.1093
     52  NZ       148.8350  115.9310  196.6000 N.3    50  LYS50      -0.1314
     53  N        149.4320  109.0310  199.6450 N.3    67  GLU67      -0.1245
     54  CA       149.4200  110.3260  200.3270 C.3    67  GLU67       0.1567
     55  C        148.1550  110.4980  201.1890 C.2    67  GLU67       0.2260
     56  O        148.1800  111.1740  202.2170 O.2    67  GLU67      -0.2867
     57  CB       149.5210  111.4510  199.2910 C.3    67  GLU67       0.0388
     58  CG       149.3880  112.8500  199.8590 C.3    67  GLU67       0.1160
     59  CD       149.5470  113.9400  198.8170 C.2    67  GLU67       0.3649
     60  OE1      149.6630  113.6060  197.6160 O.co2  67  GLU67      -0.2457
     61  OE2      149.5600  115.1370  199.2130 O.co2  67  GLU67      -0.2457
     62  N        147.9650  111.2440  205.3070 N.3    71  MET71      -0.1245
     63  CA       147.2490  112.4310  205.7930 C.3    71  MET71       0.1570
     64  C        146.1030  112.0170  206.6860 C.2    71  MET71       0.2261
     65  O        145.7300  112.7330  207.6120 O.2    71  MET71      -0.2867
     66  CB       146.6650  113.2500  204.6440 C.3    71  MET71       0.0387
     67  CG       147.6190  114.1830  203.9220 C.3    71  MET71       0.0595
     68  SD       146.7130  115.5270  203.1100 S.3    71  MET71      -0.1393
     69  CE       146.8290  116.8300  204.3340 C.3    71  MET71       0.0692
     70  N        148.7470  119.1860  208.8200 N.3    80  CYS80      -0.1235
     71  CA       147.5320  119.1260  207.9990 C.3    80  CYS80       0.1677
     72  C        147.0440  117.7040  207.8310 C.2    80  CYS80       0.2270
     73  O        147.7970  116.8160  207.4750 O.2    80  CYS80      -0.2867
     74  CB       147.7700  119.7400  206.6240 C.3    80  CYS80       0.0956
     75  SG       147.9870  121.5350  206.6850 S.3    80  CYS80      -0.0801
     76  N        141.4430  114.4270  196.8970 N.3    93  LEU93      -0.1245
     77  CA       141.7790  114.5830  198.3050 C.3    93  LEU93       0.1561
     78  C        141.1740  115.8790  198.8210 C.2    93  LEU93       0.2260
     79  O        141.2940  116.9040  198.1660 O.2    93  LEU93      -0.2867
     80  CB       143.3000  114.6240  198.5270 C.3    93  LEU93       0.0270
     81  CG       144.1260  113.3980  198.1200 C.3    93  LEU93       0.0019
     82  CD1      145.5500  113.4670  198.6690 C.3    93  LEU93       0.0001
     83  CD2      143.4610  112.1130  198.5750 C.3    93  LEU93       0.0001
     84  N        141.0250  118.5360  202.2940 N.3    95  THR95      -0.1203
     85  CA       141.5290  118.9940  203.5890 C.3    95  THR95       0.1994
     86  C        141.0460  120.3920  203.9310 C.2    95  THR95       0.2618
     87  O        140.4430  121.0680  203.1170 O.2    95  THR95      -0.2717
     88  CB       143.0640  119.0840  203.6240 C.3    95  THR95       0.1784
     89  OG1      143.5160  119.8200  202.4750 O.3    95  THR95      -0.2211
     90  CG2      143.6650  117.7230  203.6480 C.3    95  THR95       0.0376
     91  N        141.3430  120.8010  205.1620 N.am   96  GLN96      -0.1965
     92  CA       141.0640  122.1360  205.6450 C.3    96  GLN96       0.1733
     93  C        141.8080  123.1290  204.8000 C.2    96  GLN96       0.2616
     94  O        143.0090  122.9690  204.5260 O.2    96  GLN96      -0.2715
     95  CB       141.5210  122.2830  207.0940 C.3    96  GLN96       0.0408
     96  CG       141.2040  123.6260  207.7200 C.3    96  GLN96       0.0908
     97  CD       141.6130  123.7210  209.1690 C.2    96  GLN96       0.2608
     98  OE1      142.2780  122.8360  209.7090 O.2    96  GLN96      -0.2717
     99  NE2      141.2170  124.8100  209.8120 N.am   96  GLN96      -0.0878
    100  N        141.0920  124.1700  204.4050 N.am   97  LEU97      -0.1963
    101  CA       141.6940  125.2720  203.6690 C.3    97  LEU97       0.1728
    102  C        142.6400  126.0460  204.5790 C.2    97  LEU97       0.2616
    103  O        142.2960  126.4080  205.7050 O.2    97  LEU97      -0.2715
    104  CB       140.6240  126.2080  203.0970 C.3    97  LEU97       0.0311
    105  CG       141.1540  127.4110  202.3120 C.3    97  LEU97       0.0022
    106  CD1      141.8530  126.9350  201.0500 C.3    97  LEU97       0.0001
    107  CD2      140.0320  128.3530  201.9520 C.3    97  LEU97       0.0001
    108  N        143.8370  126.2820  204.0640 N.am   98  MET98      -0.1964
    109  CA       144.8220  127.1240  204.7280 C.3    98  MET98       0.1722
    110  C        144.9020  128.4180  203.9270 C.2    98  MET98       0.2458
    111  O        145.7570  128.5620  203.0710 O.2    98  MET98      -0.2730
    112  CB       146.1720  126.4110  204.8040 C.3    98  MET98       0.0427
    113  CG       146.0840  125.0560  205.4870 C.3    98  MET98       0.0599
    114  SD       145.6190  125.1820  207.2240 S.3    98  MET98      -0.1393
    115  CE       147.2270  125.5610  207.9380 C.3    98  MET98       0.0692
    116  N        144.0030  129.3720  204.2200 N.am   99  PRO99      -0.2716
    117  CA       143.6880  130.4670  203.2990 C.3    99  PRO99       0.1536
    118  C        144.8750  131.3090  202.9100 C.2    99  PRO99       0.2599
    119  O        144.8760  131.9010  201.8380 O.2    99  PRO99      -0.2715
    120  CB       142.7130  131.3370  204.0940 C.3    99  PRO99       0.0310
    121  CG       142.3120  130.5240  205.2670 C.3    99  PRO99       0.0237
    122  CD       143.4430  129.6200  205.5570 C.3    99  PRO99       0.0939
    123  N        145.8810  131.3690  203.7740 N.am  100  PHE100     -0.1960
    124  CA       146.9820  132.3050  203.5630 C.3   100  PHE100      0.1771
    125  C        148.1000  131.6880  202.7390 C.2   100  PHE100      0.2620
    126  O        149.1770  132.2700  202.5840 O.2   100  PHE100     -0.2715
    127  CB       147.4930  132.8350  204.9010 C.3   100  PHE100      0.0574
    128  CG       146.5200  133.7440  205.6100 C.ar  100  PHE100     -0.0200
    129  CD1      145.4710  133.2210  206.3580 C.ar  100  PHE100     -0.0042
    130  CD2      146.6650  135.1110  205.5470 C.ar  100  PHE100     -0.0042
    131  CE1      144.5820  134.0500  207.0150 C.ar  100  PHE100     -0.0003
    132  CE2      145.7960  135.9410  206.2080 C.ar  100  PHE100     -0.0003
    133  CZ       144.7500  135.4110  206.9440 C.ar  100  PHE100     -0.0000
    134  N        147.8260  130.5070  202.1960 N.am  101  GLY101     -0.1940
    135  CA       148.7430  129.8390  201.3040 C.3   101  GLY101      0.2014
    136  C        149.9620  129.3360  202.0440 C.2   101  GLY101      0.2639
    137  O        149.9760  129.2620  203.2730 O.2   101  GLY101     -0.2714
    138  N        150.9890  128.9880  201.2780 N.am  102  CYS102     -0.1967
    139  CA       152.2030  128.4240  201.8310 C.3   102  CYS102      0.1712
    140  C        153.1070  129.5110  202.3980 C.2   102  CYS102      0.2296
    141  O        153.1340  130.6410  201.9140 O.2   102  CYS102     -0.2864
    142  CB       152.9540  127.6050  200.7750 C.3   102  CYS102      0.0983
    143  SG       153.9670  128.5880  199.6700 S.3   102  CYS102     -0.0798
    144  N        160.1990  115.7110  202.5450 N.3   142  ASP142     -0.1239
    145  CA       160.0280  116.9060  201.7130 C.3   142  ASP142      0.1674
    146  C        159.6740  118.1570  202.5100 C.2   142  ASP142      0.2266
    147  O        158.7900  118.9270  202.1390 O.2   142  ASP142     -0.2867
    148  CB       159.0100  116.6610  200.5910 C.3   142  ASP142      0.1410
    149  CG       159.0360  117.7640  199.5080 C.2   142  ASP142      0.3668
    150  OD1      160.0380  118.5170  199.3830 O.co2 142  ASP142     -0.2456
    151  OD2      158.0390  117.8840  198.7760 O.co2 142  ASP142     -0.2456
    152  N        157.9180  125.9010  201.3530 N.3   146  ARG146     -0.1231
    153  CA       156.7970  125.7670  200.3960 C.3   146  ARG146      0.1694
    154  C        155.7880  124.6930  200.7860 C.2   146  ARG146      0.2592
    155  O        154.6790  124.6670  200.2480 O.2   146  ARG146     -0.2718
    156  CB       157.3070  125.4930  198.9740 C.3   146  ARG146      0.0321
    157  CG       157.5160  124.0180  198.6300 C.3   146  ARG146      0.0489
    158  CD       158.4010  123.8150  197.4120 C.3   146  ARG146      0.2205
    159  NE       159.7730  123.4690  197.8040 N.pl3 146  ARG146     -0.0865
    160  CZ       160.2210  122.2300  198.0120 C.cat 146  ARG146      0.5346
    161  NH1      159.4090  121.1860  197.8590 N.pl3 146  ARG146      0.1354
    162  NH2      161.4880  122.0320  198.3710 N.pl3 146  ARG146      0.1354
    163  N        156.1830  123.7990  201.6920 N.am  147  ASN147     -0.1974
    164  CA       155.3050  122.7070  202.1750 C.3   147  ASN147      0.1688
    165  C        154.7520  122.9310  203.5790 C.2   147  ASN147      0.2292
    166  O        154.2070  122.0210  204.1910 O.2   147  ASN147     -0.2864
    167  CB       156.0210  121.3580  202.1090 C.3   147  ASN147      0.1181
    168  CG       156.2740  120.9240  200.6850 C.2   147  ASN147      0.2629
    169  OD1      155.4420  121.1520  199.8200 O.2   147  ASN147     -0.2716
    170  ND2      157.4340  120.3290  200.4260 N.am  147  ASN147     -0.0877
    171  N        151.9990  125.3430  205.4180 N.3   149  LEU149     -0.1245
    172  CA       150.8790  126.2280  205.0740 C.3   149  LEU149      0.1561
    173  C        150.5180  127.1100  206.2540 C.2   149  LEU149      0.2260
    174  O        150.8580  126.7960  207.4050 O.2   149  LEU149     -0.2867
    175  CB       149.6410  125.4440  204.5840 C.3   149  LEU149      0.0270
    176  CG       149.7590  124.7500  203.2090 C.3   149  LEU149      0.0019
    177  CD1      148.6190  123.7680  202.9780 C.3   149  LEU149      0.0001
    178  CD2      149.8180  125.7500  202.0700 C.3   149  LEU149      0.0001
    179  N        152.5190  120.1420  205.7830 N.3   159  THR159     -0.1203
    180  CA       151.6580  119.4300  204.8410 C.3   159  THR159      0.1994
    181  C        152.4560  118.8300  203.6940 C.2   159  THR159      0.2617
    182  O        153.6610  118.6880  203.7790 O.2   159  THR159     -0.2717
    183  CB       150.5650  120.3640  204.2910 C.3   159  THR159      0.1784
    184  OG1      149.4780  119.5900  203.7710 O.3   159  THR159     -0.2211
    185  CG2      151.1240  121.2530  203.2050 C.3   159  THR159      0.0376
    186  N        151.7670  118.3850  202.6730 N.am  160  ASP160     -0.1973
    187  CA       152.3930  117.7310  201.5390 C.3   160  ASP160      0.1709
    188  C        153.1920  116.4810  201.8330 C.2   160  ASP160      0.2293
    189  O        154.3870  116.4650  201.6740 O.2   160  ASP160     -0.2864
    190  CB       153.2450  118.7170  200.7750 C.3   160  ASP160      0.1436
    191  CG       152.4550  119.5000  199.7850 C.2   160  ASP160      0.3671
    192  OD1      152.1270  118.9480  198.7350 O.co2 160  ASP160     -0.2456
    193  OD2      152.1600  120.6640  200.0410 O.co2 160  ASP160     -0.2456
@<TRIPOS>BOND
     1    13    14    1
     2    15    14    1
     3    15    16    2
     4    14    17    1
     5    11    12    2
     6    11    10    1
     7    10     9    1
     8    17    18    1
     9     9     3   am
    10    20    18   ar
    11    20    22   ar
    12    18    19   ar
    13    24    25    1
    14    22    23   ar
    15    19    21   ar
    16    23    21   ar
    17     1     2    1
    18     3     4    2
    19     3     2    1
    20    27    26    2
    21    26    25    1
    22     2     5    1
    23    25    28    1
    24    46    47    2
    25    46    45    1
    26    39    38    2
    27    28    30    1
    28    28    29    1
    29    45    48    1
    30    45    44    1
    31    49    48    1
    32    49    50    1
    33     5     6    1
    34    42    40    1
    35    51    50    1
    36    51    52    1
    37    38    44   am
    38    38    37    1
    39     6     8    1
    40     6     7    1
    41    40    37    1
    42    40    41    1
    43    43    41    1
    44    76    77    1
    45    37    36    1
    46   158   159    1
    47   158   157    1
    48    60    59   ar
    49    36    33   am
    50   159   160    2
    51   161   160    1
    52   160   162    1
    53    81    80    1
    54    81    83    1
    55    81    82    1
    56    79    78    2
    57    77    80    1
    58    77    78    1
    59   157   156    1
    60   192   191   ar
    61   151   149   ar
    62    59    61   ar
    63    59    58    1
    64   156   153    1
    65    33    32    1
    66    33    34    2
    67    57    58    1
    68    57    54    1
    69   150   149   ar
    70   149   148    1
    71    32    35    1
    72    32    31    1
    73    53    54    1
    74   143   142    1
    75   191   193   ar
    76   191   190    1
    77   169   168    2
    78   155   154    2
    79    54    55    1
    80   153   154    1
    81   153   152    1
    82   170   168   am
    83   148   145    1
    84   168   167    1
    85   190   187    1
    86   142   139    1
    87   154   163   am
    88   106   105    1
    89    55    56    2
    90   138   139    1
    91   138   136   am
    92   135   136    1
    93   135   134    1
    94   187   188    1
    95   187   186    1
    96   189   188    2
    97   163   164    1
    98   145   146    1
    99   145   144    1
   100   139   140    1
   101   119   118    2
   102   141   140    2
   103   107   105    1
   104   136   137    2
   105   178   176    1
   106   167   164    1
   107   147   146    2
   108   164   165    1
   109   134   125   am
   110    84    85    1
   111   105   104    1
   112    89    88    1
   113   126   125    2
   114   186   181   am
   115   125   124    1
   116   118   117    1
   117   118   123   am
   118   177   176    1
   119   111   110    2
   120   104   101    1
   121    68    67    1
   122    68    69    1
   123    87    86    2
   124   185   183    1
   125   176   175    1
   126   117   120    1
   127   117   116    1
   128   124   123    1
   129   124   127    1
   130   165   166    2
   131    85    88    1
   132    85    86    1
   133    88    90    1
   134   101   100    1
   135   101   102    1
   136   181   182    2
   137   181   180    1
   138   184   183    1
   139    67    66    1
   140   110   116   am
   141   110   109    1
   142    86    91   am
   143   108   102   am
   144   108   109    1
   145   120   121    1
   146   116   122    1
   147   183   180    1
   148   100    93   am
   149    94    93    2
   150   102   103    2
   151   175   172    1
   152    66    63    1
   153   109   112    1
   154    93    92    1
   155   112   113    1
   156   180   179    1
   157   127   128    1
   158   172   171    1
   159   172   173    1
   160    91    92    1
   161   121   122    1
   162    62    63    1
   163   113   114    1
   164   130   128   ar
   165   130   132   ar
   166   128   129   ar
   167    92    95    1
   168    63    64    1
   169   132   133   ar
   170   173   174    2
   171   129   131   ar
   172    74    75    1
   173    74    71    1
   174    64    65    2
   175   133   131   ar
   176    95    96    1
   177   114   115    1
   178    73    72    2
   179    96    97    1
   180    72    71    1
   181    71    70    1
   182    97    98    2
   183    97    99   am
