@<TRIPOS>MOLECULE
tmp/4jqcA01.pdb
 174 168 0 0 0
SMALL
GASTEIGER

@<TRIPOS>ATOM
      1  N         -3.7730   20.0600   21.6830 N.3    93  GLY93      -0.1210
      2  CA        -2.5260   20.6890   22.1060 C.3    93  GLY93       0.1956
      3  C         -1.4740   19.6430   22.4360 C.2    93  GLY93       0.2612
      4  O         -1.7570   18.6770   23.1410 O.2    93  GLY93      -0.2717
      5  N         -0.2620   19.8470   21.9320 N.am   94  PHE94      -0.1962
      6  CA         0.8500   18.9560   22.2270 C.3    94  PHE94       0.1771
      7  C          2.1830   19.6860   22.1520 C.2    94  PHE94       0.2619
      8  O          2.3370   20.6500   21.4020 O.2    94  PHE94      -0.2715
      9  CB         0.8580   17.7690   21.2540 C.3    94  PHE94       0.0574
     10  CG         1.9670   16.7840   21.5100 C.ar   94  PHE94      -0.0200
     11  CD1        1.8430   15.8210   22.5040 C.ar   94  PHE94      -0.0042
     12  CD2        3.1410   16.8270   20.7670 C.ar   94  PHE94      -0.0042
     13  CE1        2.8680   14.9170   22.7510 C.ar   94  PHE94      -0.0003
     14  CE2        4.1690   15.9260   21.0110 C.ar   94  PHE94      -0.0003
     15  CZ         4.0300   14.9710   22.0050 C.ar   94  PHE94      -0.0000
     16  N          3.1320   19.2190   22.9580 N.am   95  ALA95      -0.1977
     17  CA         4.5420   19.5640   22.8140 C.3    95  ALA95       0.1597
     18  C          5.3410   18.4270   23.4360 C.2    95  ALA95       0.2287
     19  O          5.0130   17.9920   24.5360 O.2    95  ALA95      -0.2864
     20  CB         4.8510   20.8670   23.5100 C.3    95  ALA95       0.0319
     21  N          6.9400   15.9420   25.5370 N.3    97  GLY97      -0.1225
     22  CA         6.9660   15.9770   27.0020 C.3    97  GLY97       0.1811
     23  C          8.1520   16.7070   27.6000 C.2    97  GLY97       0.2280
     24  O          7.9850   17.5890   28.4370 O.2    97  GLY97      -0.2866
     25  N          8.6300   20.6110   28.4650 N.3   100  LEU100     -0.1245
     26  CA         7.9200   21.2770   29.5470 C.3   100  LEU100      0.1561
     27  C          8.5080   20.9530   30.9200 C.2   100  LEU100      0.2260
     28  O          7.8190   21.0720   31.9300 O.2   100  LEU100     -0.2867
     29  CB         6.4470   20.8560   29.5120 C.3   100  LEU100      0.0270
     30  CG         5.7840   20.8510   28.1300 C.3   100  LEU100      0.0019
     31  CD1        4.3750   20.2930   28.2130 C.3   100  LEU100      0.0001
     32  CD2        5.7720   22.2480   27.5350 C.3   100  LEU100      0.0001
     33  N         -7.1160   28.0830   24.8210 N.3   145  SER145     -0.1202
     34  CA        -5.7870   28.6040   25.1450 C.3   145  SER145      0.2020
     35  C         -5.5560   28.6170   26.6510 C.2   145  SER145      0.2618
     36  O         -6.4490   28.2690   27.4260 O.2   145  SER145     -0.2717
     37  CB        -5.6210   30.0160   24.5810 C.3   145  SER145      0.2103
     38  OG        -4.2610   30.4170   24.5930 O.3   145  SER145     -0.2182
     39  N         -4.3490   29.0110   27.0530 N.am  146  TYR146     -0.1975
     40  CA        -3.9820   29.1350   28.4650 C.3   146  TYR146      0.1639
     41  C         -3.2720   30.4730   28.6990 C.2   146  TYR146      0.2290
     42  O         -2.7810   31.0910   27.7540 O.2   146  TYR146     -0.2864
     43  CB        -3.0960   27.9530   28.8920 C.3   146  TYR146      0.0560
     44  CG        -2.7500   27.9330   30.3680 C.ar  146  TYR146     -0.0198
     45  CD1       -3.7490   27.9600   31.3360 C.ar  146  TYR146     -0.0009
     46  CD2       -1.4280   27.8900   30.7950 C.ar  146  TYR146     -0.0009
     47  CE1       -3.4440   27.9550   32.6920 C.ar  146  TYR146      0.0417
     48  CE2       -1.1090   27.8810   32.1510 C.ar  146  TYR146      0.0417
     49  CZ        -2.1220   27.9150   33.0970 C.ar  146  TYR146      0.1957
     50  OH        -1.8160   27.9060   34.4440 O.3   146  TYR146     -0.2866
     51  N          4.9840   31.4950   32.5030 N.3   153  ILE153     -0.1231
     52  CA         4.6460   30.5410   33.5470 C.3   153  ILE153      0.1678
     53  C          5.6920   29.4260   33.5530 C.2   153  ILE153      0.2434
     54  O          5.9680   28.8340   32.5080 O.2   153  ILE153     -0.2733
     55  CB         3.2310   29.9740   33.3230 C.3   153  ILE153      0.0265
     56  CG1        2.2290   31.1420   33.3170 C.3   153  ILE153      0.0019
     57  CG2        2.9000   28.9110   34.3760 C.3   153  ILE153      0.0020
     58  CD1        0.7750   30.7610   33.4630 C.3   153  ILE153      0.0001
     59  N          6.2840   29.1410   34.7290 N.am  154  PRO154     -0.2718
     60  CA         7.3690   28.1630   34.7800 C.3   154  PRO154      0.1535
     61  C          6.9660   26.7940   34.2450 C.2   154  PRO154      0.2599
     62  O          5.8320   26.3570   34.4460 O.2   154  PRO154     -0.2715
     63  CB         7.7020   28.0770   36.2760 C.3   154  PRO154      0.0310
     64  CG         7.2240   29.3540   36.8510 C.3   154  PRO154      0.0237
     65  CD         5.9990   29.7050   36.0630 C.3   154  PRO154      0.0939
     66  N          7.8960   26.1480   33.5450 N.am  155  ASN155     -0.1959
     67  CA         7.6950   24.8240   32.9490 C.3   155  ASN155      0.1819
     68  C          6.5600   24.7390   31.9280 C.2   155  ASN155      0.2621
     69  O          6.1290   23.6400   31.6080 O.2   155  ASN155     -0.2715
     70  CB         7.2400   23.7970   33.9950 C.3   155  ASN155      0.1195
     71  CG         8.2450   23.6140   35.1080 C.2   155  ASN155      0.2630
     72  OD1        9.4410   23.4750   34.8640 O.2   155  ASN155     -0.2716
     73  ND2        7.7630   23.6050   36.3410 N.am  155  ASN155     -0.0877
     74  N          6.0790   25.8700   31.4120 N.am  156  TYR156     -0.1974
     75  CA         5.0380   25.8390   30.3810 C.3   156  TYR156      0.1639
     76  C          5.8780   25.9900   29.1150 C.2   156  TYR156      0.2290
     77  O          5.5720   25.4000   28.0800 O.2   156  TYR156     -0.2864
     78  CB         4.0070   26.9690   30.4790 C.3   156  TYR156      0.0560
     79  CG         2.7840   26.7280   29.6160 C.ar  156  TYR156     -0.0198
     80  CD1        1.9870   25.6070   29.8120 C.ar  156  TYR156     -0.0009
     81  CD2        2.4220   27.6170   28.6120 C.ar  156  TYR156     -0.0009
     82  CE1        0.8680   25.3710   29.0290 C.ar  156  TYR156      0.0417
     83  CE2        1.2980   27.3930   27.8260 C.ar  156  TYR156      0.0417
     84  CZ         0.5290   26.2690   28.0390 C.ar  156  TYR156      0.1957
     85  OH        -0.5790   26.0430   27.2600 O.3   156  TYR156     -0.2866
     86  N          5.1420   25.8820   24.9610 N.3   159  MET159     -0.1245
     87  CA         3.7010   25.8400   24.8070 C.3   159  MET159      0.1570
     88  C          3.0870   27.2450   24.8770 C.2   159  MET159      0.2261
     89  O          2.1310   27.5460   24.1610 O.2   159  MET159     -0.2867
     90  CB         3.0980   24.9190   25.8710 C.3   159  MET159      0.0387
     91  CG         1.8740   24.1880   25.4020 C.3   159  MET159      0.0595
     92  SD         2.2280   23.1640   23.9610 S.3   159  MET159     -0.1393
     93  CE         0.5670   22.9760   23.3520 C.3   159  MET159      0.0692
     94  N          0.7320   28.9020   22.1890 N.3   163  LYS163     -0.1245
     95  CA        -0.5600   29.4610   22.5870 C.3   163  LYS163      0.1561
     96  C         -0.6920   30.9420   22.2190 C.2   163  LYS163      0.2260
     97  O         -1.7860   31.4070   21.9120 O.2   163  LYS163     -0.2867
     98  CB        -0.8010   29.2530   24.0870 C.3   163  LYS163      0.0271
     99  CG        -1.0240   27.7950   24.4910 C.3   163  LYS163      0.0035
    100  CD        -2.3250   27.2460   23.9250 C.3   163  LYS163      0.0206
    101  CE        -2.6040   25.8370   24.4040 C.3   163  LYS163      0.1093
    102  NZ        -3.8070   25.2760   23.7360 N.3   163  LYS163     -0.1314
    103  N         -6.4400   26.3970   35.0640 N.3   191  PRO191     -0.2102
    104  CA        -5.8960   25.0510   35.2680 C.3   191  PRO191      0.1504
    105  C         -6.9320   24.0030   35.7170 C.2   191  PRO191      0.2575
    106  O         -7.5980   24.1830   36.7370 O.2   191  PRO191     -0.2718
    107  CB        -4.8320   25.2620   36.3550 C.3   191  PRO191      0.0282
    108  CG        -4.5570   26.7270   36.3620 C.3   191  PRO191      0.0208
    109  CD        -5.8320   27.3780   35.9800 C.3   191  PRO191      0.0893
    110  N         -7.0510   22.9290   34.9360 N.am  192  ILE192     -0.1980
    111  CA        -7.9120   21.7790   35.2420 C.3   192  ILE192      0.1595
    112  C         -7.0650   20.5050   35.1530 C.2   192  ILE192      0.2287
    113  O         -6.1540   20.4300   34.3210 O.2   192  ILE192     -0.2864
    114  CB        -9.0880   21.6560   34.2290 C.3   192  ILE192      0.0276
    115  CG1       -9.7190   23.0270   33.9500 C.3   192  ILE192      0.0022
    116  CG2      -10.1400   20.6750   34.7460 C.3   192  ILE192      0.0022
    117  CD1      -10.7790   23.0200   32.8740 C.3   192  ILE192      0.0001
    118  N         -6.6260   17.2450   33.7310 N.3   194  THR194     -0.1203
    119  CA        -7.0660   16.4220   32.6080 C.3   194  THR194      0.1994
    120  C         -5.8810   15.5580   32.1470 C.2   194  THR194      0.2618
    121  O         -4.9110   15.3960   32.8910 O.2   194  THR194     -0.2717
    122  CB        -7.5660   17.3300   31.4650 C.3   194  THR194      0.1784
    123  OG1       -6.4900   18.1550   31.0070 O.3   194  THR194     -0.2211
    124  CG2       -8.6930   18.2250   31.9510 C.3   194  THR194      0.0376
    125  N         -5.9510   14.9990   30.9380 N.am  195  LEU195     -0.1965
    126  CA        -4.8350   14.2120   30.3920 C.3   195  LEU195      0.1728
    127  C         -3.5630   15.0470   30.1270 C.2   195  LEU195      0.2616
    128  O         -2.4590   14.4960   30.0770 O.2   195  LEU195     -0.2715
    129  CB        -5.2630   13.4740   29.1160 C.3   195  LEU195      0.0311
    130  CG        -6.2370   12.3100   29.2980 C.3   195  LEU195      0.0022
    131  CD1       -6.6500   11.8090   27.9340 C.3   195  LEU195      0.0001
    132  CD2       -5.6220   11.1750   30.0770 C.3   195  LEU195      0.0001
    133  N         -3.7140   16.3640   29.9680 N.am  196  ALA196     -0.1977
    134  CA        -2.5640   17.2630   29.7880 C.3   196  ALA196      0.1597
    135  C         -1.8760   17.6390   31.1100 C.2   196  ALA196      0.2287
    136  O         -0.8120   18.2650   31.1010 O.2   196  ALA196     -0.2864
    137  CB        -2.9850   18.5210   29.0440 C.3   196  ALA196      0.0319
    138  N         -0.5990   15.4990   33.2100 N.3   198  SER198     -0.1202
    139  CA         0.4430   14.5160   33.5100 C.3   198  SER198      0.2020
    140  C          1.3850   14.3900   32.3130 C.2   198  SER198      0.2619
    141  O          0.9330   14.5090   31.1730 O.2   198  SER198     -0.2717
    142  CB        -0.1760   13.1550   33.8360 C.3   198  SER198      0.2103
    143  OG        -0.9340   12.6150   32.7750 O.3   198  SER198     -0.2182
    144  N          2.6820   14.1620   32.5400 N.am  199  GLY199     -0.1942
    145  CA         3.3030   14.0890   33.8680 C.3   199  GLY199      0.2014
    146  C          3.9460   15.4150   34.2400 C.2   199  GLY199      0.2638
    147  O          5.1720   15.5240   34.3000 O.2   199  GLY199     -0.2714
    148  N          3.1090   16.4190   34.4940 N.am  200  ILE200     -0.1977
    149  CA         3.5590   17.7840   34.7630 C.3   200  ILE200      0.1596
    150  C          4.0540   17.9000   36.2040 C.2   200  ILE200      0.2287
    151  O          3.4320   17.3740   37.1280 O.2   200  ILE200     -0.2864
    152  CB         2.4130   18.8160   34.5210 C.3   200  ILE200      0.0276
    153  CG1        1.8480   18.6960   33.0930 C.3   200  ILE200      0.0022
    154  CG2        2.8870   20.2490   34.8010 C.3   200  ILE200      0.0022
    155  CD1        2.8670   18.9000   31.9790 C.3   200  ILE200      0.0001
    156  N          1.9970   19.6200   39.8720 N.3   203  PHE203     -0.1241
    157  CA         0.6400   19.9710   39.4360 C.3   203  PHE203      0.1605
    158  C         -0.3480   20.0030   40.6020 C.2   203  PHE203      0.2264
    159  O         -1.2640   20.8230   40.6170 O.2   203  PHE203     -0.2867
    160  CB         0.1420   19.0020   38.3580 C.3   203  PHE203      0.0534
    161  CG        -0.9630   19.5620   37.5040 C.ar  203  PHE203     -0.0203
    162  CD1       -0.6740   20.1860   36.2920 C.ar  203  PHE203     -0.0042
    163  CD2       -2.2890   19.4730   37.9080 C.ar  203  PHE203     -0.0042
    164  CE1       -1.6930   20.7110   35.4940 C.ar  203  PHE203     -0.0003
    165  CE2       -3.3140   19.9950   37.1170 C.ar  203  PHE203     -0.0003
    166  CZ        -3.0150   20.6160   35.9080 C.ar  203  PHE203     -0.0000
    167  N          0.3420   23.1730   42.6000 N.3   206  MET206     -0.1245
    168  CA         0.0320   24.3100   41.7350 C.3   206  MET206      0.1570
    169  C         -1.4620   24.6390   41.7660 C.2   206  MET206      0.2261
    170  O         -1.8320   25.8080   41.8500 O.2   206  MET206     -0.2867
    171  CB         0.5110   24.0220   40.3050 C.3   206  MET206      0.0387
    172  CG         0.1830   25.0900   39.2650 C.3   206  MET206      0.0595
    173  SD        -1.2040   24.6240   38.2110 S.3   206  MET206     -0.1393
    174  CE        -0.9760   25.7350   36.8310 C.3   206  MET206      0.0692
@<TRIPOS>BOND
     1    12    14   ar
     2    12    10   ar
     3    14    15   ar
     4     9    10    1
     5     9     6    1
     6     8     7    2
     7    10    11   ar
     8     1     2    1
     9    97    96    2
    10     5     6    1
    11     5     3   am
    12    15    13   ar
    13     2     3    1
    14     7     6    1
    15     7    16   am
    16    94    95    1
    17    96    95    1
    18     3     4    2
    19    11    13   ar
    20    95    98    1
    21    17    16    1
    22    17    18    1
    23    17    20    1
    24    93    92    1
    25    18    19    2
    26   102   101    1
    27   100   101    1
    28   100    99    1
    29    92    91    1
    30    98    99    1
    31    89    88    2
    32    37    38    1
    33    37    34    1
    34    87    88    1
    35    87    86    1
    36    87    90    1
    37    33    34    1
    38    34    35    1
    39    91    90    1
    40    21    22    1
    41    35    39   am
    42    35    36    2
    43    22    23    1
    44    39    40    1
    45    85    84    1
    46    32    30    1
    47    23    24    2
    48    42    41    2
    49    83    84   ar
    50    83    81   ar
    51   131   130    1
    52    84    82   ar
    53    77    76    2
    54    30    31    1
    55    30    29    1
    56    25    26    1
    57    40    41    1
    58    40    43    1
    59    81    79   ar
    60    43    44    1
    61    82    80   ar
    62   137   134    1
    63    76    75    1
    64   129   130    1
    65   129   126    1
    66   130   132    1
    67    29    26    1
    68    26    27    1
    69    79    80   ar
    70    79    78    1
    71   134   133    1
    72   134   135    1
    73   133   127   am
    74   128   127    2
    75   127   126    1
    76    44    46   ar
    77    44    45   ar
    78    75    78    1
    79    75    74    1
    80   126   125    1
    81    46    48   ar
    82    27    28    2
    83   125   120   am
    84   123   122    1
    85   136   135    2
    86   141   140    2
    87    45    47   ar
    88    74    68   am
    89   122   124    1
    90   122   119    1
    91    69    68    2
    92    68    67    1
    93   155   153    1
    94   120   119    1
    95   120   121    2
    96    48    49   ar
    97   140   144   am
    98   140   139    1
    99    51    52    1
   100    54    53    2
   101   144   145    1
   102   119   118    1
   103    47    49   ar
   104   143   142    1
   105   117   115    1
   106    67    66    1
   107    67    70    1
   108   153   152    1
   109    49    50    1
   110   138   139    1
   111    56    55    1
   112    56    58    1
   113    55    52    1
   114    55    57    1
   115   139   142    1
   116    66    61   am
   117    52    53    1
   118    53    59   am
   119   145   146    1
   120   115   114    1
   121    70    71    1
   122   114   116    1
   123   114   111    1
   124   146   147    2
   125   146   148   am
   126    61    62    2
   127    61    60    1
   128   113   112    2
   129   148   149    1
   130   152   149    1
   131   152   154    1
   132    59    60    1
   133    59    65    1
   134   149   150    1
   135    60    63    1
   136    72    71    2
   137   110   111    1
   138   110   105   am
   139   103   104    1
   140   103   109    1
   141    71    73   am
   142   112   111    1
   143   104   105    1
   144   104   107    1
   145   164   166   ar
   146   164   162   ar
   147   105   106    2
   148   166   165   ar
   149   109   108    1
   150    65    64    1
   151   150   151    2
   152    63    64    1
   153   162   161   ar
   154   107   108    1
   155   174   173    1
   156   165   163   ar
   157   161   163   ar
   158   161   160    1
   159   173   172    1
   160   160   157    1
   161   172   171    1
   162   157   156    1
   163   157   158    1
   164   171   168    1
   165   158   159    2
   166   168   169    1
   167   168   167    1
   168   169   170    2
