@<TRIPOS>MOLECULE
tmp/4jqeA00.pdb
 177 170 0 0 0
SMALL
GASTEIGER

@<TRIPOS>ATOM
      1  N         26.3060  -14.8030   -1.7500 N.3    44  VAL44      -0.1231
      2  CA        25.2990  -14.7540   -0.6570 C.3    44  VAL44       0.1692
      3  C         24.5580  -13.4280   -0.5700 C.2    44  VAL44       0.2593
      4  O         23.5610  -13.3060    0.1260 O.2    44  VAL44      -0.2718
      5  CB        25.9660  -14.9890    0.7120 C.3    44  VAL44       0.0266
      6  CG1       26.6390  -16.3840    0.7380 C.3    44  VAL44       0.0020
      7  CG2       26.9750  -13.8650    1.0150 C.3    44  VAL44       0.0020
      8  N         25.0450  -12.4170   -1.2420 N.am   45  GLY45      -0.1942
      9  CA        24.3190  -11.1610   -1.2760 C.3    45  GLY45       0.2014
     10  C         25.0280  -10.0950   -2.0540 C.2    45  GLY45       0.2639
     11  O         26.1810  -10.2230   -2.4740 O.2    45  GLY45      -0.2714
     12  N         24.3050   -9.0200   -2.2800 N.am   46  ARG46      -0.1963
     13  CA        24.8440   -7.8640   -2.9480 C.3    46  ARG46       0.1729
     14  C         24.6850   -6.6880   -2.0040 C.2    46  ARG46       0.2617
     15  O         23.7610   -6.6410   -1.1530 O.2    46  ARG46      -0.2715
     16  CB        24.1230   -7.6230   -4.2890 C.3    46  ARG46       0.0348
     17  CG        22.6070   -7.7780   -4.2480 C.3    46  ARG46       0.0492
     18  CD        22.2010   -9.2490   -4.2920 C.3    46  ARG46       0.2205
     19  NE        20.8010   -9.4580   -3.9220 N.pl3  46  ARG46      -0.0865
     20  CZ        20.3240   -9.3490   -2.6840 C.cat  46  ARG46       0.5346
     21  NH1       21.1120   -8.9550   -1.6850 N.pl3  46  ARG46       0.1354
     22  NH2       19.0430   -9.6080   -2.4530 N.pl3  46  ARG46       0.1354
     23  N         25.6020   -5.7500   -2.1320 N.am   47  GLY47      -0.1940
     24  CA        25.5360   -4.5610   -1.3360 C.3    47  GLY47       0.2014
     25  C         25.4030   -3.4180   -2.2910 C.2    47  GLY47       0.2639
     26  O         25.4230   -3.6060   -3.5210 O.2    47  GLY47      -0.2714
     27  N         25.2550   -2.2300   -1.7380 N.am   48  LYS48      -0.1963
     28  CA        25.2900   -0.9990   -2.5380 C.3    48  LYS48       0.1728
     29  C         26.6110   -0.7410   -3.3030 C.2    48  LYS48       0.2616
     30  O         26.5910   -0.1540   -4.3890 O.2    48  LYS48      -0.2715
     31  CB        24.9120    0.2000   -1.6580 C.3    48  LYS48       0.0311
     32  CG        25.4760    0.1550   -0.2280 C.3    48  LYS48       0.0038
     33  CD        26.9480    0.6250   -0.1280 C.3    48  LYS48       0.0206
     34  CE        27.6670    0.0850    1.1340 C.3    48  LYS48       0.1093
     35  NZ        27.0900    0.4990    2.4720 N.3    48  LYS48      -0.1314
     36  N         27.7560   -1.1800   -2.7580 N.am   49  TYR49      -0.1960
     37  CA        29.0580   -0.9470   -3.3940 C.3    49  TYR49       0.1771
     38  C         29.8940   -2.2370   -3.4710 C.2    49  TYR49       0.2620
     39  O         31.1320   -2.1960   -3.6160 O.2    49  TYR49      -0.2715
     40  CB        29.8550    0.0910   -2.5690 C.3    49  TYR49       0.0574
     41  CG        29.4280    1.5290   -2.7960 C.ar   49  TYR49      -0.0198
     42  CD1       28.7450    1.9060   -3.9570 C.ar   49  TYR49      -0.0009
     43  CD2       29.7110    2.5080   -1.8530 C.ar   49  TYR49      -0.0009
     44  CE1       28.3670    3.2210   -4.1730 C.ar   49  TYR49       0.0417
     45  CE2       29.3260    3.8320   -2.0480 C.ar   49  TYR49       0.0417
     46  CZ        28.6600    4.1760   -3.2130 C.ar   49  TYR49       0.1957
     47  OH        28.3260    5.4890   -3.4230 O.3    49  TYR49      -0.2866
     48  N         29.2340   -3.3790   -3.3650 N.am   50  SER50      -0.1950
     49  CA        29.9460   -4.6570   -3.2340 C.3    50  SER50       0.1924
     50  C         29.1130   -5.8350   -3.7200 C.2    50  SER50       0.2314
     51  O         27.9180   -5.7240   -3.9030 O.2    50  SER50      -0.2863
     52  CB        30.3340   -4.8790   -1.7650 C.3    50  SER50       0.2116
     53  OG        29.2430   -5.4300   -1.0460 O.3    50  SER50      -0.2180
     54  N         28.9750   -9.8920   -2.3640 N.3    52  VAL52      -0.1245
     55  CA        29.4040  -10.6730   -1.2250 C.3    52  VAL52       0.1561
     56  C         29.2640  -12.1550   -1.4160 C.2    52  VAL52       0.2260
     57  O         28.2050  -12.6760   -1.8680 O.2    52  VAL52      -0.2867
     58  CB        28.6840  -10.2510    0.0920 C.3    52  VAL52       0.0252
     59  CG1       29.2330  -11.0160    1.2870 C.3    52  VAL52       0.0019
     60  CG2       28.9010   -8.7860    0.3170 C.3    52  VAL52       0.0019
     61  N         33.0240  -14.8180    4.7950 N.3    65  VAL65      -0.1245
     62  CA        32.5130  -14.1430    3.6480 C.3    65  VAL65       0.1561
     63  C         33.4850  -13.1320    3.1330 C.2    65  VAL65       0.2260
     64  O         34.3620  -12.6090    3.8780 O.2    65  VAL65      -0.2867
     65  CB        31.1130  -13.5280    3.8380 C.3    65  VAL65       0.0252
     66  CG1       30.1200  -14.5080    4.4310 C.3    65  VAL65       0.0019
     67  CG2       31.2260  -12.3090    4.6800 C.3    65  VAL65       0.0019
     68  N         33.6090   -9.6860    0.8850 N.3    67  LYS67      -0.1245
     69  CA        32.8880   -8.5570    0.3260 C.3    67  LYS67       0.1561
     70  C         33.7720   -7.8570   -0.7210 C.2    67  LYS67       0.2260
     71  O         34.6770   -7.1340   -0.4100 O.2    67  LYS67      -0.2867
     72  CB        32.5240   -7.5810    1.4490 C.3    67  LYS67       0.0271
     73  CG        31.6940   -6.3520    1.0680 C.3    67  LYS67       0.0035
     74  CD        31.4210   -5.5050    2.3210 C.3    67  LYS67       0.0206
     75  CE        30.9760   -4.1050    1.9500 C.3    67  LYS67       0.1093
     76  NZ        30.5550   -3.3830    3.1850 N.3    67  LYS67      -0.1314
     77  N         29.9630   -7.6060   13.8560 N.3   132  ILE132     -0.1245
     78  CA        30.6070   -8.5090   12.9340 C.3   132  ILE132      0.1561
     79  C         32.1060   -8.2750   12.9600 C.2   132  ILE132      0.2260
     80  O         32.5290   -7.0960   13.0810 O.2   132  ILE132     -0.2867
     81  CB        30.0740   -8.3320   11.5030 C.3   132  ILE132      0.0252
     82  CG1       30.3960   -9.5410   10.6360 C.3   132  ILE132      0.0019
     83  CG2       30.5920   -7.0620   10.8600 C.3   132  ILE132      0.0019
     84  CD1       29.5170  -10.7540   10.9160 C.3   132  ILE132      0.0001
     85  N         35.2000  -11.2580    6.2660 N.3   150  PHE150     -0.1227
     86  CA        34.4850  -11.2480    7.5160 C.3   150  PHE150      0.1736
     87  C         34.1700  -12.6330    8.0170 C.2   150  PHE150      0.2598
     88  O         34.0330  -13.5810    7.2510 O.2   150  PHE150     -0.2717
     89  CB        33.1220  -10.5570    7.3880 C.3   150  PHE150      0.0547
     90  CG        33.1640   -9.1080    7.0570 C.ar  150  PHE150     -0.0202
     91  CD1       33.1680   -8.1550    8.0370 C.ar  150  PHE150     -0.0042
     92  CD2       33.1310   -8.6730    5.7080 C.ar  150  PHE150     -0.0042
     93  CE1       33.1800   -6.8010    7.7390 C.ar  150  PHE150     -0.0003
     94  CE2       33.1350   -7.3230    5.4080 C.ar  150  PHE150     -0.0003
     95  CZ        33.1750   -6.3720    6.4190 C.ar  150  PHE150     -0.0000
     96  N         33.9060  -12.6840    9.3100 N.am  151  GLU151     -0.1920
     97  CA        33.1740  -13.7590    9.9630 C.3   151  GLU151      0.1949
     98  C         31.9100  -14.0780    9.1510 C.2   151  GLU151      0.2659
     99  O         31.2160  -13.1660    8.7180 O.2   151  GLU151     -0.2711
    100  CB        32.8070  -13.1940   11.3730 C.2   151  GLU151      0.0111
    101  CG        31.6690  -13.7620   12.1370 C.2   151  GLU151      0.0838
    102  CD        31.3760  -13.1400   13.4870 C.2   151  GLU151      0.3877
    103  OE1       31.6710  -11.9310   13.7640 O.co2 151  GLU151     -0.2406
    104  OE2       30.7960  -13.8420   14.2910 O.co2 151  GLU151     -0.2406
    105  N         31.6290  -15.3350    8.9500 N.am  152  TYR152     -0.1957
    106  CA        30.3560  -15.8110    8.3190 C.3   152  TYR152      0.1771
    107  C         29.2630  -15.9750    9.3600 C.2   152  TYR152      0.2619
    108  O         29.5000  -16.6680   10.4120 O.2   152  TYR152     -0.2715
    109  CB        30.5830  -17.1930    7.7070 C.3   152  TYR152      0.0574
    110  CG        29.3590  -17.8550    7.1820 C.ar  152  TYR152     -0.0198
    111  CD1       28.8490  -17.4940    5.9790 C.ar  152  TYR152     -0.0009
    112  CD2       28.6750  -18.8160    7.9210 C.ar  152  TYR152     -0.0009
    113  CE1       27.6980  -18.0790    5.4660 C.ar  152  TYR152      0.0417
    114  CE2       27.5140  -19.4170    7.4230 C.ar  152  TYR152      0.0417
    115  CZ        27.0400  -19.0300    6.1970 C.ar  152  TYR152      0.1957
    116  OH        25.9270  -19.5500    5.6390 O.3   152  TYR152     -0.2866
    117  N         28.0540  -15.4720    9.0490 N.am  153  VAL153     -0.1977
    118  CA        26.9050  -15.7610    9.8890 C.3   153  VAL153      0.1596
    119  C         25.8420  -16.5030    9.0640 C.2   153  VAL153      0.2287
    120  O         25.5820  -16.1040    7.9520 O.2   153  VAL153     -0.2864
    121  CB        26.2760  -14.5200   10.4520 C.3   153  VAL153      0.0276
    122  CG1       25.1420  -14.9080   11.4020 C.3   153  VAL153      0.0022
    123  CG2       27.2980  -13.6780   11.1710 C.3   153  VAL153      0.0022
    124  N         22.6450  -16.7890    8.2770 N.3   155  ASN155     -0.1240
    125  CA        21.4540  -15.8980    8.4020 C.3   155  ASN155      0.1653
    126  C         20.1970  -16.3850    7.6800 C.2   155  ASN155      0.2266
    127  O         20.3010  -17.0970    6.6610 O.2   155  ASN155     -0.2867
    128  CB        21.8500  -14.5210    7.8020 C.3   155  ASN155      0.1155
    129  CG        20.7920  -13.4620    7.9460 C.2   155  ASN155      0.2627
    130  OD1       20.3170  -13.1580    9.0390 O.2   155  ASN155     -0.2716
    131  ND2       20.3990  -12.8770    6.8560 N.am  155  ASN155     -0.0877
    132  N         17.8970   -5.6110    7.3920 N.3   197  HIS197     -0.1226
    133  CA        18.7970   -6.1810    6.4060 C.3   197  HIS197      0.1752
    134  C         20.2420   -6.1480    6.8720 C.2   197  HIS197      0.2596
    135  O         21.0650   -6.8890    6.3550 O.2   197  HIS197     -0.2718
    136  CB        18.6350   -5.4660    5.0270 C.3   197  HIS197      0.0759
    137  CG        17.8370   -6.2470    4.0230 C.ar  197  HIS197      0.0818
    138  ND1       17.9740   -7.6170    3.8520 N.ar  197  HIS197     -0.2268
    139  CD2       16.8930   -5.8530    3.1320 C.ar  197  HIS197      0.1154
    140  CE1       17.1560   -8.0260    2.8960 C.ar  197  HIS197      0.1986
    141  NE2       16.4840   -6.9800    2.4440 N.ar  197  HIS197     -0.2212
    142  N         20.5460   -5.2770    7.8700 N.am  198  ASN198     -0.1974
    143  CA        21.9090   -5.1500    8.3970 C.3   198  ASN198      0.1688
    144  C         22.1160   -5.8520    9.7350 C.2   198  ASN198      0.2292
    145  O         23.1660   -5.6660   10.4140 O.2   198  ASN198     -0.2864
    146  CB        22.3350   -3.6560    8.4690 C.3   198  ASN198      0.1181
    147  CG        22.4740   -3.0320    7.0720 C.2   198  ASN198      0.2629
    148  OD1       22.5890   -3.7710    6.0620 O.2   198  ASN198     -0.2716
    149  ND2       22.5220   -1.7270    6.9920 N.am  198  ASN198     -0.0877
    150  N         22.2670   -9.6020   11.1200 N.3   200  MET200     -0.1245
    151  CA        22.3970  -11.0540   10.7570 C.3   200  MET200      0.1570
    152  C         21.9820  -11.8420   11.9980 C.2   200  MET200      0.2261
    153  O         22.4560  -11.5680   13.1230 O.2   200  MET200     -0.2867
    154  CB        23.8620  -11.4440   10.3880 C.3   200  MET200      0.0387
    155  CG        24.4930  -10.7980    9.1500 C.3   200  MET200      0.0595
    156  SD        23.5900  -11.2040    7.6180 S.3   200  MET200     -0.1393
    157  CE        22.3140   -9.9600    7.5730 C.3   200  MET200      0.0692
    158  N         25.9450   -5.8190   11.0190 N.3   211  ILE211     -0.1231
    159  CA        26.8420   -5.7340    9.8580 C.3   211  ILE211      0.1692
    160  C         26.6800   -4.4170    9.1180 C.2   211  ILE211      0.2592
    161  O         25.9510   -3.5310    9.5730 O.2   211  ILE211     -0.2718
    162  CB        26.5700   -6.9010    8.9070 C.3   211  ILE211      0.0266
    163  CG1       25.2050   -6.7900    8.2960 C.3   211  ILE211      0.0019
    164  CG2       26.7860   -8.2660    9.5920 C.3   211  ILE211      0.0020
    165  CD1       25.1700   -7.5020    6.9470 C.3   211  ILE211      0.0001
    166  N         27.3750   -4.2920    7.9690 N.am  212  ASP212     -0.1974
    167  CA        27.3380   -3.1200    7.0650 C.3   212  ASP212      0.1709
    168  C         27.7090   -1.8250    7.7640 C.2   212  ASP212      0.2293
    169  O         26.8610   -0.9680    7.9960 O.2   212  ASP212     -0.2864
    170  CB        26.0140   -3.0360    6.3450 C.3   212  ASP212      0.1436
    171  CG        26.0180   -2.0390    5.1830 C.2   212  ASP212      0.3671
    172  OD1       27.0690   -1.4380    4.8660 O.co2 212  ASP212     -0.2456
    173  OD2       24.9640   -1.8360    4.5920 O.co2 212  ASP212     -0.2456
    174  N         29.4990    0.4370    6.3310 N.3   214  GLY214     -0.1225
    175  CA        29.8670    1.3690    5.2130 C.3   214  GLY214      0.1811
    176  C         29.3540    2.8000    5.3760 C.2   214  GLY214      0.2280
    177  O         29.9030    3.7410    4.7730 O.2   214  GLY214     -0.2866
@<TRIPOS>BOND
     1    30    29    2
     2    18    17    1
     3    18    19    1
     4    16    17    1
     5    16    13    1
     6    44    42   ar
     7    44    46   ar
     8    42    41   ar
     9    19    20    2
    10    51    50    2
    11    50    49    1
    12    39    38    2
    13    26    25    2
    14    38    37    1
    15    38    48   am
    16    47    46    1
    17    37    36    1
    18    37    40    1
    19    48    49    1
    20    29    36   am
    21    29    28    1
    22    49    52    1
    23    46    45   ar
    24    13    12    1
    25    13    14    1
    26    41    40    1
    27    41    43   ar
    28    20    22    1
    29    20    21    1
    30    28    27    1
    31    28    31    1
    32    11    10    2
    33    54    55    1
    34    25    27   am
    35    25    24    1
    36    12    10   am
    37    23    14   am
    38    23    24    1
    39    10     9    1
    40    45    43   ar
    41    14    15    2
    42    57    56    2
    43    52    53    1
    44     1     2    1
    45    31    32    1
    46    56    55    1
    47     9     8    1
    48     8     3   am
    49    55    58    1
    50    70    71    2
    51    70    69    1
    52     2     3    1
    53     2     5    1
    54     3     4    2
    55    32    33    1
    56    33    34    1
    57    58    60    1
    58    58    59    1
    59    69    68    1
    60    69    72    1
    61     5     6    1
    62     5     7    1
    63    73    72    1
    64    73    74    1
    65    34    35    1
    66    75    74    1
    67    75    76    1
    68   141   140   ar
    69   141   139   ar
    70   140   138   ar
    71   139   137   ar
    72    63    62    1
    73    63    64    2
    74    62    65    1
    75    62    61    1
    76    65    66    1
    77    65    67    1
    78   138   137   ar
    79   137   136    1
    80   173   171   ar
    81   177   176    2
    82   172   171   ar
    83   136   133    1
    84   171   170    1
    85   175   176    1
    86   175   174    1
    87    94    92   ar
    88    94    95   ar
    89   113   111   ar
    90   113   115   ar
    91   116   115    1
    92    92    90   ar
    93   111   110   ar
    94   148   147    2
    95   115   114   ar
    96    85    86    1
    97   170   167    1
    98   135   134    2
    99   133   134    1
   100   133   132    1
   101    95    93   ar
   102   127   126    2
   103   131   129   am
   104   134   142   am
   105   165   163    1
   106   149   147   am
   107    90    89    1
   108    90    91   ar
   109   167   168    1
   110   167   166    1
   111   147   146    1
   112   110   109    1
   113   110   112   ar
   114    88    87    2
   115    89    86    1
   116   114   112   ar
   117    86    87    1
   118   157   156    1
   119   156   155    1
   120   126   125    1
   121   109   106    1
   122    93    91   ar
   123   168   169    2
   124   128   129    1
   125   128   125    1
   126   142   143    1
   127   129   130    2
   128   120   119    2
   129   166   160   am
   130    87    96   am
   131   124   125    1
   132   163   162    1
   133   106   105    1
   134   106   107    1
   135   143   146    1
   136   143   144    1
   137    99    98    2
   138   162   164    1
   139   162   159    1
   140   105    98   am
   141   117   107   am
   142   117   118    1
   143   119   118    1
   144   160   161    2
   145   160   159    1
   146   155   154    1
   147    98    97    1
   148    96    97    1
   149   107   108    2
   150   144   145    2
   151   159   158    1
   152   118   121    1
   153    97   100    1
   154   154   151    1
   155   121   123    1
   156   121   122    1
   157    82    84    1
   158    82    81    1
   159   151   150    1
   160   151   152    1
   161    83    81    1
   162   100   101    2
   163    81    78    1
   164   152   153    2
   165   101   102    1
   166    78    79    1
   167    78    77    1
   168    79    80    2
   169   102   103   ar
   170   102   104   ar
