@<TRIPOS>MOLECULE
tmp/4jqkA01.pdb
 110 107 0 0 0
SMALL
GASTEIGER

@<TRIPOS>ATOM
      1  N        -15.1110    7.5100    1.6780 N.3   172  HIS172     -0.1226
      2  CA       -15.7510    6.5810    2.5850 C.3   172  HIS172      0.1752
      3  C        -17.1330    6.9930    2.9750 C.2   172  HIS172      0.2596
      4  O        -17.7690    6.2340    3.7420 O.2   172  HIS172     -0.2718
      5  CB       -14.8630    6.2390    3.7880 C.3   172  HIS172      0.0759
      6  CG       -13.7790    5.2830    3.4690 C.ar  172  HIS172      0.0818
      7  ND1      -12.8380    4.8550    4.3620 N.ar  172  HIS172     -0.2268
      8  CD2      -13.5480    4.6110    2.3170 C.ar  172  HIS172      0.1154
      9  CE1      -12.1140    3.8950    3.7600 C.ar  172  HIS172      0.1986
     10  NE2      -12.4960    3.7530    2.5240 N.ar  172  HIS172     -0.2212
     11  N        -17.6710    8.1090    2.5210 N.am  173  ALA173     -0.1966
     12  CA       -19.1170    8.3190    2.5750 C.3   173  ALA173      0.1728
     13  C        -19.8670    7.3340    1.7320 C.2   173  ALA173      0.2616
     14  O        -21.0930    7.1110    1.9440 O.2   173  ALA173     -0.2715
     15  CB       -19.4540    9.7370    2.0900 C.3   173  ALA173      0.0334
     16  N        -19.2110    6.7560    0.7410 N.am  174  LEU174     -0.1963
     17  CA       -19.8580    5.9290   -0.2800 C.3   174  LEU174      0.1728
     18  C        -19.8810    4.4600    0.1110 C.2   174  LEU174      0.2617
     19  O        -18.9160    3.9170    0.6180 O.2   174  LEU174     -0.2715
     20  CB       -19.0920    6.0000   -1.5690 C.3   174  LEU174      0.0311
     21  CG       -18.9390    7.4240   -2.1730 C.3   174  LEU174      0.0022
     22  CD1      -17.9620    7.3680   -3.3150 C.3   174  LEU174      0.0001
     23  CD2      -20.2890    7.9880   -2.6310 C.3   174  LEU174      0.0001
     24  N        -20.9850    3.8020   -0.2400 N.am  175  GLY175     -0.1940
     25  CA       -20.9950    2.3110   -0.2290 C.3   175  GLY175      0.2014
     26  C        -20.8810    1.7800    1.1830 C.2   175  GLY175      0.2639
     27  O        -21.3150    2.4030    2.1640 O.2   175  GLY175     -0.2714
     28  N        -20.1920    0.6440    1.2630 N.am  176  LYS176     -0.1963
     29  CA       -20.1000   -0.0810    2.5140 C.3   176  LYS176      0.1728
     30  C        -18.9640   -1.0850    2.5720 C.2   176  LYS176      0.2616
     31  O        -18.3680   -1.4560    1.5810 O.2   176  LYS176     -0.2715
     32  CB       -21.4370   -0.7830    2.8540 C.3   176  LYS176      0.0311
     33  CG       -21.8350   -1.9080    1.9220 C.3   176  LYS176      0.0038
     34  CD       -23.1860   -2.4960    2.3940 C.3   176  LYS176      0.0206
     35  CE       -23.7300   -3.6160    1.5120 C.3   176  LYS176      0.1093
     36  NZ       -25.1750   -4.0070    1.8470 N.3   176  LYS176     -0.1314
     37  N        -18.7210   -1.5290    3.8020 N.am  177  THR177     -0.1951
     38  CA       -17.8700   -2.6760    4.0000 C.3   177  THR177      0.1897
     39  C        -18.7500   -3.9370    3.9540 C.2   177  THR177      0.2313
     40  O        -19.9200   -3.8780    4.1630 O.2   177  THR177     -0.2863
     41  CB       -17.0990   -2.5870    5.3320 C.3   177  THR177      0.1794
     42  OG1      -18.0110   -2.7030    6.4280 O.3   177  THR177     -0.2208
     43  CG2      -16.3510   -1.2520    5.4430 C.3   177  THR177      0.0378
     44  N        -24.5000    0.3680    6.0020 N.3   188  GLY188     -0.1225
     45  CA       -24.4600    1.5720    5.1310 C.3   188  GLY188      0.1811
     46  C        -25.0250    1.4390    3.7260 C.2   188  GLY188      0.2280
     47  O        -25.0230    0.3680    3.1580 O.2   188  GLY188     -0.2866
     48  N        -19.0970   12.0670    5.3240 N.3   197  PHE197     -0.1241
     49  CA       -18.1410   11.2560    6.1270 C.3   197  PHE197      0.1605
     50  C        -17.6300   12.0840    7.3110 C.2   197  PHE197      0.2264
     51  O        -17.5210   11.6340    8.4120 O.2   197  PHE197     -0.2867
     52  CB       -17.0060   10.8420    5.2110 C.3   197  PHE197      0.0534
     53  CG       -15.8110   10.1950    5.8300 C.ar  197  PHE197     -0.0203
     54  CD1      -15.8320    8.8420    6.2410 C.ar  197  PHE197     -0.0042
     55  CD2      -14.6230   10.8970    6.0160 C.ar  197  PHE197     -0.0042
     56  CE1      -14.7110    8.2410    6.7100 C.ar  197  PHE197     -0.0003
     57  CE2      -13.5040   10.2490    6.4980 C.ar  197  PHE197     -0.0003
     58  CZ       -13.5790    8.9070    6.9070 C.ar  197  PHE197     -0.0000
     59  N        -20.3690   12.9160    9.8740 N.3   200  ASN200     -0.1240
     60  CA       -20.6430   11.7070   10.6840 C.3   200  ASN200      0.1653
     61  C        -19.5350   11.4770   11.7130 C.2   200  ASN200      0.2266
     62  O        -19.7750   11.2220   12.8790 O.2   200  ASN200     -0.2867
     63  CB       -20.8080   10.5330    9.7450 C.3   200  ASN200      0.1155
     64  CG       -22.1350   10.5470    9.0000 C.2   200  ASN200      0.2627
     65  OD1      -23.0680   11.2220    9.4010 O.2   200  ASN200     -0.2716
     66  ND2      -22.2130    9.8070    7.9330 N.am  200  ASN200     -0.0877
     67  N        -24.3670    3.6830   11.4960 N.3   224  TYR224     -0.1227
     68  CA       -23.1750    3.9790   10.7160 C.3   224  TYR224      0.1736
     69  C        -21.9720    3.2690   11.3190 C.2   224  TYR224      0.2595
     70  O        -21.9870    2.8910   12.4980 O.2   224  TYR224     -0.2718
     71  CB       -22.9140    5.4700   10.6590 C.3   224  TYR224      0.0548
     72  CG       -24.0940    6.2700   10.1650 C.ar  224  TYR224     -0.0200
     73  CD1      -24.2730    7.5750   10.5840 C.ar  224  TYR224     -0.0009
     74  CD2      -25.0350    5.7120    9.2960 C.ar  224  TYR224     -0.0009
     75  CE1      -25.3440    8.3300   10.1300 C.ar  224  TYR224      0.0417
     76  CE2      -26.1010    6.4470    8.8410 C.ar  224  TYR224      0.0417
     77  CZ       -26.2600    7.7530    9.2740 C.ar  224  TYR224      0.1957
     78  OH       -27.3330    8.5090    8.8200 O.3   224  TYR224     -0.2866
     79  N        -20.9200    3.1330   10.5130 N.am  225  MET225     -0.1965
     80  CA       -19.6900    2.5250   10.9730 C.3   225  MET225      0.1736
     81  C        -18.5070    3.3110   10.3880 C.2   225  MET225      0.2616
     82  O        -18.6070    3.9560    9.3150 O.2   225  MET225     -0.2715
     83  CB       -19.5780    1.0000   10.6520 C.3   225  MET225      0.0427
     84  CG       -19.5390    0.6330    9.2300 C.3   225  MET225      0.0599
     85  SD       -17.8950    0.8610    8.4480 S.3   225  MET225     -0.1393
     86  CE       -16.9880   -0.5530    9.0780 C.3   225  MET225      0.0692
     87  N        -17.4060    3.2070   11.1030 N.am  226  MET226     -0.1963
     88  CA       -16.0960    3.7360   10.7260 C.3   226  MET226      0.1736
     89  C        -15.0320    2.6780   10.9690 C.2   226  MET226      0.2616
     90  O        -15.0470    1.9920   12.0140 O.2   226  MET226     -0.2715
     91  CB       -15.7490    4.9780   11.5020 C.3   226  MET226      0.0427
     92  CG       -16.6290    6.1460   11.1830 C.3   226  MET226      0.0599
     93  SD       -16.3280    6.8840    9.5510 S.3   226  MET226     -0.1393
     94  CE       -17.6620    8.0850    9.4610 C.3   226  MET226      0.0692
     95  N        -14.1260    2.5530   10.0290 N.am  227  LEU227     -0.1977
     96  CA       -12.9870    1.7200   10.2600 C.3   227  LEU227      0.1596
     97  C        -12.1120    2.3830   11.3090 C.2   227  LEU227      0.2287
     98  O        -12.1430    3.6050   11.4870 O.2   227  LEU227     -0.2864
     99  CB       -12.2450    1.5700    8.9660 C.3   227  LEU227      0.0297
    100  CG       -13.0970    1.0040    7.8340 C.3   227  LEU227      0.0022
    101  CD1      -12.4260    1.2740    6.4930 C.3   227  LEU227      0.0001
    102  CD2      -13.3640   -0.5480    8.0320 C.3   227  LEU227      0.0001
    103  N        -10.4630    5.2690    9.8830 N.3   230  ASP230     -0.1239
    104  CA       -11.3500    6.3910    9.5190 C.3   230  ASP230      0.1674
    105  C        -11.4180    7.1860   10.7800 C.2   230  ASP230      0.2266
    106  O        -11.3270    8.4340   10.7770 O.2   230  ASP230     -0.2867
    107  CB       -12.7360    5.8890    9.0800 C.3   230  ASP230      0.1410
    108  CG       -12.7290    5.2580    7.7370 C.2   230  ASP230      0.3668
    109  OD1      -11.8950    5.6510    6.8890 O.co2 230  ASP230     -0.2456
    110  OD2      -13.6500    4.3730    7.5000 O.co2 230  ASP230     -0.2456
@<TRIPOS>BOND
     1    22    21    1
     2    23    21    1
     3    21    20    1
     4    20    17    1
     5    17    18    1
     6    17    16    1
     7    24    25    1
     8    24    18   am
     9    25    26    1
    10    18    19    2
    11    16    13   am
    12    26    28   am
    13    26    27    2
    14    28    29    1
    15    35    36    1
    16    35    34    1
    17    31    30    2
    18     1     2    1
    19    13    14    2
    20    13    12    1
    21    33    34    1
    22    33    32    1
    23    15    12    1
    24     8    10   ar
    25     8     6   ar
    26    29    30    1
    27    29    32    1
    28    11    12    1
    29    11     3   am
    30    10     9   ar
    31    30    37   am
    32     2     3    1
    33     2     5    1
    34     3     4    2
    35    47    46    2
    36     6     5    1
    37     6     7   ar
    38    46    45    1
    39     9     7   ar
    40    37    38    1
    41    39    38    1
    42    39    40    2
    43    38    41    1
    44    45    44    1
    45    52    53    1
    46    52    49    1
    47    48    49    1
    48    41    43    1
    49    41    42    1
    50    53    55   ar
    51    53    54   ar
    52    55    57   ar
    53    49    50    1
    54    54    56   ar
    55   101   100    1
    56    57    58   ar
    57    56    58   ar
    58   109   108   ar
    59    50    51    2
    60   110   108   ar
    61   108   107    1
    62   100   102    1
    63   100    99    1
    64    66    64   am
    65    85    86    1
    66    85    84    1
    67    78    77    1
    68    76    77   ar
    69    76    74   ar
    70    99    96    1
    71    64    65    2
    72    64    63    1
    73   107   104    1
    74    84    83    1
    75    77    75   ar
    76    74    72   ar
    77    82    81    2
    78    94    93    1
    79   104   103    1
    80   104   105    1
    81    93    92    1
    82    63    60    1
    83    59    60    1
    84    95    96    1
    85    95    89   am
    86    75    73   ar
    87    72    73   ar
    88    72    71    1
    89    96    97    1
    90    81    80    1
    91    81    87   am
    92    79    80    1
    93    79    69   am
    94    83    80    1
    95    71    68    1
    96    60    61    1
    97    68    69    1
    98    68    67    1
    99    88    89    1
   100    88    87    1
   101    88    91    1
   102   106   105    2
   103    89    90    2
   104    92    91    1
   105    97    98    2
   106    69    70    2
   107    61    62    2
