@<TRIPOS>MOLECULE
tmp/4jqlA00.pdb
 174 162 0 0 0
SMALL
GASTEIGER

@<TRIPOS>ATOM
      1  N         43.6150    6.7960   54.8490 N.3    39  LEU39      -0.1245
      2  CA        43.2400    7.2990   56.1650 C.3    39  LEU39       0.1561
      3  C         43.0780    8.8150   56.1590 C.2    39  LEU39       0.2260
      4  O         42.1570    9.3470   56.7900 O.2    39  LEU39      -0.2867
      5  CB        44.2360    6.8430   57.2450 C.3    39  LEU39       0.0270
      6  CG        44.2550    5.3120   57.3780 C.3    39  LEU39       0.0019
      7  CD1       45.3210    4.8640   58.3930 C.3    39  LEU39       0.0001
      8  CD2       42.8770    4.7950   57.7870 C.3    39  LEU39       0.0001
      9  N         42.2510   10.6400   53.5710 N.3    41  SER41      -0.1202
     10  CA        41.0220   10.9010   52.8260 C.3    41  SER41       0.2020
     11  C         39.7690   10.7110   53.6870 C.2    41  SER41       0.2619
     12  O         38.7860   11.4560   53.5630 O.2    41  SER41      -0.2717
     13  CB        40.9450    9.9910   51.6050 C.3    41  SER41       0.2103
     14  OG        39.8170   10.3130   50.8130 O.3    41  SER41      -0.2182
     15  N         39.7930    9.7070   54.5500 N.am   42  ASN42      -0.1960
     16  CA        38.6740    9.4800   55.4530 C.3    42  ASN42       0.1819
     17  C         38.5700   10.6260   56.4510 C.2    42  ASN42       0.2622
     18  O         37.4720   11.0820   56.7670 O.2    42  ASN42      -0.2715
     19  CB        38.8220    8.1390   56.1650 C.3    42  ASN42       0.1195
     20  CG        38.6350    6.9720   55.2290 C.2    42  ASN42       0.2630
     21  OD1       38.2600    7.1460   54.0600 O.2    42  ASN42      -0.2716
     22  ND2       38.8750    5.7650   55.7360 N.am   42  ASN42      -0.0877
     23  N         39.7190   11.1010   56.9310 N.am   43  SER43      -0.1950
     24  CA        39.7610   12.2590   57.8400 C.3    43  SER43       0.1924
     25  C         39.1960   13.5120   57.1560 C.2    43  SER43       0.2314
     26  O         38.3800   14.2410   57.7440 O.2    43  SER43      -0.2863
     27  CB        41.1980   12.5350   58.3440 C.3    43  SER43       0.2116
     28  OG        41.6400   11.5070   59.2370 O.3    43  SER43      -0.2180
     29  N         37.0510   13.6200   54.8040 N.3    45  ASP45      -0.1225
     30  CA        35.6000   13.4990   54.6960 C.3    45  ASP45       0.1805
     31  C         34.9160   13.7680   56.0360 C.2    45  ASP45       0.2597
     32  O         33.8550   14.4020   56.0830 O.2    45  ASP45      -0.2718
     33  CB        35.1910   12.1380   54.1360 C.3    45  ASP45       0.1424
     34  CG        35.5310   11.9940   52.6690 C.2    45  ASP45       0.3668
     35  OD1       35.4480   10.8750   52.1500 O.co2  45  ASP45      -0.2456
     36  OD2       35.8930   13.0010   52.0300 O.co2  45  ASP45      -0.2456
     37  N         35.5200   13.2910   57.1230 N.am   46  ALA46      -0.1979
     38  CA        34.9870   13.5710   58.4540 C.3    46  ALA46       0.1597
     39  C         35.0510   15.0610   58.7670 C.2    46  ALA46       0.2287
     40  O         34.1710   15.6100   59.4380 O.2    46  ALA46      -0.2864
     41  CB        35.7660   12.7830   59.5190 C.3    46  ALA46       0.0319
     42  N         32.3260   16.9050   56.9580 N.3    49  LYS49      -0.1245
     43  CA        31.0420   16.7020   57.6120 C.3    49  LYS49       0.1561
     44  C         30.7910   17.6380   58.7900 C.2    49  LYS49       0.2260
     45  O         29.7210   18.2400   58.8790 O.2    49  LYS49      -0.2867
     46  CB        30.8330   15.2270   57.9690 C.3    49  LYS49       0.0271
     47  CG        30.5280   14.4140   56.7120 C.3    49  LYS49       0.0035
     48  CD        30.5910   12.9160   56.9300 C.3    49  LYS49       0.0206
     49  CE        30.4520   12.1860   55.6000 C.3    49  LYS49       0.1093
     50  NZ        30.6080   10.7110   55.7300 N.3    49  LYS49      -0.1314
     51  N         42.3090   13.3750   63.5310 N.3    84  ASP84      -0.1239
     52  CA        41.5790   14.4880   62.9390 C.3    84  ASP84       0.1674
     53  C         40.5800   15.0620   63.9270 C.2    84  ASP84       0.2266
     54  O         40.2100   14.4110   64.8970 O.2    84  ASP84      -0.2867
     55  CB        40.8680   14.0650   61.6350 C.3    84  ASP84       0.1410
     56  CG        39.7580   13.0430   61.8650 C.2    84  ASP84       0.3668
     57  OD1       38.7300   13.3960   62.4750 O.co2  84  ASP84      -0.2456
     58  OD2       39.8930   11.8820   61.4220 O.co2  84  ASP84      -0.2456
     59  N         34.0390   14.9780   62.3740 N.3    87  ILE87      -0.1231
     60  CA        32.7530   14.8150   63.0360 C.3    87  ILE87       0.1692
     61  C         32.7990   13.7290   64.1180 C.2    87  ILE87       0.2593
     62  O         32.0220   13.7570   65.0730 O.2    87  ILE87      -0.2718
     63  CB        31.6320   14.5200   61.9980 C.3    87  ILE87       0.0266
     64  CG1       30.2550   14.5500   62.6450 C.3    87  ILE87       0.0019
     65  CG2       31.8520   13.1870   61.2990 C.3    87  ILE87       0.0020
     66  CD1       29.6730   15.9080   62.6580 C.3    87  ILE87       0.0001
     67  N         33.7420   12.8010   63.9960 N.am   88  GLY88      -0.1942
     68  CA        33.8270   11.6980   64.9350 C.3    88  GLY88       0.2014
     69  C         32.7140   10.6820   64.7040 C.2    88  GLY88       0.2638
     70  O         31.9030   10.8220   63.7880 O.2    88  GLY88      -0.2714
     71  N         32.6730    9.6470   65.5380 N.am   89  MET89      -0.1976
     72  CA        31.6850    8.5760   65.3880 C.3    89  MET89       0.1605
     73  C         31.0600    8.2030   66.7200 C.2    89  MET89       0.2287
     74  O         31.7440    8.1430   67.7420 O.2    89  MET89      -0.2864
     75  CB        32.3460    7.3270   64.7910 C.3    89  MET89       0.0413
     76  CG        32.7350    7.4840   63.3390 C.3    89  MET89       0.0598
     77  SD        33.6220    6.0360   62.7230 S.3    89  MET89      -0.1393
     78  CE        35.2680    6.3310   63.3320 C.3    89  MET89       0.0692
     79  N         27.8430    4.2150   65.2800 N.3    93  ASP93      -0.1239
     80  CA        28.6370    4.4250   64.0640 C.3    93  ASP93       0.1674
     81  C         29.8060    3.4470   63.9710 C.2    93  ASP93       0.2266
     82  O         30.0440    2.8560   62.9180 O.2    93  ASP93      -0.2867
     83  CB        29.1940    5.8510   64.0110 C.3    93  ASP93       0.1410
     84  CG        28.1430    6.8940   63.7030 C.2    93  ASP93       0.3668
     85  OD1       27.0460    6.5520   63.1980 O.co2  93  ASP93      -0.2456
     86  OD2       28.4170    8.0890   63.9640 O.co2  93  ASP93      -0.2456
     87  N         29.7290    0.8030   61.0620 N.3    97  ASN97      -0.1225
     88  CA        30.6120    1.1640   59.9510 C.3    97  ASN97       0.1785
     89  C         32.0140    0.5800   59.9670 C.2    97  ASN97       0.2597
     90  O         32.6790    0.5550   58.9240 O.2    97  ASN97      -0.2718
     91  CB        30.6810    2.6800   59.7800 C.3    97  ASN97       0.1169
     92  CG        29.4130    3.2470   59.1720 C.2    97  ASN97       0.2627
     93  OD1       29.1850    3.1350   57.9680 O.2    97  ASN97      -0.2716
     94  ND2       28.5790    3.8570   60.0050 N.am   97  ASN97      -0.0877
     95  N         32.4620    0.1160   61.1300 N.am   98  LEU98      -0.1980
     96  CA        33.7710   -0.5190   61.2330 C.3    98  LEU98       0.1596
     97  C         33.6730   -2.0050   61.5530 C.2    98  LEU98       0.2287
     98  O         34.4460   -2.5250   62.3560 O.2    98  LEU98      -0.2864
     99  CB        34.6720    0.1840   62.2590 C.3    98  LEU98       0.0297
    100  CG        35.4670    1.3890   61.7540 C.3    98  LEU98       0.0022
    101  CD1       36.4910    1.8830   62.7840 C.3    98  LEU98       0.0001
    102  CD2       36.1650    1.0090   60.4810 C.3    98  LEU98       0.0001
    103  N         29.4690   -4.1670   53.0200 N.3   103  LYS103     -0.1245
    104  CA        29.6600   -3.0750   52.0640 C.3   103  LYS103      0.1561
    105  C         29.5170   -3.6070   50.6400 C.2   103  LYS103      0.2260
    106  O         29.9610   -4.7180   50.3400 O.2   103  LYS103     -0.2867
    107  CB        31.0310   -2.4220   52.2590 C.3   103  LYS103      0.0271
    108  CG        31.3250   -2.0140   53.7040 C.3   103  LYS103      0.0035
    109  CD        32.1560   -0.7460   53.7650 C.3   103  LYS103      0.0206
    110  CE        31.2670    0.4570   53.9930 C.3   103  LYS103      0.1093
    111  NZ        31.9620    1.7310   53.6860 N.3   103  LYS103     -0.1314
    112  N         40.0630    2.3590   47.8470 N.3   123  GLY123     -0.1225
    113  CA        39.2060    3.4540   48.2620 C.3   123  GLY123      0.1811
    114  C         37.9730    3.6030   47.3880 C.2   123  GLY123      0.2280
    115  O         36.9180    4.0480   47.8590 O.2   123  GLY123     -0.2866
    116  N         35.0600    1.6520   48.7410 N.3   126  GLY126     -0.1210
    117  CA        34.4820    2.0640   50.0140 C.3   126  GLY126      0.1956
    118  C         34.9920    1.3220   51.2390 C.2   126  GLY126      0.2612
    119  O         34.3970    1.4040   52.3170 O.2   126  GLY126     -0.2717
    120  N         36.0980    0.6020   51.0800 N.am  127  VAL127     -0.1965
    121  CA        36.6800   -0.1770   52.1740 C.3   127  VAL127      0.1727
    122  C         38.1390    0.1860   52.4090 C.2   127  VAL127      0.2617
    123  O         38.9110   -0.6170   52.9190 O.2   127  VAL127     -0.2715
    124  CB        36.5420   -1.6900   51.9350 C.3   127  VAL127      0.0290
    125  CG1       35.0710   -2.1030   52.0610 C.3   127  VAL127      0.0023
    126  CG2       37.0800   -2.0720   50.5460 C.3   127  VAL127      0.0023
    127  N         38.4940    1.4220   52.0600 N.am  128  GLY128     -0.1940
    128  CA        39.8550    1.9140   52.2230 C.3   128  GLY128      0.2014
    129  C         40.4360    1.8630   53.6220 C.2   128  GLY128      0.2639
    130  O         41.6530    1.7270   53.7780 O.2   128  GLY128     -0.2714
    131  N         39.6000    1.9900   54.6520 N.am  129  PHE129     -0.1959
    132  CA        40.1010    1.8990   56.0230 C.3   129  PHE129      0.1771
    133  C         40.9100    0.6190   56.2480 C.2   129  PHE129      0.2619
    134  O         41.9120    0.6190   56.9620 O.2   129  PHE129     -0.2715
    135  CB        38.9350    1.9540   57.0230 C.3   129  PHE129      0.0574
    136  CG        39.3250    1.5320   58.4150 C.ar  129  PHE129     -0.0200
    137  CD1       39.9830    2.4170   59.2620 C.ar  129  PHE129     -0.0042
    138  CD2       39.0500    0.2420   58.8670 C.ar  129  PHE129     -0.0042
    139  CE1       40.3660    2.0280   60.5470 C.ar  129  PHE129     -0.0003
    140  CE2       39.4360   -0.1610   60.1600 C.ar  129  PHE129     -0.0003
    141  CZ        40.0850    0.7370   60.9970 C.ar  129  PHE129     -0.0000
    142  N         40.4910   -0.4660   55.6100 N.am  130  TYR130     -0.1974
    143  CA        41.1110   -1.7620   55.8920 C.3   130  TYR130      0.1639
    144  C         42.5250   -1.8780   55.3210 C.2   130  TYR130      0.2290
    145  O         43.2820   -2.7890   55.6820 O.2   130  TYR130     -0.2864
    146  CB        40.1900   -2.8940   55.4380 C.3   130  TYR130      0.0560
    147  CG        38.9230   -2.9010   56.2620 C.ar  130  TYR130     -0.0198
    148  CD1       38.9430   -3.3320   57.5820 C.ar  130  TYR130     -0.0009
    149  CD2       37.7130   -2.4360   55.7350 C.ar  130  TYR130     -0.0009
    150  CE1       37.7850   -3.3190   58.3650 C.ar  130  TYR130      0.0417
    151  CE2       36.5430   -2.4180   56.5210 C.ar  130  TYR130      0.0417
    152  CZ        36.6000   -2.8680   57.8350 C.ar  130  TYR130      0.1957
    153  OH        35.4650   -2.8680   58.6300 O.3   130  TYR130     -0.2866
    154  N         41.0770    2.5090   67.0740 N.3   141  VAL141     -0.1245
    155  CA        40.3900    3.7310   66.6390 C.3   141  VAL141      0.1561
    156  C         39.7090    4.3740   67.8450 C.2   141  VAL141      0.2260
    157  O         38.8040    3.7910   68.4460 O.2   141  VAL141     -0.2867
    158  CB        39.3590    3.4560   65.5110 C.3   141  VAL141      0.0252
    159  CG1       38.5550    4.7300   65.1780 C.3   141  VAL141      0.0019
    160  CG2       40.0650    2.9500   64.2600 C.3   141  VAL141      0.0019
    161  N         38.5500   11.8140   65.4510 N.3   175  THR175     -0.1218
    162  CA        38.9470   10.4190   65.4160 C.3   175  THR175      0.1862
    163  C         40.4610   10.2900   65.3540 C.2   175  THR175      0.2287
    164  O         41.1510   11.0540   64.6640 O.2   175  THR175     -0.2866
    165  CB        38.3220    9.7020   64.2000 C.3   175  THR175      0.1770
    166  OG1       36.8940    9.7620   64.2950 O.3   175  THR175     -0.2211
    167  CG2       38.7600    8.2370   64.1420 C.3   175  THR175      0.0375
    168  N         43.3450    7.3390   64.6870 N.3   177  VAL177     -0.1245
    169  CA        43.6360    5.9810   64.2640 C.3   177  VAL177      0.1561
    170  C         45.0580    5.6720   64.6720 C.2   177  VAL177      0.2260
    171  O         45.9790    6.3430   64.2260 O.2   177  VAL177     -0.2867
    172  CB        43.4920    5.8050   62.7360 C.3   177  VAL177      0.0252
    173  CG1       43.8260    4.3550   62.3140 C.3   177  VAL177      0.0019
    174  CG2       42.0830    6.1750   62.2900 C.3   177  VAL177      0.0019
@<TRIPOS>BOND
     1   114   115    2
     2   114   113    1
     3   112   113    1
     4   116   117    1
     5   117   118    1
     6   106   105    2
     7   126   124    1
     8   105   104    1
     9    14    13    1
    10   120   118   am
    11   120   121    1
    12   118   119    2
    13    13    10    1
    14   124   125    1
    15   124   121    1
    16    36    34   ar
    17   127   128    1
    18   127   122   am
    19   104   107    1
    20   104   103    1
    21    35    34   ar
    22   121   122    1
    23   128   129    1
    24   107   108    1
    25   122   123    2
    26    34    33    1
    27    10     9    1
    28    10    11    1
    29    12    11    2
    30   129   130    2
    31   129   131   am
    32   111   110    1
    33    11    15   am
    34   108   109    1
    35   109   110    1
    36    21    20    2
    37    33    30    1
    38    15    16    1
    39   131   132    1
    40    30    29    1
    41    30    31    1
    42     1     2    1
    43    20    22   am
    44    20    19    1
    45   144   145    2
    46   144   143    1
    47   146   143    1
    48   146   147    1
    49    16    19    1
    50    16    17    1
    51    49    50    1
    52    49    48    1
    53   142   143    1
    54   142   133   am
    55   149   147   ar
    56   149   151   ar
    57   132   133    1
    58   132   135    1
    59    31    32    2
    60    31    37   am
    61     3     2    1
    62     3     4    2
    63     2     5    1
    64   133   134    2
    65   147   148   ar
    66    17    18    2
    67    17    23   am
    68   151   152   ar
    69    47    48    1
    70    47    46    1
    71    23    24    1
    72    42    43    1
    73   135   136    1
    74    37    38    1
    75    25    26    2
    76    25    24    1
    77     5     6    1
    78     6     8    1
    79     6     7    1
    80   148   150   ar
    81    43    46    1
    82    43    44    1
    83   152   150   ar
    84   152   153    1
    85    24    27    1
    86    93    92    2
    87    27    28    1
    88   136   138   ar
    89   136   137   ar
    90    38    39    1
    91    38    41    1
    92    39    40    2
    93    44    45    2
    94   138   140   ar
    95    90    89    2
    96    92    91    1
    97    92    94   am
    98   137   139   ar
    99    91    88    1
   100    88    89    1
   101    88    87    1
   102    89    95   am
   103   140   141   ar
   104   102   100    1
   105   139   141   ar
   106    95    96    1
   107    96    97    1
   108    96    99    1
   109    65    63    1
   110    58    56   ar
   111    97    98    2
   112    55    56    1
   113    55    52    1
   114   100    99    1
   115   100   101    1
   116    56    57   ar
   117    63    64    1
   118    63    60    1
   119   174   172    1
   120   173   172    1
   121    59    60    1
   122    64    66    1
   123    77    78    1
   124    77    76    1
   125   172   169    1
   126    82    81    2
   127    52    51    1
   128    52    53    1
   129    60    61    1
   130    85    84   ar
   131    76    75    1
   132    84    86   ar
   133    84    83    1
   134    70    69    2
   135    53    54    2
   136    81    80    1
   137    67    61   am
   138    67    68    1
   139    83    80    1
   140    80    79    1
   141    61    62    2
   142   167   165    1
   143   165   166    1
   144   165   162    1
   145   171   170    2
   146   160   158    1
   147   169   170    1
   148   169   168    1
   149   164   163    2
   150    69    68    1
   151    69    71   am
   152    75    72    1
   153   159   158    1
   154   163   162    1
   155    72    71    1
   156    72    73    1
   157   162   161    1
   158   158   155    1
   159   155   154    1
   160   155   156    1
   161    73    74    2
   162   156   157    2
