@<TRIPOS>MOLECULE
tmp/4jqnA01.pdb
 95 93 0 0 0
SMALL
GASTEIGER

@<TRIPOS>ATOM
      1  N        -15.1450   -7.3930   -1.7730 N.3   172  HIS172     -0.1226
      2  CA       -15.7690   -6.4490   -2.6800 C.3   172  HIS172      0.1752
      3  C        -17.1550   -6.8780   -3.1260 C.2   172  HIS172      0.2596
      4  O        -17.7630   -6.1700   -3.9250 O.2   172  HIS172     -0.2718
      5  CB       -14.8650   -6.1210   -3.8680 C.3   172  HIS172      0.0759
      6  CG       -13.7700   -5.1720   -3.5090 C.ar  172  HIS172      0.0818
      7  ND1      -12.7550   -4.8260   -4.3720 N.ar  172  HIS172     -0.2268
      8  CD2      -13.5710   -4.4270   -2.3860 C.ar  172  HIS172      0.1154
      9  CE1      -11.9850   -3.9040   -3.7880 C.ar  172  HIS172      0.1986
     10  NE2      -12.4720   -3.6380   -2.6000 N.ar  172  HIS172     -0.2212
     11  N        -17.6580   -7.9880   -2.5800 N.am  173  ALA173     -0.1966
     12  CA       -19.0950   -8.2380   -2.5910 C.3   173  ALA173      0.1728
     13  C        -19.8720   -7.2940   -1.7080 C.2   173  ALA173      0.2616
     14  O        -21.1140   -7.1770   -1.8250 O.2   173  ALA173     -0.2715
     15  CB       -19.4120   -9.6740   -2.1610 C.3   173  ALA173      0.0334
     16  N        -19.1700   -6.6370   -0.7810 N.am  174  LEU174     -0.1963
     17  CA       -19.8520   -5.8150    0.2500 C.3   174  LEU174      0.1728
     18  C        -19.8970   -4.3290   -0.1390 C.2   174  LEU174      0.2617
     19  O        -18.9420   -3.7830   -0.6990 O.2   174  LEU174     -0.2715
     20  CB       -19.0660   -5.9110    1.5370 C.3   174  LEU174      0.0311
     21  CG       -18.8810   -7.2870    2.1550 C.3   174  LEU174      0.0022
     22  CD1      -17.8330   -7.1910    3.2640 C.3   174  LEU174      0.0001
     23  CD2      -20.2140   -7.8500    2.6450 C.3   174  LEU174      0.0001
     24  N        -21.0030   -3.6850    0.1900 N.am  175  GLY175     -0.1940
     25  CA       -21.0320   -2.2430    0.1790 C.3   175  GLY175      0.2014
     26  C        -21.0180   -1.7090   -1.2450 C.2   175  GLY175      0.2639
     27  O        -21.6220   -2.2650   -2.1590 O.2   175  GLY175     -0.2714
     28  N        -20.3860   -0.5530   -1.4120 N.am  176  LYS176     -0.1963
     29  CA       -20.3620    0.1330   -2.7070 C.3   176  LYS176      0.1728
     30  C        -19.2070    1.1060   -2.7490 C.2   176  LYS176      0.2616
     31  O        -18.6190    1.4050   -1.7210 O.2   176  LYS176     -0.2715
     32  CB       -21.6730    0.8460   -3.0090 C.3   176  LYS176      0.0311
     33  CG       -21.9180    2.0160   -2.1140 C.3   176  LYS176      0.0038
     34  CD       -23.3070    2.6600   -2.3880 C.3   176  LYS176      0.0206
     35  CE       -23.3860    3.4040   -3.7250 C.3   176  LYS176      0.1093
     36  NZ       -22.5840    4.6620   -3.7500 N.3   176  LYS176     -0.1314
     37  N        -18.9050    1.5550   -3.9450 N.am  177  THR177     -0.1951
     38  CA       -17.9930    2.6950   -4.1150 C.3   177  THR177      0.1897
     39  C        -18.8030    3.9870   -4.1270 C.2   177  THR177      0.2313
     40  O        -19.9680    3.9760   -4.5010 O.2   177  THR177     -0.2863
     41  CB       -17.1220    2.5360   -5.4090 C.3   177  THR177      0.1794
     42  OG1      -17.9720    2.6570   -6.5660 O.3   177  THR177     -0.2208
     43  CG2      -16.3500    1.2470   -5.4390 C.3   177  THR177      0.0378
     44  N        -22.0850   -0.2550   -7.3310 N.3   187  GLY187     -0.1210
     45  CA       -21.9320   -1.5400   -6.6840 C.3   187  GLY187      0.1956
     46  C        -23.2240   -2.1050   -6.1690 C.2   187  GLY187      0.2612
     47  O        -24.2770   -1.5200   -6.3070 O.2   187  GLY187     -0.2717
     48  N        -23.1500   -3.3000   -5.6060 N.am  188  GLY188     -0.1956
     49  CA       -24.3430   -4.0160   -5.2330 C.3   188  GLY188      0.1869
     50  C        -25.0580   -3.5290   -3.9780 C.2   188  GLY188      0.2309
     51  O        -26.2370   -3.9070   -3.7560 O.2   188  GLY188     -0.2863
     52  N        -24.1110   -3.9480  -10.9000 N.3   224  TYR224     -0.1227
     53  CA       -22.8380   -4.3030  -10.2790 C.3   224  TYR224      0.1736
     54  C        -21.7080   -3.5110  -10.9540 C.2   224  TYR224      0.2595
     55  O        -21.8380   -3.0130  -12.0640 O.2   224  TYR224     -0.2718
     56  CB       -22.6080   -5.7980  -10.3990 C.3   224  TYR224      0.0548
     57  CG       -23.6750   -6.5990   -9.7230 C.ar  224  TYR224     -0.0200
     58  CD1      -24.3560   -7.5730  -10.4100 C.ar  224  TYR224     -0.0009
     59  CD2      -23.9650   -6.4400   -8.3930 C.ar  224  TYR224     -0.0009
     60  CE1      -25.3850   -8.3220   -9.8030 C.ar  224  TYR224      0.0417
     61  CE2      -24.9780   -7.1260   -7.7830 C.ar  224  TYR224      0.0417
     62  CZ       -25.6640   -8.1150   -8.4780 C.ar  224  TYR224      0.1957
     63  OH       -26.6750   -8.8360   -7.8630 O.3   224  TYR224     -0.2866
     64  N        -20.5900   -3.4370  -10.2390 N.am  225  MET225     -0.1965
     65  CA       -19.4340   -2.7050  -10.7030 C.3   225  MET225      0.1736
     66  C        -18.1670   -3.3640  -10.2070 C.2   225  MET225      0.2616
     67  O        -18.1130   -3.9050   -9.0880 O.2   225  MET225     -0.2715
     68  CB       -19.4860   -1.2570  -10.2160 C.3   225  MET225      0.0427
     69  CG       -18.7840   -1.0380   -8.8690 C.3   225  MET225      0.0599
     70  SD       -18.1730    0.6420   -8.8020 S.3   225  MET225     -0.1393
     71  CE       -16.4090    0.4430   -9.1620 C.3   225  MET225      0.0692
     72  N        -17.1360   -3.2890  -11.0480 N.am  226  MET226     -0.1963
     73  CA       -15.8030   -3.7790  -10.6930 C.3   226  MET226      0.1736
     74  C        -14.7820   -2.7030  -11.0060 C.2   226  MET226      0.2616
     75  O        -14.8320   -2.0470  -12.0560 O.2   226  MET226     -0.2715
     76  CB       -15.4680   -5.0180  -11.5120 C.3   226  MET226      0.0427
     77  CG       -16.3550   -6.2210  -11.2250 C.3   226  MET226      0.0599
     78  SD       -15.9930   -6.9760   -9.6310 S.3   226  MET226     -0.1393
     79  CE       -17.4110   -8.0810   -9.4780 C.3   226  MET226      0.0692
     80  N        -13.8710   -2.4760  -10.0760 N.am  227  LEU227     -0.1977
     81  CA       -12.7240   -1.6130  -10.3340 C.3   227  LEU227      0.1596
     82  C        -11.8330   -2.2910  -11.3730 C.2   227  LEU227      0.2287
     83  O        -11.9240   -3.5270  -11.5270 O.2   227  LEU227     -0.2864
     84  CB       -11.9370   -1.4130   -9.0440 C.3   227  LEU227      0.0297
     85  CG       -12.7320   -0.8980   -7.8340 C.3   227  LEU227      0.0022
     86  CD1      -11.9690   -1.1870   -6.5490 C.3   227  LEU227      0.0001
     87  CD2      -13.0810    0.6050   -7.9470 C.3   227  LEU227      0.0001
     88  N        -10.1800   -5.1610   -9.6930 N.3   230  ASP230     -0.1239
     89  CA       -11.0640   -6.2930   -9.5240 C.3   230  ASP230      0.1674
     90  C        -11.1140   -7.0980  -10.8110 C.2   230  ASP230      0.2266
     91  O        -11.0260   -8.3440  -10.7980 O.2   230  ASP230     -0.2867
     92  CB       -12.5070   -5.8180   -9.1970 C.3   230  ASP230      0.1410
     93  CG       -12.6630   -5.1540   -7.8530 C.2   230  ASP230      0.3668
     94  OD1      -11.9760   -5.5650   -6.9150 O.co2 230  ASP230     -0.2456
     95  OD2      -13.5220   -4.2130   -7.7740 O.co2 230  ASP230     -0.2456
@<TRIPOS>BOND
     1    55    54    2
     2    75    74    2
     3    83    82    2
     4    76    77    1
     5    76    73    1
     6    82    81    1
     7    77    78    1
     8    72    73    1
     9    72    66   am
    10    74    73    1
    11    74    80   am
    12    54    53    1
    13    54    64   am
    14    52    53    1
    15    90    91    2
    16    90    89    1
    17    65    64    1
    18    65    68    1
    19    65    66    1
    20    58    60   ar
    21    58    57   ar
    22    56    53    1
    23    56    57    1
    24    81    80    1
    25    81    84    1
    26    68    69    1
    27    66    67    2
    28    60    62   ar
    29    57    59   ar
    30    88    89    1
    31    78    79    1
    32    89    92    1
    33    92    93    1
    34    71    70    1
    35    84    85    1
    36    69    70    1
    37    62    63    1
    38    62    61   ar
    39    59    61   ar
    40    87    85    1
    41    93    95   ar
    42    93    94   ar
    43    85    86    1
    44    44    45    1
    45    45    46    1
    46    42    41    1
    47    47    46    2
    48    46    48   am
    49    48    49    1
    50    43    41    1
    51    41    38    1
    52    49    50    1
    53    40    39    2
    54     7     9   ar
    55     7     6   ar
    56    39    38    1
    57    38    37    1
    58    50    51    2
    59    37    30   am
    60     4     3    2
    61     5     6    1
    62     5     2    1
    63     9    10   ar
    64    36    35    1
    65    35    34    1
    66     6     8   ar
    67     3     2    1
    68     3    11   am
    69    32    29    1
    70    32    33    1
    71    30    29    1
    72    30    31    2
    73    29    28    1
    74     2     1    1
    75    10     8   ar
    76    12    11    1
    77    12    15    1
    78    12    13    1
    79    34    33    1
    80    27    26    2
    81    14    13    2
    82    13    16   am
    83    28    26   am
    84    26    25    1
    85    16    17    1
    86    19    18    2
    87    18    24   am
    88    18    17    1
    89    25    24    1
    90    17    20    1
    91    20    21    1
    92    21    23    1
    93    21    22    1
