@<TRIPOS>MOLECULE
tmp/4jqoA00.pdb
 149 140 0 0 0
SMALL
GASTEIGER

@<TRIPOS>ATOM
      1  N          5.2460  -37.2890    8.4750 N.3    59  LYS59      -0.1245
      2  CA         6.6470  -36.8750    8.5400 C.3    59  LYS59       0.1561
      3  C          6.9820  -36.6810   10.0450 C.2    59  LYS59       0.2260
      4  O          6.1090  -36.6430   10.8780 O.2    59  LYS59      -0.2867
      5  CB         6.8800  -35.5690    7.8090 C.3    59  LYS59       0.0271
      6  CG         6.8270  -35.6400    6.2780 C.3    59  LYS59       0.0035
      7  CD         6.6930  -34.2220    5.7070 C.3    59  LYS59       0.0206
      8  CE         6.7020  -34.2690    4.1620 C.3    59  LYS59       0.1093
      9  NZ         6.3260  -32.9070    3.6630 N.3    59  LYS59      -0.1314
     10  N          8.3720  -29.8650   17.4040 N.3    63  ARG63      -0.1231
     11  CA         7.6030  -28.6740   17.8180 C.3    63  ARG63       0.1694
     12  C          6.1150  -28.8270   17.5590 C.2    63  ARG63       0.2592
     13  O          5.3100  -28.5390   18.4270 O.2    63  ARG63      -0.2718
     14  CB         7.9790  -27.4490   16.9600 C.3    63  ARG63       0.0321
     15  CG         8.9440  -26.4250   17.4680 C.3    63  ARG63       0.0489
     16  CD         9.8060  -25.8500   16.3060 C.3    63  ARG63       0.2205
     17  NE        10.5440  -26.9890   15.7390 N.pl3  63  ARG63      -0.0865
     18  CZ        11.6600  -27.4950   16.2030 C.cat  63  ARG63       0.5346
     19  NH1       12.1270  -28.6480   15.6960 N.pl3  63  ARG63       0.1354
     20  NH2       12.2970  -26.8770   17.1990 N.pl3  63  ARG63       0.1354
     21  N          5.7600  -29.1960   16.3200 N.am   64  THR64      -0.1953
     22  CA         4.3530  -29.1780   15.8920 C.3    64  THR64       0.1897
     23  C          3.5540  -30.1700   16.6720 C.2    64  THR64       0.2313
     24  O          2.4780  -29.8490   17.2140 O.2    64  THR64      -0.2863
     25  CB         4.2560  -29.4390   14.3700 C.3    64  THR64       0.1794
     26  OG1        4.9250  -28.3420   13.6950 O.3    64  THR64      -0.2208
     27  CG2        2.8090  -29.4430   13.8770 C.3    64  THR64       0.0378
     28  N         -0.0590  -33.8340    9.2280 N.3   112  ARG112     -0.1245
     29  CA         1.2530  -33.3880    8.6930 C.3   112  ARG112      0.1563
     30  C          1.6880  -34.4420    7.7030 C.2   112  ARG112      0.2260
     31  O          1.6500  -35.6530    8.0150 O.2   112  ARG112     -0.2867
     32  CB         2.3180  -33.2880    9.8080 C.3   112  ARG112      0.0307
     33  CG         3.7140  -33.2240    9.1930 C.3   112  ARG112      0.0489
     34  CD         4.8250  -32.9200   10.1940 C.3   112  ARG112      0.2205
     35  NE         4.7680  -31.4960   10.6150 N.pl3 112  ARG112     -0.0865
     36  CZ         5.8080  -30.7930   11.0630 C.cat 112  ARG112      0.5346
     37  NH1        6.9890  -31.3520   11.1270 N.pl3 112  ARG112      0.1354
     38  NH2        5.6760  -29.4930   11.3280 N.pl3 112  ARG112      0.1354
     39  N          1.5120  -29.2170    8.5070 N.3   134  LEU134     -0.1245
     40  CA         2.5590  -29.0330    7.4970 C.3   134  LEU134      0.1561
     41  C          2.3080  -29.9070    6.2970 C.2   134  LEU134      0.2260
     42  O          2.0980  -31.1290    6.4620 O.2   134  LEU134     -0.2867
     43  CB         3.9680  -29.2440    7.9780 C.3   134  LEU134      0.0270
     44  CG         5.0360  -29.1350    6.9480 C.3   134  LEU134      0.0019
     45  CD1        6.3410  -28.6860    7.5350 C.3   134  LEU134      0.0001
     46  CD2        5.3210  -30.4660    6.2890 C.3   134  LEU134      0.0001
     47  N          2.4820  -24.2300    5.3010 N.3   139  HIS139     -0.1241
     48  CA         2.6980  -24.4970    6.7460 C.3   139  HIS139      0.1621
     49  C          2.0380  -23.4020    7.5790 C.2   139  HIS139      0.2264
     50  O          2.6940  -22.5240    8.1250 O.2   139  HIS139     -0.2867
     51  CB         4.1840  -24.6300    7.0350 C.3   139  HIS139      0.0745
     52  CG         4.4820  -25.1810    8.3950 C.ar  139  HIS139      0.0817
     53  ND1        3.5070  -25.6730    9.2230 N.ar  139  HIS139     -0.2268
     54  CD2        5.6480  -25.3060    9.0590 C.ar  139  HIS139      0.1154
     55  CE1        4.0690  -26.0730   10.3610 C.ar  139  HIS139      0.1986
     56  NE2        5.3780  -25.8490   10.2830 N.ar  139  HIS139     -0.2212
     57  N          2.6250  -22.3230   11.4400 N.3   142  GLN142     -0.1245
     58  CA         3.9290  -21.7080   11.6960 C.3   142  GLN142      0.1566
     59  C          3.8350  -20.1820   11.5240 C.2   142  GLN142      0.2260
     60  O          4.2780  -19.3720   12.3540 O.2   142  GLN142     -0.2867
     61  CB         4.9560  -22.2640   10.7330 C.3   142  GLN142      0.0367
     62  CG         6.3600  -21.6660   10.9020 C.3   142  GLN142      0.0905
     63  CD         6.9900  -22.0950   12.2550 C.2   142  GLN142      0.2608
     64  OE1        7.0510  -23.2700   12.5930 O.2   142  GLN142     -0.2717
     65  NE2        7.4220  -21.1190   13.0240 N.am  142  GLN142     -0.0878
     66  N          9.6720  -23.3240   -0.6820 N.3   172  ASN172     -0.1225
     67  CA         9.2660  -24.3740    0.2040 C.3   172  ASN172      0.1785
     68  C          7.9410  -23.9680    0.9200 C.2   172  ASN172      0.2597
     69  O          7.4370  -22.8480    0.7970 O.2   172  ASN172     -0.2718
     70  CB        10.4240  -24.7750    1.1790 C.3   172  ASN172      0.1169
     71  CG        10.7130  -23.7170    2.2630 C.2   172  ASN172      0.2627
     72  OD1        9.9650  -22.7620    2.4330 O.2   172  ASN172     -0.2716
     73  ND2       11.7860  -23.9410    3.0420 N.am  172  ASN172     -0.0877
     74  N          7.4730  -24.8650    1.7700 N.am  173  ASN173     -0.1960
     75  CA         6.2150  -24.5940    2.5190 C.3   173  ASN173      0.1819
     76  C          6.2060  -23.3110    3.3370 C.2   173  ASN173      0.2621
     77  O          5.2410  -22.5480    3.2660 O.2   173  ASN173     -0.2715
     78  CB         5.7880  -25.7650    3.4010 C.3   173  ASN173      0.1195
     79  CG         6.9300  -26.3860    4.1370 C.2   173  ASN173      0.2630
     80  OD1        7.8290  -25.7020    4.6080 O.2   173  ASN173     -0.2716
     81  ND2        6.9330  -27.7430    4.2230 N.am  173  ASN173     -0.0877
     82  N          7.2900  -23.0240    4.0080 N.am  174  VAL174     -0.1977
     83  CA         7.3300  -21.8480    4.8410 C.3   174  VAL174      0.1596
     84  C          7.4060  -20.5430    4.0690 C.2   174  VAL174      0.2287
     85  O          6.7000  -19.5370    4.3900 O.2   174  VAL174     -0.2864
     86  CB         8.4420  -21.9540    5.8770 C.3   174  VAL174      0.0276
     87  CG1        8.7130  -20.6350    6.5710 C.3   174  VAL174      0.0022
     88  CG2        8.0370  -22.9970    6.9520 C.3   174  VAL174      0.0022
     89  N         15.1930  -20.7540    6.8300 N.3   237  ASP237     -0.1225
     90  CA        14.7860  -22.1340    7.0650 C.3   237  ASP237      0.1805
     91  C         15.8240  -23.0370    6.3940 C.2   237  ASP237      0.2597
     92  O         16.6360  -22.5490    5.5490 O.2   237  ASP237     -0.2718
     93  CB        13.3600  -22.3410    6.4680 C.3   237  ASP237      0.1424
     94  CG        12.7240  -23.7050    6.8000 C.2   237  ASP237      0.3668
     95  OD1       13.2850  -24.4930    7.6430 O.co2 237  ASP237     -0.2456
     96  OD2       11.6550  -24.0340    6.1870 O.co2 237  ASP237     -0.2456
     97  N         15.8130  -24.3390    6.7010 N.am  238  VAL238     -0.1980
     98  CA        16.7230  -25.2710    6.0660 C.3   238  VAL238      0.1595
     99  C         16.5740  -25.2370    4.5450 C.2   238  VAL238      0.2287
    100  O         15.5040  -25.0400    4.0040 O.2   238  VAL238     -0.2864
    101  CB        16.5420  -26.7180    6.6040 C.3   238  VAL238      0.0276
    102  CG1       16.8770  -26.7280    8.1090 C.3   238  VAL238      0.0022
    103  CG2       15.0960  -27.2180    6.3470 C.3   238  VAL238      0.0022
    104  N         14.1350  -29.5830    2.3510 N.3   241  SER241     -0.1202
    105  CA        13.0280  -29.8720    3.3130 C.3   241  SER241      0.2020
    106  C         12.7030  -31.3810    3.3690 C.2   241  SER241      0.2618
    107  O         13.1530  -32.1410    2.5530 O.2   241  SER241     -0.2717
    108  CB        11.7480  -29.0740    2.9080 C.3   241  SER241      0.2103
    109  OG        11.8430  -27.6860    3.2910 O.3   241  SER241     -0.2182
    110  N         11.9550  -31.8010    4.3950 N.am  242  MET242     -0.1979
    111  CA        11.6100  -33.1980    4.5900 C.3   242  MET242      0.1605
    112  C         10.9180  -33.7390    3.3700 C.2   242  MET242      0.2287
    113  O         10.1500  -33.0570    2.7350 O.2   242  MET242     -0.2864
    114  CB        10.6980  -33.3850    5.8100 C.3   242  MET242      0.0413
    115  CG        11.4420  -33.2490    7.1500 C.3   242  MET242      0.0598
    116  SD        10.2620  -33.4770    8.5600 S.3   242  MET242     -0.1393
    117  CE         9.3940  -31.9480    8.5150 C.3   242  MET242      0.0692
    118  N         12.0700  -20.9430   11.5470 N.3   279  CYS279     -0.1221
    119  CA        10.9930  -21.8640   12.0080 C.3   279  CYS279      0.1808
    120  C         11.4910  -23.0100   12.8000 C.2   279  CYS279      0.2601
    121  O         10.7360  -23.5160   13.6340 O.2   279  CYS279     -0.2717
    122  CB        10.1550  -22.4200   10.8320 C.3   279  CYS279      0.0970
    123  SG        11.0940  -23.2020    9.5190 S.3   279  CYS279     -0.0800
    124  N         12.7570  -23.3940   12.6250 N.am  280  LEU280     -0.1966
    125  CA        13.3500  -24.5460   13.3180 C.3   280  LEU280      0.1713
    126  C         12.7760  -25.8500   12.7370 C.2   280  LEU280      0.2458
    127  O         11.7250  -25.7970   12.1410 O.2   280  LEU280     -0.2730
    128  CB        13.1730  -24.5140   14.8520 C.3   280  LEU280      0.0310
    129  CG        13.6070  -23.2450   15.5350 C.3   280  LEU280      0.0022
    130  CD1       13.4810  -23.3740   17.0600 C.3   280  LEU280      0.0001
    131  CD2       15.0660  -22.9080   15.1930 C.3   280  LEU280      0.0001
    132  N         13.5140  -26.9480   12.7750 N.am  281  PRO281     -0.2727
    133  CA        14.8770  -27.0550   13.3130 C.3   281  PRO281      0.1402
    134  C         15.8890  -26.4280   12.4100 C.2   281  PRO281      0.2269
    135  O         15.6010  -26.2340   11.2340 O.2   281  PRO281     -0.2865
    136  CB        15.0930  -28.6010   13.4170 C.3   281  PRO281      0.0296
    137  CG        14.2450  -29.1570   12.2860 C.3   281  PRO281      0.0237
    138  CD        13.0380  -28.2390   12.2360 C.3   281  PRO281      0.0939
    139  N          4.2570  -21.3380   18.8520 N.3   324  ARG324     -0.1245
    140  CA         3.5990  -22.4260   18.1070 C.3   324  ARG324      0.1563
    141  C          2.4360  -23.0330   18.8580 C.2   324  ARG324      0.2260
    142  O          1.3860  -23.2760   18.2930 O.2   324  ARG324     -0.2867
    143  CB         4.5410  -23.5190   17.7590 C.3   324  ARG324      0.0307
    144  CG         5.6850  -23.1590   16.8000 C.3   324  ARG324      0.0489
    145  CD         5.2400  -22.7450   15.3880 C.3   324  ARG324      0.2205
    146  NE         4.2990  -23.6290   14.7490 N.pl3 324  ARG324     -0.0865
    147  CZ         4.5950  -24.8720   14.3040 C.cat 324  ARG324      0.5346
    148  NH1        5.8370  -25.3790   14.3580 N.pl3 324  ARG324      0.1354
    149  NH2        3.6760  -25.6150   13.8170 N.pl3 324  ARG324      0.1354
@<TRIPOS>BOND
     1    66    67    1
     2    67    68    1
     3    67    70    1
     4    69    68    2
     5    68    74   am
     6    70    71    1
     7    74    75    1
     8    71    72    2
     9    71    73   am
    10   104   105    1
    11    75    76    1
    12    75    78    1
    13   107   106    2
    14   113   112    2
    15   108   109    1
    16   108   105    1
    17    77    76    2
    18   105   106    1
    19    76    82   am
    20   106   110   am
    21   112   111    1
    22    78    79    1
    23     9     8    1
    24   100    99    2
    25    82    83    1
    26    84    85    2
    27    84    83    1
    28    79    81   am
    29    79    80    2
    30     8     7    1
    31   110   111    1
    32    99    98    1
    33   111   114    1
    34    83    86    1
    35    47    48    1
    36    92    91    2
    37     7     6    1
    38   114   115    1
    39    86    87    1
    40    86    88    1
    41    98   101    1
    42    98    97    1
    43    96    94   ar
    44     6     5    1
    45    46    44    1
    46    41    42    2
    47    41    40    1
    48   103   101    1
    49    91    97   am
    50    91    90    1
    51    93    94    1
    52    93    90    1
    53   101   102    1
    54    48    51    1
    55    48    49    1
    56    94    95   ar
    57    89    90    1
    58    44    45    1
    59    44    43    1
    60    51    52    1
    61   115   116    1
    62    40    43    1
    63    40    39    1
    64    49    50    2
    65    30    31    2
    66    30    29    1
    67     5     2    1
    68    52    54   ar
    69    52    53   ar
    70     1     2    1
    71   117   116    1
    72     2     3    1
    73    29    28    1
    74    29    32    1
    75    54    56   ar
    76    33    32    1
    77    33    34    1
    78    53    55   ar
    79   123   122    1
    80     3     4    2
    81    34    35    1
    82    56    55   ar
    83    35    36    2
    84    61    62    1
    85    61    58    1
    86   122   119    1
    87    62    63    1
    88    36    37    1
    89    36    38    1
    90   135   134    2
    91    57    58    1
    92    59    58    1
    93    59    60    2
    94   118   119    1
    95   119   120    1
    96   127   126    2
    97   138   137    1
    98   138   132    1
    99    63    64    2
   100    63    65   am
   101   137   136    1
   102   134   133    1
   103   124   120   am
   104   124   125    1
   105   126   132   am
   106   126   125    1
   107   132   133    1
   108   120   121    2
   109   133   136    1
   110   125   128    1
   111    26    25    1
   112   149   147    1
   113    27    25    1
   114   147   148    1
   115   147   146    2
   116    25    22    1
   117   146   145    1
   118   128   129    1
   119   131   129    1
   120   145   144    1
   121   129   130    1
   122    19    18    1
   123    17    18    2
   124    17    16    1
   125    22    21    1
   126    22    23    1
   127    18    20    1
   128    16    15    1
   129    21    12   am
   130    23    24    2
   131   144   143    1
   132    14    15    1
   133    14    11    1
   134    10    11    1
   135    12    11    1
   136    12    13    2
   137   143   140    1
   138   140   139    1
   139   140   141    1
   140   142   141    2
