@<TRIPOS>MOLECULE
tmp/4jr3A00.pdb
 185 174 0 0 0
SMALL
GASTEIGER

@<TRIPOS>ATOM
      1  N         45.6800   19.1820   -3.7090 N.3    23  LEU23      -0.1231
      2  CA        46.4740   18.5660   -2.6420 C.3    23  LEU23       0.1693
      3  C         45.7800   18.6750   -1.2900 C.2    23  LEU23       0.2592
      4  O         45.7860   17.7230   -0.5130 O.2    23  LEU23      -0.2718
      5  CB        47.8670   19.2000   -2.5540 C.3    23  LEU23       0.0284
      6  CG        48.8830   18.8360   -3.6400 C.3    23  LEU23       0.0019
      7  CD1       50.1430   19.6710   -3.4650 C.3    23  LEU23       0.0001
      8  CD2       49.2190   17.3520   -3.6200 C.3    23  LEU23       0.0001
      9  N         45.1930   19.8330   -1.0050 N.am   24  GLY24      -0.1957
     10  CA        44.5390   20.0570    0.2790 C.3    24  GLY24       0.1869
     11  C         43.5430   21.1950    0.2490 C.2    24  GLY24       0.2309
     12  O         43.4370   21.9140   -0.7450 O.2    24  GLY24      -0.2863
     13  N         42.4970   27.7910    5.0860 N.3    28  PHE28      -0.1241
     14  CA        43.5200   28.5350    4.3320 C.3    28  PHE28       0.1605
     15  C         43.2030   28.7360    2.8420 C.2    28  PHE28       0.2264
     16  O         43.8510   29.5510    2.1780 O.2    28  PHE28      -0.2867
     17  CB        44.9010   27.8670    4.4830 C.3    28  PHE28       0.0534
     18  CG        44.9100   26.3880    4.1840 C.ar   28  PHE28      -0.0203
     19  CD1       44.9130   25.9250    2.8740 C.ar   28  PHE28      -0.0042
     20  CD2       44.9240   25.4570    5.2190 C.ar   28  PHE28      -0.0042
     21  CE1       44.9220   24.5660    2.6010 C.ar   28  PHE28      -0.0003
     22  CE2       44.9330   24.0970    4.9520 C.ar   28  PHE28      -0.0003
     23  CZ        44.9320   23.6510    3.6410 C.ar   28  PHE28      -0.0000
     24  N         45.1940   24.1960   -2.0550 N.3    31  VAL31      -0.1245
     25  CA        46.5120   24.0480   -2.6680 C.3    31  VAL31       0.1561
     26  C         46.4410   22.9750   -3.7550 C.2    31  VAL31       0.2260
     27  O         45.8090   21.9320   -3.5650 O.2    31  VAL31      -0.2867
     28  CB        47.5780   23.6490   -1.6280 C.3    31  VAL31       0.0252
     29  CG1       48.9500   23.5320   -2.2810 C.3    31  VAL31       0.0019
     30  CG2       47.6080   24.6520   -0.4840 C.3    31  VAL31       0.0019
     31  N         53.6540   23.6330   -6.3990 N.3    48  ALA48      -0.1245
     32  CA        52.4480   23.7360   -5.5950 C.3    48  ALA48       0.1562
     33  C         51.8350   25.1030   -5.8660 C.2    48  ALA48       0.2260
     34  O         52.5500   26.1030   -5.9570 O.2    48  ALA48      -0.2867
     35  CB        52.7660   23.5740   -4.1200 C.3    48  ALA48       0.0290
     36  N         48.7750   27.7530   -4.6670 N.3    50  LYS50      -0.1245
     37  CA        47.8580   28.0710   -3.5750 C.3    50  LYS50       0.1561
     38  C         46.9780   29.2790   -3.9050 C.2    50  LYS50       0.2260
     39  O         47.4760   30.3090   -4.3510 O.2    50  LYS50      -0.2867
     40  CB        48.6660   28.3240   -2.3030 C.3    50  LYS50       0.0271
     41  CG        47.8640   28.7390   -1.0800 C.3    50  LYS50       0.0035
     42  CD        48.7440   28.6650    0.1590 C.3    50  LYS50       0.0206
     43  CE        48.3340   29.6720    1.2220 C.3    50  LYS50       0.1093
     44  NZ        49.3210   29.7050    2.3390 N.3    50  LYS50      -0.1314
     45  N         52.3390   37.2470    2.5530 N.3    67  GLU67      -0.1245
     46  CA        53.0030   35.9440    2.5120 C.3    67  GLU67       0.1567
     47  C         53.9360   35.8250    1.2990 C.2    67  GLU67       0.2260
     48  O         55.0140   35.2390    1.3870 O.2    67  GLU67      -0.2867
     49  CB        51.9460   34.8370    2.4880 C.3    67  GLU67       0.0388
     50  CG        52.4800   33.4220    2.6150 C.3    67  GLU67       0.1160
     51  CD        51.3730   32.3880    2.5630 C.2    67  GLU67       0.3649
     52  OE1       50.2180   32.7190    2.9090 O.co2  67  GLU67      -0.2457
     53  OE2       51.6570   31.2380    2.1740 O.co2  67  GLU67      -0.2457
     54  N         58.1570   35.2200    1.2930 N.3    71  MET71      -0.1245
     55  CA        58.6660   34.0550    0.5410 C.3    71  MET71       0.1570
     56  C         59.5410   34.4690   -0.6320 C.2    71  MET71       0.2261
     57  O         60.4630   33.7460   -1.0070 O.2    71  MET71      -0.2867
     58  CB        57.5320   33.1960   -0.0100 C.3    71  MET71       0.0387
     59  CG        56.8400   32.3030    0.9950 C.3    71  MET71       0.0595
     60  SD        55.8160   31.0980    0.1320 S.3    71  MET71      -0.1393
     61  CE        56.9520   29.7220   -0.0340 C.3    71  MET71       0.0692
     62  N         61.4910   27.3850    2.0600 N.3    80  CYS80      -0.1235
     63  CA        60.7000   27.3580    0.8250 C.3    80  CYS80       0.1677
     64  C         60.6090   28.7490    0.2310 C.2    80  CYS80       0.2270
     65  O         60.2910   29.7110    0.9300 O.2    80  CYS80      -0.2867
     66  CB        59.2990   26.7950    1.0660 C.3    80  CYS80       0.0956
     67  SG        59.2830   24.9950    1.1830 S.3    80  CYS80      -0.0801
     68  N         49.7070   31.8940   -5.3070 N.3    93  LEU93      -0.1245
     69  CA        51.1120   31.7270   -4.9560 C.3    93  LEU93       0.1561
     70  C         51.6370   30.4540   -5.6020 C.2    93  LEU93       0.2260
     71  O         51.0390   29.3900   -5.4460 O.2    93  LEU93      -0.2867
     72  CB        51.2830   31.6300   -3.4420 C.3    93  LEU93       0.0270
     73  CG        50.7810   32.8020   -2.5980 C.3    93  LEU93       0.0019
     74  CD1       51.1440   32.5830   -1.1370 C.3    93  LEU93       0.0001
     75  CD2       51.3430   34.1260   -3.0870 C.3    93  LEU93       0.0001
     76  N         54.9050   27.9040   -5.7850 N.3    95  THR95      -0.1203
     77  CA        56.1420   27.4850   -5.1350 C.3    95  THR95       0.1994
     78  C         56.5830   26.1370   -5.6550 C.2    95  THR95       0.2618
     79  O         55.8420   25.4510   -6.3530 O.2    95  THR95      -0.2717
     80  CB        55.9830   27.3410   -3.6090 C.3    95  THR95       0.1784
     81  OG1       54.9050   26.4410   -3.3200 O.3    95  THR95      -0.2211
     82  CG2       55.7130   28.6840   -2.9650 C.3    95  THR95       0.0376
     83  N         57.8030   25.7670   -5.2930 N.am   96  GLN96      -0.1965
     84  CA        58.3360   24.4580   -5.5940 C.3    96  GLN96       0.1733
     85  C         57.4760   23.3980   -4.9250 C.2    96  GLN96       0.2616
     86  O         57.1500   23.5210   -3.7470 O.2    96  GLN96      -0.2715
     87  CB        59.7580   24.3670   -5.0630 C.3    96  GLN96       0.0408
     88  CG        60.4490   23.0520   -5.3530 C.3    96  GLN96       0.0908
     89  CD        61.7110   22.8730   -4.5390 C.2    96  GLN96       0.2608
     90  OE1       61.9110   23.5330   -3.5150 O.2    96  GLN96      -0.2717
     91  NE2       62.5610   21.9590   -4.9790 N.am   96  GLN96      -0.0878
     92  N         57.1130   22.3600   -5.6720 N.am   97  LEU97      -0.1963
     93  CA        56.3810   21.2380   -5.0970 C.3    97  LEU97       0.1728
     94  C         57.2770   20.4880   -4.1160 C.2    97  LEU97       0.2616
     95  O         58.4190   20.1550   -4.4360 O.2    97  LEU97      -0.2715
     96  CB        55.8970   20.2820   -6.1900 C.3    97  LEU97       0.0311
     97  CG        55.0600   19.0850   -5.7210 C.3    97  LEU97       0.0022
     98  CD1       53.8070   19.5390   -4.9890 C.3    97  LEU97       0.0001
     99  CD2       54.6940   18.1980   -6.8980 C.3    97  LEU97       0.0001
    100  N         56.7550   20.2450   -2.9180 N.am   98  MET98      -0.1964
    101  CA        57.4250   19.4220   -1.9140 C.3    98  MET98       0.1722
    102  C         56.6450   18.1100   -1.8230 C.2    98  MET98       0.2458
    103  O         55.7530   17.9750   -0.9860 O.2    98  MET98      -0.2730
    104  CB        57.4550   20.1480   -0.5690 C.3    98  MET98       0.0427
    105  CG        58.1030   21.5230   -0.6290 C.3    98  MET98       0.0599
    106  SD        59.8660   21.4540   -1.0060 S.3    98  MET98      -0.1393
    107  CE        60.5190   21.0340    0.6070 C.3    98  MET98       0.0692
    108  N         56.9870   17.1320   -2.6890 N.am   99  PRO99      -0.2716
    109  CA        56.0700   16.0240   -2.9990 C.3    99  PRO99       0.1536
    110  C         55.6520   15.1650   -1.8090 C.2    99  PRO99       0.2599
    111  O         54.5510   14.6240   -1.8070 O.2    99  PRO99      -0.2715
    112  CB        56.8570   15.1730   -4.0200 C.3    99  PRO99       0.0310
    113  CG        58.0280   15.9990   -4.4340 C.3    99  PRO99       0.0237
    114  CD        58.3200   16.9080   -3.2810 C.3    99  PRO99       0.0939
    115  N         56.5180   15.0450   -0.8110 N.am  100  PHE100     -0.1960
    116  CA        56.2550   14.1660    0.3280 C.3   100  PHE100      0.1771
    117  C         55.4350   14.8340    1.4340 C.2   100  PHE100      0.2620
    118  O         55.2320   14.2460    2.4970 O.2   100  PHE100     -0.2715
    119  CB        57.5760   13.6200    0.8790 C.3   100  PHE100      0.0574
    120  CG        58.2780   12.6900   -0.0660 C.ar  100  PHE100     -0.0200
    121  CD1       59.1250   13.1880   -1.0430 C.ar  100  PHE100     -0.0042
    122  CD2       58.0790   11.3190    0.0120 C.ar  100  PHE100     -0.0042
    123  CE1       59.7700   12.3360   -1.9230 C.ar  100  PHE100     -0.0003
    124  CE2       58.7220   10.4590   -0.8620 C.ar  100  PHE100     -0.0003
    125  CZ        59.5680   10.9680   -1.8320 C.ar  100  PHE100     -0.0000
    126  N         54.9670   16.0560    1.1810 N.am  101  GLY101     -0.1940
    127  CA        54.0540   16.7430    2.0870 C.3   101  GLY101      0.2014
    128  C         54.7270   17.2790    3.3350 C.2   101  GLY101      0.2639
    129  O         55.9510   17.4350    3.3730 O.2   101  GLY101     -0.2714
    130  N         53.9170   17.5600    4.3560 N.am  102  CYS102     -0.1967
    131  CA        54.4130   18.1250    5.6050 C.3   102  CYS102      0.1712
    132  C         55.0620   17.0450    6.4580 C.2   102  CYS102      0.2296
    133  O         54.6610   15.8830    6.4230 O.2   102  CYS102     -0.2864
    134  CB        53.2950   18.8270    6.3800 C.3   102  CYS102      0.0983
    135  SG        52.1090   17.7300    7.1860 S.3   102  CYS102     -0.0798
    136  N         52.9300   14.8170    9.0760 N.3   105  ASP105     -0.1239
    137  CA        52.2700   13.6480    8.5020 C.3   105  ASP105      0.1674
    138  C         53.2760   12.5730    8.1090 C.2   105  ASP105      0.2266
    139  O         52.9650   11.3880    8.1750 O.2   105  ASP105     -0.2867
    140  CB        51.4130   14.0380    7.2930 C.3   105  ASP105      0.1410
    141  CG        50.1770   14.8290    7.6840 C.2   105  ASP105      0.3668
    142  OD1       49.6920   14.6720    8.8240 O.co2 105  ASP105     -0.2456
    143  OD2       49.6830   15.6070    6.8450 O.co2 105  ASP105     -0.2456
    144  N         54.1780   20.7150   11.2240 N.3   146  ARG146     -0.1231
    145  CA        53.1850   20.8860   10.1590 C.3   146  ARG146      0.1694
    146  C         53.6000   21.9230    9.0980 C.2   146  ARG146      0.2592
    147  O         53.1940   21.8230    7.9390 O.2   146  ARG146     -0.2718
    148  CB        51.8220   21.2150   10.8030 C.3   146  ARG146      0.0321
    149  CG        51.0560   22.4040   10.2540 C.3   146  ARG146      0.0489
    150  CD        50.1740   23.0080   11.3370 C.3   146  ARG146      0.2205
    151  NE        50.9320   23.8990   12.2200 N.pl3 146  ARG146     -0.0865
    152  CZ        50.5870   24.2260   13.4660 C.cat 146  ARG146      0.5346
    153  NH1       49.4900   23.7270   14.0270 N.pl3 146  ARG146      0.1354
    154  NH2       51.3550   25.0520   14.1700 N.pl3 146  ARG146      0.1354
    155  N         54.4090   22.9040    9.4990 N.am  147  ASN147     -0.1974
    156  CA        54.9110   23.9440    8.5860 C.3   147  ASN147      0.1688
    157  C         56.3590   23.7080    8.1410 C.2   147  ASN147      0.2292
    158  O         57.0740   24.6490    7.7820 O.2   147  ASN147     -0.2864
    159  CB        54.7770   25.3310    9.2290 C.3   147  ASN147      0.1181
    160  CG        53.3300   25.7240    9.4820 C.2   147  ASN147      0.2629
    161  OD1       52.4330   25.3900    8.7070 O.2   147  ASN147     -0.2716
    162  ND2       53.0990   26.4440   10.5720 N.am  147  ASN147     -0.0877
    163  N         58.1330   21.1890    5.2910 N.3   149  LEU149     -0.1245
    164  CA        57.7930   20.2890    4.1940 C.3   149  LEU149      0.1561
    165  C         58.9790   19.4120    3.8230 C.2   149  LEU149      0.2260
    166  O         60.1330   19.7320    4.1410 O.2   149  LEU149     -0.2867
    167  CB        57.3020   21.0710    2.9710 C.3   149  LEU149      0.0270
    168  CG        56.0650   21.9580    3.1880 C.3   149  LEU149      0.0019
    169  CD1       55.7300   22.7190    1.9130 C.3   149  LEU149      0.0001
    170  CD2       54.8610   21.1580    3.6700 C.3   149  LEU149      0.0001
    171  N         58.3420   26.3960    5.6450 N.3   159  THR159     -0.1203
    172  CA        57.4040   27.1430    4.8020 C.3   159  THR159      0.1994
    173  C         56.3560   27.8640    5.6620 C.2   159  THR159      0.2617
    174  O         56.5960   28.1070    6.8450 O.2   159  THR159     -0.2717
    175  CB        56.7270   26.1950    3.7860 C.3   159  THR159      0.1784
    176  OG1       55.9960   26.9570    2.8130 O.3   159  THR159     -0.2211
    177  CG2       55.7970   25.2010    4.4880 C.3   159  THR159      0.0376
    178  N         55.2080   28.1990    5.0590 N.am  160  ASP160     -0.1973
    179  CA        54.0700   28.8180    5.7590 C.3   160  ASP160      0.1709
    180  C         54.2990   30.1340    6.4940 C.2   160  ASP160      0.2293
    181  O         54.0730   30.2400    7.7020 O.2   160  ASP160     -0.2864
    182  CB        53.3920   27.8110    6.7010 C.3   160  ASP160      0.1436
    183  CG        52.0800   27.2800    6.1520 C.2   160  ASP160      0.3671
    184  OD1       51.0780   28.0270    6.1770 O.co2 160  ASP160     -0.2456
    185  OD2       52.0390   26.1050    5.7240 O.co2 160  ASP160     -0.2456
@<TRIPOS>BOND
     1    99    97    1
     2    31    32    1
     3    79    78    2
     4    96    97    1
     5    96    93    1
     6    34    33    2
     7    33    32    1
     8    76    77    1
     9    97    98    1
    10    92    93    1
    11    92    85   am
    12    78    83   am
    13    78    77    1
    14    70    71    2
    15    70    69    1
    16    32    35    1
    17    84    83    1
    18    84    87    1
    19    84    85    1
    20    88    87    1
    21    88    89    1
    22    68    69    1
    23    77    80    1
    24    93    94    1
    25    91    89   am
    26    69    72    1
    27    85    86    2
    28    36    37    1
    29    89    90    2
    30    95    94    2
    31   113   112    1
    32   113   114    1
    33    39    38    2
    34    94   100   am
    35   112   109    1
    36    38    37    1
    37    26    27    2
    38    26    25    1
    39     1     2    1
    40     6     8    1
    41     6     7    1
    42     6     5    1
    43    80    81    1
    44    80    82    1
    45    37    40    1
    46    72    73    1
    47   114   108    1
    48    75    73    1
    49   109   108    1
    50   109   110    1
    51   100   101    1
    52   108   102   am
    53    25    24    1
    54    25    28    1
    55     2     5    1
    56     2     3    1
    57    73    74    1
    58    40    41    1
    59    29    28    1
    60   123   125   ar
    61   123   121   ar
    62   101   102    1
    63   101   104    1
    64   125   124   ar
    65   102   103    2
    66   110   111    2
    67   110   115   am
    68    28    30    1
    69     3     9   am
    70     3     4    2
    71    41    42    1
    72   121   120   ar
    73    57    56    2
    74   106   105    1
    75   106   107    1
    76     9    10    1
    77   124   122   ar
    78   115   116    1
    79    12    11    2
    80    56    55    1
    81   105   104    1
    82   120   122   ar
    83   120   119    1
    84    61    60    1
    85    58    55    1
    86    58    59    1
    87    60    59    1
    88    42    43    1
    89    64    63    1
    90    64    65    2
    91    11    10    1
    92   116   119    1
    93   116   117    1
    94    55    54    1
    95    63    66    1
    96    63    62    1
    97    66    67    1
    98   126   117   am
    99   126   127    1
   100    43    44    1
   101    47    48    2
   102    47    46    1
   103   117   118    2
   104   169   168    1
   105   127   128    1
   106    53    51   ar
   107    16    15    2
   108    49    46    1
   109    49    50    1
   110    46    45    1
   111    51    50    1
   112    51    52   ar
   113    21    19   ar
   114    21    23   ar
   115   176   175    1
   116    15    14    1
   117    19    18   ar
   118   167   168    1
   119   167   164    1
   120   168   170    1
   121   128   129    2
   122   128   130   am
   123    23    22   ar
   124   175   177    1
   125   175   172    1
   126   165   166    2
   127   165   164    1
   128    18    17    1
   129    18    20   ar
   130   164   163    1
   131    14    17    1
   132    14    13    1
   133   130   131    1
   134   172   171    1
   135   172   173    1
   136    22    20   ar
   137   178   173   am
   138   178   179    1
   139   131   134    1
   140   131   132    1
   141   173   174    2
   142   185   183   ar
   143   179   180    1
   144   179   182    1
   145   183   184   ar
   146   183   182    1
   147   134   135    1
   148   133   132    2
   149   180   181    2
   150   143   141   ar
   151   140   141    1
   152   140   137    1
   153   141   142   ar
   154   158   157    2
   155   147   146    2
   156   138   139    2
   157   138   137    1
   158   157   156    1
   159   137   136    1
   160   156   159    1
   161   156   155    1
   162   161   160    2
   163   146   155   am
   164   146   145    1
   165   159   160    1
   166   160   162   am
   167   145   148    1
   168   145   144    1
   169   149   148    1
   170   149   150    1
   171   150   151    1
   172   151   152    2
   173   152   153    1
   174   152   154    1
