@<TRIPOS>MOLECULE
tmp/4jr5B00.pdb
 139 130 0 0 0
SMALL
GASTEIGER

@<TRIPOS>ATOM
      1  N          8.3250    5.2760   46.4330 N.3   172  TYR172     -0.1241
      2  CA         8.5540    3.8380   46.2450 C.3   172  TYR172      0.1605
      3  C          7.3450    3.1040   45.6620 C.2   172  TYR172      0.2264
      4  O          7.3430    1.8760   45.5900 O.2   172  TYR172     -0.2867
      5  CB         8.9680    3.1710   47.5630 C.3   172  TYR172      0.0534
      6  CG        10.3370    3.6000   48.0270 C.ar  172  TYR172     -0.0201
      7  CD1       11.4810    3.0020   47.5140 C.ar  172  TYR172     -0.0009
      8  CD2       10.4900    4.6200   48.9590 C.ar  172  TYR172     -0.0009
      9  CE1       12.7450    3.4000   47.9260 C.ar  172  TYR172      0.0417
     10  CE2       11.7480    5.0290   49.3720 C.ar  172  TYR172      0.0417
     11  CZ        12.8700    4.4140   48.8510 C.ar  172  TYR172      0.1957
     12  OH        14.1200    4.8110   49.2600 O.3   172  TYR172     -0.2866
     13  N          7.6420    0.9290   40.8160 N.3   175  HIS175     -0.1241
     14  CA         8.9560    0.3040   40.7110 C.3   175  HIS175      0.1621
     15  C          9.2820   -0.0800   39.2560 C.2   175  HIS175      0.2264
     16  O          8.4490   -0.6420   38.5540 O.2   175  HIS175     -0.2867
     17  CB         8.9810   -0.9460   41.5880 C.3   175  HIS175      0.0745
     18  CG        10.3580   -1.4390   41.9070 C.ar  175  HIS175      0.0817
     19  ND1       11.0480   -1.0280   43.0260 N.ar  175  HIS175     -0.2268
     20  CD2       11.1680   -2.3130   41.2650 C.ar  175  HIS175      0.1154
     21  CE1       12.2250   -1.6270   43.0600 C.ar  175  HIS175      0.1986
     22  NE2       12.3250   -2.4130   42.0040 N.ar  175  HIS175     -0.2212
     23  N         10.4450   -2.2600   36.4520 N.3   177  PHE177     -0.1241
     24  CA        10.6680   -3.6720   36.1040 C.3   177  PHE177      0.1605
     25  C         11.1410   -3.8280   34.6550 C.2   177  PHE177      0.2264
     26  O         11.0440   -4.9160   34.1030 O.2   177  PHE177     -0.2867
     27  CB         9.3600   -4.4750   36.1670 C.3   177  PHE177      0.0534
     28  CG         8.8620   -4.7870   37.5580 C.ar  177  PHE177     -0.0203
     29  CD1        9.5480   -4.3880   38.6860 C.ar  177  PHE177     -0.0042
     30  CD2        7.6910   -5.5210   37.7140 C.ar  177  PHE177     -0.0042
     31  CE1        9.0650   -4.6920   39.9580 C.ar  177  PHE177     -0.0003
     32  CE2        7.2060   -5.8310   38.9730 C.ar  177  PHE177     -0.0003
     33  CZ         7.8960   -5.4160   40.0980 C.ar  177  PHE177     -0.0000
     34  N         14.4070   -6.1720   31.1140 N.3   180  ARG180     -0.1245
     35  CA        14.3660   -7.1950   30.0730 C.3   180  ARG180      0.1563
     36  C         13.5260   -6.7210   28.8980 C.2   180  ARG180      0.2260
     37  O         13.6360   -7.2510   27.7860 O.2   180  ARG180     -0.2867
     38  CB        13.7810   -8.5010   30.6160 C.3   180  ARG180      0.0307
     39  CG        12.2550   -8.5380   30.6240 C.3   180  ARG180      0.0489
     40  CD        11.7260   -9.6370   31.5440 C.3   180  ARG180      0.2205
     41  NE        12.2350   -9.5040   32.9070 N.pl3 180  ARG180     -0.0865
     42  CZ        11.9840  -10.3850   33.8720 C.cat 180  ARG180      0.5346
     43  NH1       11.2380  -11.4550   33.6130 N.pl3 180  ARG180      0.1354
     44  NH2       12.4790  -10.2070   35.0910 N.pl3 180  ARG180      0.1354
     45  N         14.7240   -2.0360   39.5260 N.3   203  ASP203     -0.1239
     46  CA        15.4810   -3.2770   39.3780 C.3   203  ASP203      0.1674
     47  C         16.3660   -3.1950   38.1290 C.2   203  ASP203      0.2266
     48  O         17.0660   -4.1440   37.7710 O.2   203  ASP203     -0.2867
     49  CB        14.5400   -4.4810   39.2740 C.3   203  ASP203      0.1410
     50  CG        14.3380   -5.1800   40.6090 C.2   203  ASP203      0.3668
     51  OD1       14.0650   -4.4760   41.6020 O.co2 203  ASP203     -0.2456
     52  OD2       14.4590   -6.4300   40.6640 O.co2 203  ASP203     -0.2456
     53  N         14.5190   -4.6000   46.5660 N.3   226  VAL226     -0.1245
     54  CA        14.3600   -5.5410   47.6720 C.3   226  VAL226      0.1561
     55  C         14.3470   -6.9460   47.0940 C.2   226  VAL226      0.2260
     56  O         14.0580   -7.1280   45.8990 O.2   226  VAL226     -0.2867
     57  CB        13.0450   -5.3230   48.4600 C.3   226  VAL226      0.0252
     58  CG1       13.0070   -3.9360   49.0950 C.3   226  VAL226      0.0019
     59  CG2       11.8400   -5.5590   47.5700 C.3   226  VAL226      0.0019
     60  N         13.1210  -10.5200   46.0120 N.3   228  ALA228     -0.1231
     61  CA        11.8500  -10.8960   45.4390 C.3   228  ALA228      0.1694
     62  C         12.0300  -12.2030   44.6870 C.2   228  ALA228      0.2591
     63  O         13.0930  -12.4510   44.1230 O.2   228  ALA228     -0.2718
     64  CB        11.3670   -9.8020   44.4970 C.3   228  ALA228      0.0304
     65  N         10.9930  -13.0320   44.6770 N.am  229  ALA229     -0.1980
     66  CA        11.0170  -14.2700   43.9210 C.3   229  ALA229      0.1597
     67  C         10.6770  -14.0040   42.4550 C.2   229  ALA229      0.2287
     68  O         10.2060  -12.9230   42.1030 O.2   229  ALA229     -0.2864
     69  CB        10.0310  -15.2700   44.5240 C.3   229  ALA229      0.0319
     70  N         12.3090   -6.7780   53.7220 N.3   257  PRO257     -0.2116
     71  CA        11.0580   -6.9620   52.9720 C.3   257  PRO257      0.1372
     72  C         11.2860   -8.0140   51.8940 C.2   257  PRO257      0.2244
     73  O         12.4100   -8.1230   51.4070 O.2   257  PRO257     -0.2868
     74  CB        10.8400   -5.6030   52.3020 C.3   257  PRO257      0.0268
     75  CG        11.7400   -4.6540   53.0050 C.3   257  PRO257      0.0207
     76  CD        12.8890   -5.4400   53.5120 C.3   257  PRO257      0.0892
     77  N          9.2400   -9.8390   48.3680 N.3   259  SER259     -0.1217
     78  CA         8.0540  -10.0870   47.5690 C.3   259  SER259      0.1889
     79  C          8.0800  -11.4920   46.9870 C.2   259  SER259      0.2288
     80  O          9.1180  -11.9820   46.5420 O.2   259  SER259     -0.2866
     81  CB         7.8620   -9.0340   46.4760 C.3   259  SER259      0.2089
     82  OG         8.3540   -9.5000   45.2310 O.3   259  SER259     -0.2183
     83  N          8.0580   -6.3570   55.6070 N.3   291  PRO291     -0.2116
     84  CA         6.7930   -7.0100   55.2760 C.3   291  PRO291      0.1372
     85  C          6.9590   -8.0890   54.2180 C.2   291  PRO291      0.2244
     86  O          7.9450   -8.0860   53.4670 O.2   291  PRO291     -0.2868
     87  CB         5.9650   -5.8610   54.6990 C.3   291  PRO291      0.0268
     88  CG         6.9940   -4.9440   54.0920 C.3   291  PRO291      0.0207
     89  CD         8.1090   -4.9680   55.1060 C.3   291  PRO291      0.0892
     90  N          5.4860   -9.0210   50.7240 N.3   293  ILE293     -0.1245
     91  CA         4.7000   -8.3930   49.6850 C.3   293  ILE293      0.1561
     92  C          4.2200   -9.4990   48.7360 C.2   293  ILE293      0.2260
     93  O          5.0170  -10.1760   48.0900 O.2   293  ILE293     -0.2867
     94  CB         5.4820   -7.2890   48.9540 C.3   293  ILE293      0.0252
     95  CG1        6.0370   -6.2590   49.9530 C.3   293  ILE293      0.0019
     96  CG2        4.5820   -6.5700   47.9620 C.3   293  ILE293      0.0019
     97  CD1        7.4870   -6.4770   50.3510 C.3   293  ILE293      0.0001
     98  N          2.5820  -10.8920   45.4380 N.3   295  ARG295     -0.1245
     99  CA         2.6110  -10.3640   44.0820 C.3   295  ARG295      0.1563
    100  C          1.7950  -11.2330   43.1300 C.2   295  ARG295      0.2260
    101  O          2.2320  -12.3140   42.7380 O.2   295  ARG295     -0.2867
    102  CB         4.0580  -10.2580   43.6000 C.3   295  ARG295      0.0307
    103  CG         4.1900   -9.8610   42.1320 C.3   295  ARG295      0.0489
    104  CD         5.6600   -9.8730   41.7160 C.3   295  ARG295      0.2205
    105  NE         5.7980   -9.9610   40.2630 N.pl3 295  ARG295     -0.0865
    106  CZ         6.7630  -10.6360   39.6560 C.cat 295  ARG295      0.5346
    107  NH1        6.8160  -10.6730   38.3330 N.pl3 295  ARG295      0.1354
    108  NH2        7.6810  -11.2700   40.3800 N.pl3 295  ARG295      0.1354
    109  N          1.8040   -6.5280   52.4850 N.3   333  ARG333     -0.1231
    110  CA         1.4770   -5.6040   51.3990 C.3   333  ARG333      0.1694
    111  C          1.2630   -6.3590   50.0900 C.2   333  ARG333      0.2592
    112  O          1.4890   -7.5740   50.0140 O.2   333  ARG333     -0.2718
    113  CB         2.5750   -4.5460   51.2380 C.3   333  ARG333      0.0321
    114  CG         2.6420   -3.5370   52.3990 C.3   333  ARG333      0.0489
    115  CD         1.3750   -2.6890   52.4430 C.3   333  ARG333      0.2205
    116  NE         1.4220   -1.6150   53.4390 N.pl3 333  ARG333     -0.0865
    117  CZ         0.8000   -1.6650   54.6150 C.cat 333  ARG333      0.5346
    118  NH1        0.1060   -2.7440   54.9570 N.pl3 333  ARG333      0.1354
    119  NH2        0.8780   -0.6400   55.4550 N.pl3 333  ARG333      0.1354
    120  N          0.8320   -5.6350   49.0640 N.am  334  VAL334     -0.1966
    121  CA         0.6130   -6.2350   47.7480 C.3   334  VAL334      0.1727
    122  C          1.3610   -5.4210   46.7000 C.2   334  VAL334      0.2616
    123  O          1.4850   -4.2020   46.8330 O.2   334  VAL334     -0.2715
    124  CB        -0.8880   -6.2670   47.4080 C.3   334  VAL334      0.0290
    125  CG1       -1.1330   -6.7860   45.9820 C.3   334  VAL334      0.0023
    126  CG2       -1.6410   -7.1150   48.4370 C.3   334  VAL334      0.0023
    127  N          1.8770   -6.0830   45.6660 N.am  335  ILE335     -0.1977
    128  CA         2.3870   -5.3510   44.5170 C.3   335  ILE335      0.1596
    129  C          1.8320   -5.9350   43.2170 C.2   335  ILE335      0.2287
    130  O          1.8590   -7.1500   43.0070 O.2   335  ILE335     -0.2864
    131  CB         3.9350   -5.2850   44.4640 C.3   335  ILE335      0.0276
    132  CG1        4.3720   -4.4260   43.2730 C.3   335  ILE335      0.0022
    133  CG2        4.5500   -6.6920   44.3730 C.3   335  ILE335      0.0022
    134  CD1        5.8320   -4.0460   43.2720 C.3   335  ILE335      0.0001
    135  N          1.5770   -1.3780   45.8540 N.3   363  ALA363     -0.1245
    136  CA         2.6330   -0.7440   45.0860 C.3   363  ALA363      0.1562
    137  C          2.5160   -1.2770   43.6660 C.2   363  ALA363      0.2260
    138  O          1.8160   -2.2580   43.4220 O.2   363  ALA363     -0.2867
    139  CB         3.9880   -1.0800   45.6640 C.3   363  ALA363      0.0290
@<TRIPOS>BOND
     1    37    36    2
     2    36    35    1
     3    35    38    1
     4    35    34    1
     5    38    39    1
     6    39    40    1
     7    40    41    1
     8    41    42    2
     9    43    42    1
    10    42    44    1
    11    26    25    2
    12    25    24    1
    13    24    27    1
    14    24    23    1
    15    27    28    1
    16    28    30   ar
    17    28    29   ar
    18    30    32   ar
    19    48    47    2
    20    47    46    1
    21   107   106    1
    22    16    15    2
    23    29    31   ar
    24    32    33   ar
    25    15    14    1
    26    49    46    1
    27    49    50    1
    28    46    45    1
    29   106   105    2
    30   106   108    1
    31    31    33   ar
    32   105   104    1
    33    50    52   ar
    34    50    51   ar
    35    14    13    1
    36    14    17    1
    37    20    18   ar
    38    20    22   ar
    39    17    18    1
    40   104   103    1
    41    18    19   ar
    42    22    21   ar
    43    68    67    2
    44   103   102    1
    45    67    66    1
    46   101   100    2
    47   130   129    2
    48    19    21   ar
    49   100    99    1
    50   129   128    1
    51   134   132    1
    52   132   131    1
    53   138   137    2
    54   102    99    1
    55   137   136    1
    56    66    69    1
    57    66    65    1
    58    99    98    1
    59    63    62    2
    60   133   131    1
    61   131   128    1
    62    64    61    1
    63   128   127    1
    64    65    62   am
    65    62    61    1
    66   136   139    1
    67   136   135    1
    68    82    81    1
    69    61    60    1
    70     4     3    2
    71     3     2    1
    72   127   122   am
    73    56    55    2
    74   125   124    1
    75     2     1    1
    76     2     5    1
    77    81    78    1
    78    80    79    2
    79    53    54    1
    80   122   123    2
    81   122   121    1
    82    79    78    1
    83    55    54    1
    84   124   121    1
    85   124   126    1
    86     7     9   ar
    87     7     6   ar
    88     5     6    1
    89    78    77    1
    90    59    57    1
    91    54    57    1
    92   121   120    1
    93     9    11   ar
    94    96    94    1
    95     6     8   ar
    96    93    92    2
    97    57    58    1
    98    92    91    1
    99    11    12    1
   100    11    10   ar
   101    94    91    1
   102    94    95    1
   103     8    10   ar
   104   120   111   am
   105    91    90    1
   106    95    97    1
   107   112   111    2
   108   111   110    1
   109   113   110    1
   110   113   114    1
   111   110   109    1
   112    73    72    2
   113    72    71    1
   114    74    71    1
   115    74    75    1
   116   114   115    1
   117   115   116    1
   118    71    70    1
   119    75    76    1
   120   116   117    2
   121    86    85    2
   122    76    70    1
   123    88    87    1
   124    88    89    1
   125    85    84    1
   126   117   118    1
   127   117   119    1
   128    87    84    1
   129    89    83    1
   130    84    83    1
