@<TRIPOS>MOLECULE
tmp/4jr9A00.pdb
 90 88 0 0 0
SMALL
GASTEIGER

@<TRIPOS>ATOM
      1  N          9.7430  -30.1580   29.9030 N.3   215  LEU215     -0.1245
      2  CA         9.6360  -30.5720   28.5030 C.3   215  LEU215      0.1561
      3  C          8.5580  -29.7790   27.7770 C.2   215  LEU215      0.2260
      4  O          8.7530  -29.3390   26.6450 O.2   215  LEU215     -0.2867
      5  CB         9.3350  -32.0750   28.4050 C.3   215  LEU215      0.0270
      6  CG         9.0450  -32.6880   27.0280 C.3   215  LEU215      0.0019
      7  CD1       10.1530  -32.3510   26.0450 C.3   215  LEU215      0.0001
      8  CD2        8.8530  -34.1960   27.1180 C.3   215  LEU215      0.0001
      9  N         11.0260  -27.1670   26.1030 N.3   219  GLY219     -0.1210
     10  CA        11.0180  -27.9290   24.8490 C.3   219  GLY219      0.1956
     11  C         10.1440  -27.2710   23.7970 C.2   219  GLY219      0.2612
     12  O         10.3710  -27.4320   22.5970 O.2   219  GLY219     -0.2717
     13  N          9.1550  -26.5160   24.2670 N.am  220  SER220     -0.1952
     14  CA         8.2740  -25.7430   23.4150 C.3   220  SER220      0.1924
     15  C          8.9210  -24.4520   22.9360 C.2   220  SER220      0.2314
     16  O          8.7880  -24.1000   21.7620 O.2   220  SER220     -0.2863
     17  CB         6.9530  -25.4600   24.1240 C.3   220  SER220      0.2116
     18  OG         6.2430  -26.6710   24.3240 O.3   220  SER220     -0.2180
     19  N         14.2780  -32.5490   24.3800 N.3   367  ILE367     -0.1231
     20  CA        13.7170  -33.4810   23.4000 C.3   367  ILE367      0.1692
     21  C         12.5470  -32.8350   22.6390 C.2   367  ILE367      0.2592
     22  O         12.1910  -33.2630   21.5370 O.2   367  ILE367     -0.2718
     23  CB        13.3270  -34.8280   24.0780 C.3   367  ILE367      0.0266
     24  CG1       13.9120  -36.0190   23.3030 C.3   367  ILE367      0.0019
     25  CG2       11.8210  -34.9520   24.3020 C.3   367  ILE367      0.0020
     26  CD1       14.3050  -37.1940   24.1790 C.3   367  ILE367      0.0001
     27  N         11.9830  -31.7830   23.2300 N.am  368  GLY368     -0.1957
     28  CA        10.8630  -31.0530   22.6520 C.3   368  GLY368      0.1869
     29  C         11.2100  -30.2860   21.3950 C.2   368  GLY368      0.2309
     30  O         10.3750  -30.1450   20.5010 O.2   368  GLY368     -0.2863
     31  N         10.7270  -32.8130   18.6030 N.3   371  PHE371     -0.1227
     32  CA         9.3530  -33.2010   18.3170 C.3   371  PHE371      0.1736
     33  C          8.5610  -32.1190   17.5850 C.2   371  PHE371      0.2595
     34  O          8.1030  -32.3560   16.4720 O.2   371  PHE371     -0.2718
     35  CB         8.6150  -33.6440   19.5800 C.3   371  PHE371      0.0547
     36  CG         7.3200  -34.3590   19.2990 C.ar  371  PHE371     -0.0202
     37  CD1        6.1670  -33.6470   18.9650 C.ar  371  PHE371     -0.0042
     38  CD2        7.2520  -35.7480   19.3650 C.ar  371  PHE371     -0.0042
     39  CE1        4.9750  -34.3060   18.7030 C.ar  371  PHE371     -0.0003
     40  CE2        6.0600  -36.4110   19.1040 C.ar  371  PHE371     -0.0003
     41  CZ         4.9210  -35.6890   18.7730 C.ar  371  PHE371     -0.0000
     42  N          8.4040  -30.9500   18.2020 N.am  372  ILE372     -0.1980
     43  CA         7.5970  -29.8640   17.6220 C.3   372  ILE372      0.1595
     44  C          7.8440  -29.6180   16.1200 C.2   372  ILE372      0.2287
     45  O          6.8830  -29.5900   15.3440 O.2   372  ILE372     -0.2864
     46  CB         7.7090  -28.5520   18.4380 C.3   372  ILE372      0.0276
     47  CG1        6.9660  -28.6980   19.7670 C.3   372  ILE372      0.0022
     48  CG2        7.1810  -27.3580   17.6450 C.3   372  ILE372      0.0022
     49  CD1        7.0270  -27.4680   20.6440 C.3   372  ILE372      0.0001
     50  N         -2.0140  -32.1530   18.1400 N.3   392  VAL392     -0.1231
     51  CA        -1.2900  -32.9340   19.1520 C.3   392  VAL392      0.1692
     52  C         -0.7510  -32.0390   20.2770 C.2   392  VAL392      0.2592
     53  O         -0.7470  -32.4410   21.4390 O.2   392  VAL392     -0.2718
     54  CB        -0.1500  -33.7870   18.5370 C.3   392  VAL392      0.0266
     55  CG1        0.3950  -34.7810   19.5530 C.3   392  VAL392      0.0020
     56  CG2       -0.6390  -34.5410   17.3080 C.3   392  VAL392      0.0020
     57  N         -0.3200  -30.8260   19.9280 N.am  393  PHE393     -0.1976
     58  CA         0.1660  -29.8630   20.9230 C.3   393  PHE393      0.1639
     59  C         -0.9650  -29.4720   21.8650 C.2   393  PHE393      0.2290
     60  O         -0.7850  -29.4590   23.0820 O.2   393  PHE393     -0.2864
     61  CB         0.7710  -28.5970   20.2830 C.3   393  PHE393      0.0560
     62  CG         1.8120  -28.8640   19.2200 C.ar  393  PHE393     -0.0200
     63  CD1        2.5240  -30.0660   19.1780 C.ar  393  PHE393     -0.0042
     64  CD2        2.1010  -27.8920   18.2710 C.ar  393  PHE393     -0.0042
     65  CE1        3.4780  -30.3000   18.1980 C.ar  393  PHE393     -0.0003
     66  CE2        3.0580  -28.1170   17.2910 C.ar  393  PHE393     -0.0003
     67  CZ         3.7470  -29.3220   17.2540 C.ar  393  PHE393     -0.0000
     68  N         -1.6880  -32.1930   24.1180 N.3   396  PHE396     -0.1227
     69  CA        -0.5630  -32.3060   25.0500 C.3   396  PHE396      0.1736
     70  C         -0.6300  -31.3040   26.2040 C.2   396  PHE396      0.2595
     71  O         -0.4220  -31.6780   27.3570 O.2   396  PHE396     -0.2718
     72  CB         0.7570  -32.1630   24.2900 C.3   396  PHE396      0.0547
     73  CG         1.9800  -32.2980   25.1480 C.ar  396  PHE396     -0.0202
     74  CD1        2.3340  -33.5270   25.6960 C.ar  396  PHE396     -0.0042
     75  CD2        2.7940  -31.1970   25.3930 C.ar  396  PHE396     -0.0042
     76  CE1        3.4700  -33.6510   26.4860 C.ar  396  PHE396     -0.0003
     77  CE2        3.9310  -31.3150   26.1770 C.ar  396  PHE396     -0.0003
     78  CZ         4.2690  -32.5430   26.7260 C.ar  396  PHE396     -0.0000
     79  N         -0.9210  -30.0410   25.8900 N.am  397  TYR397     -0.1976
     80  CA        -1.0170  -28.9890   26.9070 C.3   397  TYR397      0.1639
     81  C         -2.2220  -29.1540   27.8280 C.2   397  TYR397      0.2290
     82  O         -2.2270  -28.6460   28.9500 O.2   397  TYR397     -0.2864
     83  CB        -1.0100  -27.5980   26.2680 C.3   397  TYR397      0.0560
     84  CG         0.2630  -27.2900   25.5140 C.ar  397  TYR397     -0.0198
     85  CD1        1.5120  -27.6330   26.0390 C.ar  397  TYR397     -0.0009
     86  CD2        0.2240  -26.6490   24.2780 C.ar  397  TYR397     -0.0009
     87  CE1        2.6810  -27.3570   25.3480 C.ar  397  TYR397      0.0417
     88  CE2        1.3910  -26.3650   23.5820 C.ar  397  TYR397      0.0417
     89  CZ         2.6140  -26.7190   24.1230 C.ar  397  TYR397      0.1957
     90  OH         3.7690  -26.4390   23.4360 O.3   397  TYR397     -0.2866
@<TRIPOS>BOND
     1    45    44    2
     2    44    43    1
     3    34    33    2
     4    67    66   ar
     5    67    65   ar
     6    66    64   ar
     7    56    54    1
     8    33    42   am
     9    33    32    1
    10    43    42    1
    11    43    46    1
    12    48    46    1
    13    50    51    1
    14    65    63   ar
    15    64    62   ar
    16    32    31    1
    17    32    35    1
    18    46    47    1
    19    54    51    1
    20    54    55    1
    21    39    41   ar
    22    39    37   ar
    23    41    40   ar
    24    37    36   ar
    25    40    38   ar
    26    51    52    1
    27    63    62   ar
    28    62    61    1
    29    36    38   ar
    30    36    35    1
    31    47    49    1
    32    57    52   am
    33    57    58    1
    34    52    53    2
    35    61    58    1
    36    30    29    2
    37    58    59    1
    38    29    28    1
    39    22    21    2
    40    16    15    2
    41    59    60    2
    42    12    11    2
    43    21    27   am
    44    21    20    1
    45    28    27    1
    46    15    14    1
    47    24    23    1
    48    24    26    1
    49    20    23    1
    50    20    19    1
    51    14    17    1
    52    14    13    1
    53    90    89    1
    54    88    89   ar
    55    88    86   ar
    56    11    13   am
    57    11    10    1
    58    23    25    1
    59    68    69    1
    60    89    87   ar
    61    17    18    1
    62    86    84   ar
    63    72    69    1
    64    72    73    1
    65    10     9    1
    66    69    70    1
    67    73    75   ar
    68    73    74   ar
    69    87    85   ar
    70    75    77   ar
    71    84    85   ar
    72    84    83    1
    73    74    76   ar
    74    79    70   am
    75    79    80    1
    76     7     6    1
    77    77    78   ar
    78    70    71    2
    79    83    80    1
    80    76    78   ar
    81     4     3    2
    82    80    81    1
    83     6     8    1
    84     6     5    1
    85     3     2    1
    86    81    82    2
    87     5     2    1
    88     2     1    1
