@<TRIPOS>MOLECULE
tmp/4jrbA03.pdb
 102 95 0 0 0
SMALL
GASTEIGER

@<TRIPOS>ATOM
      1  N        -19.3380   -0.9650   23.8310 N.3   275  PHE275     -0.1241
      2  CA       -19.4300   -1.9190   22.7460 C.3   275  PHE275      0.1605
      3  C        -18.3330   -1.6880   21.7080 C.2   275  PHE275      0.2264
      4  O        -17.8080   -2.6420   21.1270 O.2   275  PHE275     -0.2867
      5  CB       -20.8060   -1.8840   22.0820 C.3   275  PHE275      0.0534
      6  CG       -20.9580   -2.9110   21.0120 C.ar  275  PHE275     -0.0203
      7  CD1      -21.1930   -4.2380   21.3380 C.ar  275  PHE275     -0.0042
      8  CD2      -20.8090   -2.5690   19.6810 C.ar  275  PHE275     -0.0042
      9  CE1      -21.3050   -5.2090   20.3490 C.ar  275  PHE275     -0.0003
     10  CE2      -20.9220   -3.5310   18.6860 C.ar  275  PHE275     -0.0003
     11  CZ       -21.1680   -4.8540   19.0210 C.ar  275  PHE275     -0.0000
     12  N        -15.2060   -3.4560   22.4150 N.3   278  ILE278     -0.1231
     13  CA       -15.2920   -4.8640   22.0640 C.3   278  ILE278      0.1692
     14  C        -14.9400   -5.0930   20.5930 C.2   278  ILE278      0.2591
     15  O        -14.0400   -5.8670   20.2800 O.2   278  ILE278     -0.2718
     16  CB       -16.6820   -5.4250   22.3750 C.3   278  ILE278      0.0266
     17  CG1      -16.9450   -5.3730   23.8810 C.3   278  ILE278      0.0019
     18  CG2      -16.8050   -6.8430   21.8520 C.3   278  ILE278      0.0020
     19  CD1      -18.3260   -5.8660   24.2770 C.3   278  ILE278      0.0001
     20  N        -15.6350   -4.4060   19.6950 N.am  279  VAL279     -0.1980
     21  CA       -15.3400   -4.5040   18.2680 C.3   279  VAL279      0.1595
     22  C        -13.8640   -4.2220   17.9680 C.2   279  VAL279      0.2287
     23  O        -13.1860   -5.0170   17.3110 O.2   279  VAL279     -0.2864
     24  CB       -16.2090   -3.5300   17.4560 C.3   279  VAL279      0.0276
     25  CG1      -15.8340   -3.5920   15.9880 C.3   279  VAL279      0.0022
     26  CG2      -17.6760   -3.8540   17.6480 C.3   279  VAL279      0.0022
     27  N        -11.4400   -7.0370   19.0320 N.3   282  LEU282     -0.1231
     28  CA       -11.5380   -8.2060   18.1620 C.3   282  LEU282      0.1693
     29  C        -10.9080   -7.9360   16.7980 C.2   282  LEU282      0.2592
     30  O        -10.1420   -8.7540   16.2760 O.2   282  LEU282     -0.2718
     31  CB       -12.9930   -8.6460   17.9940 C.3   282  LEU282      0.0284
     32  CG       -13.6380   -9.1860   19.2690 C.3   282  LEU282      0.0019
     33  CD1      -15.1130   -9.4760   19.0400 C.3   282  LEU282      0.0001
     34  CD2      -12.9030  -10.4260   19.7830 C.3   282  LEU282      0.0001
     35  N        -11.2310   -6.7830   16.2250 N.am  283  ASP283     -0.1974
     36  CA       -10.6380   -6.3910   14.9570 C.3   283  ASP283      0.1709
     37  C         -9.1070   -6.3880   15.0620 C.2   283  ASP283      0.2293
     38  O         -8.4120   -6.6080   14.0740 O.2   283  ASP283     -0.2864
     39  CB       -11.1720   -5.0230   14.5150 C.3   283  ASP283      0.1436
     40  CG       -10.8130   -4.6860   13.0740 C.2   283  ASP283      0.3671
     41  OD1      -10.3260   -5.5810   12.3540 O.co2 283  ASP283     -0.2456
     42  OD2      -11.0280   -3.5280   12.6530 O.co2 283  ASP283     -0.2456
     43  N         -8.6550  -13.1500   14.0050 N.3   288  LEU288     -0.1245
     44  CA        -9.9500  -12.7360   13.4850 C.3   288  LEU288      0.1561
     45  C         -9.7820  -12.3390   12.0350 C.2   288  LEU288      0.2260
     46  O        -10.6160  -12.6600   11.1930 O.2   288  LEU288     -0.2867
     47  CB       -10.5170  -11.5540   14.2670 C.3   288  LEU288      0.0270
     48  CG       -11.8510  -11.0480   13.7150 C.3   288  LEU288      0.0019
     49  CD1      -12.9100  -12.1320   13.7820 C.3   288  LEU288      0.0001
     50  CD2      -12.3020   -9.8320   14.4710 C.3   288  LEU288      0.0001
     51  N        -11.5950  -13.8520    8.6740 N.3   292  LEU292     -0.1245
     52  CA       -12.2180  -13.0280    7.6430 C.3   292  LEU292      0.1561
     53  C        -11.6460  -13.3170    6.2580 C.2   292  LEU292      0.2260
     54  O        -12.3920  -13.5600    5.3130 O.2   292  LEU292     -0.2867
     55  CB       -12.0900  -11.5390    7.9860 C.3   292  LEU292      0.0270
     56  CG       -12.7740  -11.1710    9.3080 C.3   292  LEU292      0.0019
     57  CD1      -12.7330   -9.6830    9.5950 C.3   292  LEU292      0.0001
     58  CD2      -14.2090  -11.6670    9.2990 C.3   292  LEU292      0.0001
     59  N        -19.9410   -6.5680    7.5490 N.3   306  LEU306     -0.1245
     60  CA       -19.7120   -5.9690    8.8640 C.3   306  LEU306      0.1561
     61  C        -19.5740   -4.4470    8.8150 C.2   306  LEU306      0.2260
     62  O        -20.2810   -3.7260    9.5240 O.2   306  LEU306     -0.2867
     63  CB       -18.4670   -6.5820    9.5130 C.3   306  LEU306      0.0270
     64  CG       -18.4680   -8.1010    9.7050 C.3   306  LEU306      0.0019
     65  CD1      -17.0970   -8.5970   10.1370 C.3   306  LEU306      0.0001
     66  CD2      -19.5300   -8.5220   10.7090 C.3   306  LEU306      0.0001
     67  N        -12.6220  -12.7870   23.6940 N.3   367  LEU367     -0.1245
     68  CA       -13.9150  -12.1470   23.9130 C.3   367  LEU367      0.1561
     69  C        -14.4640  -12.4240   25.3160 C.2   367  LEU367      0.2260
     70  O        -14.8640  -11.5020   26.0290 O.2   367  LEU367     -0.2867
     71  CB       -14.9210  -12.6150   22.8590 C.3   367  LEU367      0.0270
     72  CG       -16.3160  -11.9840   22.8760 C.3   367  LEU367      0.0019
     73  CD1      -16.2170  -10.4860   22.6780 C.3   367  LEU367      0.0001
     74  CD2      -17.2010  -12.6040   21.8090 C.3   367  LEU367      0.0001
     75  N        -17.6720   -7.2930   27.6320 N.3   373  TYR373     -0.1241
     76  CA       -18.4890   -8.3400   27.0300 C.3   373  TYR373      0.1605
     77  C        -19.3020   -9.0540   28.1020 C.2   373  TYR373      0.2264
     78  O        -20.5080   -9.2860   27.9460 O.2   373  TYR373     -0.2867
     79  CB       -17.6180   -9.3540   26.2760 C.3   373  TYR373      0.0534
     80  CG       -18.3740  -10.5910   25.8430 C.ar  373  TYR373     -0.0201
     81  CD1      -19.2980  -10.5350   24.8050 C.ar  373  TYR373     -0.0009
     82  CD2      -18.1760  -11.8080   26.4760 C.ar  373  TYR373     -0.0009
     83  CE1      -20.0010  -11.6590   24.3990 C.ar  373  TYR373      0.0417
     84  CE2      -18.8760  -12.9460   26.0760 C.ar  373  TYR373      0.0417
     85  CZ       -19.7860  -12.8610   25.0380 C.ar  373  TYR373      0.1957
     86  OH       -20.4860  -13.9740   24.6350 O.3   373  TYR373     -0.2866
     87  N        -22.0470   -7.0350   28.9000 N.3   376  LEU376     -0.1231
     88  CA       -23.0760   -7.1100   27.8650 C.3   376  LEU376      0.1693
     89  C        -24.0120   -8.3010   28.0690 C.2   376  LEU376      0.2591
     90  O        -25.2220   -8.1780   27.8990 O.2   376  LEU376     -0.2718
     91  CB       -22.4540   -7.1840   26.4730 C.3   376  LEU376      0.0284
     92  CG       -23.4340   -7.6550   25.4000 C.3   376  LEU376      0.0019
     93  CD1      -24.6050   -6.6920   25.3040 C.3   376  LEU376      0.0001
     94  CD2      -22.7410   -7.7950   24.0630 C.3   376  LEU376      0.0001
     95  N        -23.4450   -9.4540   28.4130 N.am  377  LEU377     -0.1980
     96  CA       -24.2430  -10.6330   28.7270 C.3   377  LEU377      0.1596
     97  C        -25.1560  -10.4230   29.9360 C.2   377  LEU377      0.2287
     98  O        -26.3330  -10.8060   29.9140 O.2   377  LEU377     -0.2864
     99  CB       -23.3440  -11.8340   28.9860 C.3   377  LEU377      0.0297
    100  CG       -22.5350  -12.3550   27.8050 C.3   377  LEU377      0.0022
    101  CD1      -21.7260  -13.5610   28.2660 C.3   377  LEU377      0.0001
    102  CD2      -23.4580  -12.7100   26.6460 C.3   377  LEU377      0.0001
@<TRIPOS>BOND
     1    54    53    2
     2    53    52    1
     3    59    60    1
     4    52    55    1
     5    52    51    1
     6    55    56    1
     7    61    60    1
     8    61    62    2
     9    60    63    1
    10    58    56    1
    11    56    57    1
    12    63    64    1
    13    64    65    1
    14    64    66    1
    15    46    45    2
    16    45    44    1
    17    41    40   ar
    18    42    40   ar
    19    40    39    1
    20    44    43    1
    21    44    47    1
    22    48    49    1
    23    48    47    1
    24    48    50    1
    25    38    37    2
    26    39    36    1
    27    36    37    1
    28    36    35    1
    29    25    24    1
    30    35    29   am
    31    30    29    2
    32    29    28    1
    33    23    22    2
    34    24    26    1
    35    24    21    1
    36    22    21    1
    37    31    28    1
    38    31    32    1
    39    28    27    1
    40    21    20    1
    41    10    11   ar
    42    10     8   ar
    43    11     9   ar
    44    33    32    1
    45    32    34    1
    46     8     6   ar
    47    20    14   am
    48    15    14    2
    49     9     7   ar
    50    14    13    1
    51     6     7   ar
    52     6     5    1
    53     4     3    2
    54     3     2    1
    55    74    72    1
    56    18    16    1
    57    13    16    1
    58    13    12    1
    59     5     2    1
    60    16    17    1
    61    73    72    1
    62     2     1    1
    63    71    72    1
    64    71    68    1
    65    67    68    1
    66    17    19    1
    67    68    69    1
    68    94    92    1
    69    83    81   ar
    70    83    85   ar
    71    86    85    1
    72    81    80   ar
    73    85    84   ar
    74    93    92    1
    75    69    70    2
    76    92    91    1
    77    80    79    1
    78    80    82   ar
    79    84    82   ar
    80    79    76    1
    81    91    88    1
    82   102   100    1
    83    76    75    1
    84    76    77    1
    85   100   101    1
    86   100    99    1
    87    88    89    1
    88    88    87    1
    89    90    89    2
    90    78    77    2
    91    89    95   am
    92    95    96    1
    93    96    99    1
    94    96    97    1
    95    98    97    2
