@<TRIPOS>MOLECULE
tmp/4jrbA00.pdb
 200 188 0 0 0
SMALL
GASTEIGER

@<TRIPOS>ATOM
      1  N        -24.5340  -20.4920    1.7980 N.3   237  LEU237     -0.1245
      2  CA       -25.2730  -19.4330    2.4730 C.3   237  LEU237      0.1561
      3  C        -26.6600  -19.2560    1.8660 C.2   237  LEU237      0.2260
      4  O        -27.6660  -19.1760    2.5750 O.2   237  LEU237     -0.2867
      5  CB       -24.4950  -18.1210    2.3750 C.3   237  LEU237      0.0270
      6  CG       -25.2130  -16.8320    2.7940 C.3   237  LEU237      0.0019
      7  CD1      -25.6730  -16.9280    4.2390 C.3   237  LEU237      0.0001
      8  CD2      -24.3020  -15.6250    2.6150 C.3   237  LEU237      0.0001
      9  N        -11.4400   -7.0370   19.0320 N.3   282  LEU282     -0.1245
     10  CA       -11.5380   -8.2060   18.1620 C.3   282  LEU282      0.1561
     11  C        -10.9080   -7.9360   16.7980 C.2   282  LEU282      0.2260
     12  O        -10.1420   -8.7540   16.2760 O.2   282  LEU282     -0.2867
     13  CB       -12.9930   -8.6460   17.9940 C.3   282  LEU282      0.0270
     14  CG       -13.6380   -9.1860   19.2690 C.3   282  LEU282      0.0019
     15  CD1      -15.1130   -9.4760   19.0400 C.3   282  LEU282      0.0001
     16  CD2      -12.9030  -10.4260   19.7830 C.3   282  LEU282      0.0001
     17  N         -8.6550  -13.1500   14.0050 N.3   288  LEU288     -0.1245
     18  CA        -9.9500  -12.7360   13.4850 C.3   288  LEU288      0.1561
     19  C         -9.7820  -12.3390   12.0350 C.2   288  LEU288      0.2260
     20  O        -10.6160  -12.6600   11.1930 O.2   288  LEU288     -0.2867
     21  CB       -10.5170  -11.5540   14.2670 C.3   288  LEU288      0.0270
     22  CG       -11.8510  -11.0480   13.7150 C.3   288  LEU288      0.0019
     23  CD1      -12.9100  -12.1320   13.7820 C.3   288  LEU288      0.0001
     24  CD2      -12.3020   -9.8320   14.4710 C.3   288  LEU288      0.0001
     25  N         -9.4860  -15.3150    9.8650 N.3   291  PHE291     -0.1227
     26  CA       -10.7940  -15.9160    9.6890 C.3   291  PHE291      0.1736
     27  C        -11.5800  -15.1780    8.5970 C.2   291  PHE291      0.2595
     28  O        -12.1430  -15.8010    7.6970 O.2   291  PHE291     -0.2718
     29  CB       -11.5710  -15.9650   11.0110 C.3   291  PHE291      0.0547
     30  CG       -12.9230  -16.5850   10.8730 C.ar  291  PHE291     -0.0202
     31  CD1      -13.0500  -17.9430   10.6250 C.ar  291  PHE291     -0.0042
     32  CD2      -14.0660  -15.8060   10.9400 C.ar  291  PHE291     -0.0042
     33  CE1      -14.2940  -18.5200   10.4710 C.ar  291  PHE291     -0.0003
     34  CE2      -15.3200  -16.3720   10.7900 C.ar  291  PHE291     -0.0003
     35  CZ       -15.4360  -17.7350   10.5540 C.ar  291  PHE291     -0.0000
     36  N        -11.5950  -13.8520    8.6740 N.am  292  LEU292     -0.1980
     37  CA       -12.2180  -13.0280    7.6430 C.3   292  LEU292      0.1596
     38  C        -11.6460  -13.3170    6.2580 C.2   292  LEU292      0.2287
     39  O        -12.3920  -13.5600    5.3130 O.2   292  LEU292     -0.2864
     40  CB       -12.0900  -11.5390    7.9860 C.3   292  LEU292      0.0297
     41  CG       -12.7740  -11.1710    9.3080 C.3   292  LEU292      0.0022
     42  CD1      -12.7330   -9.6830    9.5950 C.3   292  LEU292      0.0001
     43  CD2      -14.2090  -11.6670    9.2990 C.3   292  LEU292      0.0001
     44  N        -12.9390  -16.5260    4.9770 N.3   295  LEU295     -0.1245
     45  CA       -14.2780  -16.3680    4.4310 C.3   295  LEU295      0.1561
     46  C        -14.2360  -15.7040    3.0600 C.2   295  LEU295      0.2260
     47  O        -14.9740  -16.0920    2.1530 O.2   295  LEU295     -0.2867
     48  CB       -15.1470  -15.5370    5.3690 C.3   295  LEU295      0.0270
     49  CG       -15.3520  -16.1400    6.7480 C.3   295  LEU295      0.0019
     50  CD1      -16.3040  -15.2700    7.5470 C.3   295  LEU295      0.0001
     51  CD2      -15.8840  -17.5610    6.6140 C.3   295  LEU295      0.0001
     52  N        -17.3160  -15.4990    0.4630 N.3   300  LEU300     -0.1245
     53  CA       -18.1080  -14.5870    1.2730 C.3   300  LEU300      0.1561
     54  C        -17.5250  -13.1910    1.3190 C.2   300  LEU300      0.2260
     55  O        -16.3350  -13.0170    1.5620 O.2   300  LEU300     -0.2867
     56  CB       -18.2600  -15.1190    2.6860 C.3   300  LEU300      0.0270
     57  CG       -19.1290  -16.3660    2.7530 C.3   300  LEU300      0.0019
     58  CD1      -19.2320  -16.8520    4.1940 C.3   300  LEU300      0.0001
     59  CD2      -20.4960  -16.0720    2.1650 C.3   300  LEU300      0.0001
     60  N        -17.2450  -10.5520    3.6020 N.3   302  ALA302     -0.1245
     61  CA       -17.3890  -10.5310    5.0460 C.3   302  ALA302      0.1562
     62  C        -17.2590   -9.1020    5.5200 C.2   302  ALA302      0.2260
     63  O        -18.1700   -8.5500    6.1330 O.2   302  ALA302     -0.2867
     64  CB       -16.3330  -11.4080    5.6880 C.3   302  ALA302      0.0290
     65  N        -20.0230   -6.9750    4.7100 N.3   305  PHE305     -0.1227
     66  CA       -21.1990   -7.1620    5.5490 C.3   305  PHE305      0.1736
     67  C        -21.0970   -6.4440    6.9000 C.2   305  PHE305      0.2595
     68  O        -22.0500   -5.7970    7.3430 O.2   305  PHE305     -0.2718
     69  CB       -21.4520   -8.6570    5.7450 C.3   305  PHE305      0.0547
     70  CG       -22.7170   -8.9610    6.4760 C.ar  305  PHE305     -0.0202
     71  CD1      -23.9460   -8.7580    5.8710 C.ar  305  PHE305     -0.0042
     72  CD2      -22.6780   -9.4590    7.7680 C.ar  305  PHE305     -0.0042
     73  CE1      -25.1170   -9.0390    6.5430 C.ar  305  PHE305     -0.0003
     74  CE2      -23.8440   -9.7430    8.4510 C.ar  305  PHE305     -0.0003
     75  CZ       -25.0670   -9.5350    7.8380 C.ar  305  PHE305     -0.0000
     76  N        -19.9410   -6.5680    7.5490 N.am  306  LEU306     -0.1980
     77  CA       -19.7120   -5.9690    8.8640 C.3   306  LEU306      0.1596
     78  C        -19.5740   -4.4470    8.8150 C.2   306  LEU306      0.2287
     79  O        -20.2810   -3.7260    9.5240 O.2   306  LEU306     -0.2864
     80  CB       -18.4670   -6.5820    9.5130 C.3   306  LEU306      0.0297
     81  CG       -18.4680   -8.1010    9.7050 C.3   306  LEU306      0.0022
     82  CD1      -17.0970   -8.5970   10.1370 C.3   306  LEU306      0.0001
     83  CD2      -19.5300   -8.5220   10.7090 C.3   306  LEU306      0.0001
     84  N        -15.1590  -24.8110    6.7400 N.3   351  LEU351     -0.1245
     85  CA       -15.6100  -23.6660    7.5100 C.3   351  LEU351      0.1561
     86  C        -15.8810  -24.0730    8.9550 C.2   351  LEU351      0.2260
     87  O        -15.4690  -23.3950    9.9000 O.2   351  LEU351     -0.2867
     88  CB       -16.8780  -23.0720    6.8870 C.3   351  LEU351      0.0270
     89  CG       -17.5850  -22.0730    7.8050 C.3   351  LEU351      0.0019
     90  CD1      -16.6270  -20.9650    8.2520 C.3   351  LEU351      0.0001
     91  CD2      -18.8270  -21.5000    7.1470 C.3   351  LEU351      0.0001
     92  N        -13.7940  -22.9710   12.3070 N.3   355  ILE355     -0.1245
     93  CA       -14.3930  -22.4230   13.5200 C.3   355  ILE355      0.1561
     94  C        -13.9770  -23.2050   14.7680 C.2   355  ILE355      0.2260
     95  O        -13.8310  -22.6310   15.8530 O.2   355  ILE355     -0.2867
     96  CB       -15.9390  -22.3800   13.4130 C.3   355  ILE355      0.0252
     97  CG1      -16.3840  -21.3480   12.3700 C.3   355  ILE355      0.0019
     98  CG2      -16.5710  -22.0750   14.7610 C.3   355  ILE355      0.0019
     99  CD1      -17.8820  -21.3060   12.1450 C.3   355  ILE355      0.0001
    100  N         -9.3180  -20.1580   16.1370 N.3   360  PHE360     -0.1227
    101  CA       -10.5930  -19.4620   16.2340 C.3   360  PHE360      0.1736
    102  C        -11.0950  -19.4080   17.6650 C.2   360  PHE360      0.2595
    103  O        -11.6430  -18.3960   18.1010 O.2   360  PHE360     -0.2718
    104  CB       -11.6720  -20.1000   15.3450 C.3   360  PHE360      0.0547
    105  CG       -12.9620  -19.3080   15.3000 C.ar  360  PHE360     -0.0202
    106  CD1      -13.1930  -18.3800   14.2850 C.ar  360  PHE360     -0.0042
    107  CD2      -13.9410  -19.4760   16.2820 C.ar  360  PHE360     -0.0042
    108  CE1      -14.3820  -17.6370   14.2460 C.ar  360  PHE360     -0.0003
    109  CE2      -15.1420  -18.7340   16.2480 C.ar  360  PHE360     -0.0003
    110  CZ       -15.3600  -17.8110   15.2330 C.ar  360  PHE360     -0.0000
    111  N        -10.9370  -20.5060   18.3910 N.am  361  GLN361     -0.1979
    112  CA       -11.4310  -20.5460   19.7550 C.3   361  GLN361      0.1601
    113  C        -10.7430  -19.4910   20.6190 C.2   361  GLN361      0.2287
    114  O        -11.2990  -19.0380   21.6210 O.2   361  GLN361     -0.2864
    115  CB       -11.2730  -21.9390   20.3620 C.3   361  GLN361      0.0394
    116  CG       -12.2430  -22.9650   19.7960 C.3   361  GLN361      0.0908
    117  CD       -13.6890  -22.4890   19.8300 C.2   361  GLN361      0.2608
    118  OE1      -14.2340  -22.1710   20.8920 O.2   361  GLN361     -0.2717
    119  NE2      -14.3190  -22.4390   18.6590 N.am  361  GLN361     -0.0878
    120  N        -10.0910  -16.5450   19.6560 N.3   363  ILE363     -0.1231
    121  CA       -10.8100  -15.3020   19.4300 C.3   363  ILE363      0.1692
    122  C        -11.9470  -15.3010   20.4150 C.2   363  ILE363      0.2591
    123  O        -12.2660  -14.2860   21.0320 O.2   363  ILE363     -0.2718
    124  CB       -11.4170  -15.2270   18.0430 C.3   363  ILE363      0.0266
    125  CG1      -10.3350  -15.2610   16.9670 C.3   363  ILE363      0.0019
    126  CG2      -12.2660  -13.9650   17.9060 C.3   363  ILE363      0.0020
    127  CD1      -10.9220  -15.3200   15.5750 C.3   363  ILE363      0.0001
    128  N        -12.5880  -16.4600   20.5440 N.am  364  VAL364     -0.1980
    129  CA       -13.7380  -16.6330   21.4260 C.3   364  VAL364      0.1595
    130  C        -13.3360  -16.4540   22.8850 C.2   364  VAL364      0.2287
    131  O        -14.0690  -15.8550   23.6750 O.2   364  VAL364     -0.2864
    132  CB       -14.3830  -18.0260   21.2360 C.3   364  VAL364      0.0276
    133  CG1      -15.3560  -18.3360   22.3700 C.3   364  VAL364      0.0022
    134  CG2      -15.0770  -18.1190   19.8750 C.3   364  VAL364      0.0022
    135  N        -12.6220  -12.7870   23.6940 N.3   367  LEU367     -0.1231
    136  CA       -13.9150  -12.1470   23.9130 C.3   367  LEU367      0.1693
    137  C        -14.4640  -12.4240   25.3160 C.2   367  LEU367      0.2592
    138  O        -14.8640  -11.5020   26.0290 O.2   367  LEU367     -0.2718
    139  CB       -14.9210  -12.6150   22.8590 C.3   367  LEU367      0.0284
    140  CG       -16.3160  -11.9840   22.8760 C.3   367  LEU367      0.0019
    141  CD1      -16.2170  -10.4860   22.6780 C.3   367  LEU367      0.0001
    142  CD2      -17.2010  -12.6040   21.8090 C.3   367  LEU367      0.0001
    143  N        -14.4780  -13.6990   25.7020 N.am  368  ASN368     -0.1974
    144  CA       -15.0070  -14.1180   26.9980 C.3   368  ASN368      0.1688
    145  C        -14.3130  -13.4170   28.1680 C.2   368  ASN368      0.2292
    146  O        -14.8800  -13.3100   29.2540 O.2   368  ASN368     -0.2864
    147  CB       -14.8980  -15.6440   27.1640 C.3   368  ASN368      0.1181
    148  CG       -16.2370  -16.3620   27.0030 C.2   368  ASN368      0.2629
    149  OD1      -16.9560  -16.5840   27.9770 O.2   368  ASN368     -0.2716
    150  ND2      -16.5550  -16.7570   25.7740 N.am  368  ASN368     -0.0877
    151  N        -17.6720   -7.2930   27.6320 N.3   373  TYR373     -0.1241
    152  CA       -18.4890   -8.3400   27.0300 C.3   373  TYR373      0.1605
    153  C        -19.3020   -9.0540   28.1020 C.2   373  TYR373      0.2264
    154  O        -20.5080   -9.2860   27.9460 O.2   373  TYR373     -0.2867
    155  CB       -17.6180   -9.3540   26.2760 C.3   373  TYR373      0.0534
    156  CG       -18.3740  -10.5910   25.8430 C.ar  373  TYR373     -0.0201
    157  CD1      -19.2980  -10.5350   24.8050 C.ar  373  TYR373     -0.0009
    158  CD2      -18.1760  -11.8080   26.4760 C.ar  373  TYR373     -0.0009
    159  CE1      -20.0010  -11.6590   24.3990 C.ar  373  TYR373      0.0417
    160  CE2      -18.8760  -12.9460   26.0760 C.ar  373  TYR373      0.0417
    161  CZ       -19.7860  -12.8610   25.0380 C.ar  373  TYR373      0.1957
    162  OH       -20.4860  -13.9740   24.6350 O.3   373  TYR373     -0.2866
    163  N        -26.2080  -19.7560   24.5470 N.3   391  ILE391     -0.1245
    164  CA       -24.7770  -20.0070   24.4050 C.3   391  ILE391      0.1561
    165  C        -24.4620  -21.5000   24.3600 C.2   391  ILE391      0.2260
    166  O        -23.6420  -21.9450   23.5560 O.2   391  ILE391     -0.2867
    167  CB       -23.9630  -19.3270   25.5270 C.3   391  ILE391      0.0252
    168  CG1      -23.6890  -17.8660   25.1660 C.3   391  ILE391      0.0019
    169  CG2      -22.6520  -20.0640   25.7530 C.3   391  ILE391      0.0019
    170  CD1      -23.0940  -17.0460   26.2920 C.3   391  ILE391      0.0001
    171  N        -25.3770  -23.1620   21.0420 N.3   394  ILE394     -0.1231
    172  CA       -24.3830  -22.8910   20.0110 C.3   394  ILE394      0.1692
    173  C        -23.1320  -23.7530   20.1930 C.2   394  ILE394      0.2591
    174  O        -22.6180  -24.3280   19.2300 O.2   394  ILE394     -0.2718
    175  CB       -23.9930  -21.4010   20.0040 C.3   394  ILE394      0.0266
    176  CG1      -25.2040  -20.5380   19.6400 C.3   394  ILE394      0.0019
    177  CG2      -22.8300  -21.1580   19.0600 C.3   394  ILE394      0.0020
    178  CD1      -24.9540  -19.0540   19.7510 C.3   394  ILE394      0.0001
    179  N        -22.6500  -23.8400   21.4300 N.am  395  ARG395     -0.1980
    180  CA       -21.5240  -24.7080   21.7480 C.3   395  ARG395      0.1597
    181  C        -21.8280  -26.1110   21.2470 C.2   395  ARG395      0.2287
    182  O        -20.9490  -26.8010   20.7270 O.2   395  ARG395     -0.2864
    183  CB       -21.2600  -24.7290   23.2570 C.3   395  ARG395      0.0334
    184  CG       -20.7640  -23.4080   23.8640 C.3   395  ARG395      0.0492
    185  CD       -19.3820  -23.1210   23.3520 C.3   395  ARG395      0.2205
    186  NE       -18.8480  -21.8800   23.9280 N.pl3 395  ARG395     -0.0865
    187  CZ       -18.7860  -20.7470   23.2130 C.cat 395  ARG395      0.5346
    188  NH1      -19.1360  -20.6630   21.9020 N.pl3 395  ARG395      0.1354
    189  NH2      -18.2770  -19.6770   23.8190 N.pl3 395  ARG395      0.1354
    190  N        -21.1000  -27.1770   17.6690 N.3   398  PHE398     -0.1241
    191  CA       -19.6930  -27.2830   17.3010 C.3   398  PHE398      0.1605
    192  C        -18.9370  -28.2410   18.2090 C.2   398  PHE398      0.2264
    193  O        -17.7070  -28.1840   18.2990 O.2   398  PHE398     -0.2867
    194  CB       -19.0310  -25.8990   17.3030 C.3   398  PHE398      0.0534
    195  CG       -19.6200  -24.9490   16.2990 C.ar  398  PHE398     -0.0203
    196  CD1      -19.0950  -24.8610   15.0240 C.ar  398  PHE398     -0.0042
    197  CD2      -20.7040  -24.1570   16.6280 C.ar  398  PHE398     -0.0042
    198  CE1      -19.6320  -23.9980   14.1000 C.ar  398  PHE398     -0.0003
    199  CE2      -21.2520  -23.2960   15.7030 C.ar  398  PHE398     -0.0003
    200  CZ       -20.7170  -23.2190   14.4350 C.ar  398  PHE398     -0.0000
@<TRIPOS>BOND
     1    52    53    1
     2    53    54    1
     3    53    56    1
     4    54    55    2
     5     1     2    1
     6     3     2    1
     7     3     4    2
     8    47    46    2
     9    59    57    1
    10     5     2    1
    11     5     6    1
    12     8     6    1
    13    56    57    1
    14    57    58    1
    15     6     7    1
    16    46    45    1
    17    60    61    1
    18    45    44    1
    19    45    48    1
    20    65    66    1
    21    61    62    1
    22    61    64    1
    23    39    38    2
    24    48    49    1
    25    62    63    2
    26    66    69    1
    27    66    67    1
    28    69    70    1
    29    71    70   ar
    30    71    73   ar
    31    38    37    1
    32    70    72   ar
    33    73    75   ar
    34    51    49    1
    35    84    85    1
    36    49    50    1
    37    88    85    1
    38    88    89    1
    39    67    68    2
    40    67    76   am
    41    91    89    1
    42    85    86    1
    43    76    77    1
    44    37    40    1
    45    37    36    1
    46    28    27    2
    47    72    74   ar
    48    89    90    1
    49    75    74   ar
    50    40    41    1
    51    27    36   am
    52    27    26    1
    53    78    77    1
    54    78    79    2
    55    77    80    1
    56    86    87    2
    57    43    41    1
    58    41    42    1
    59    80    81    1
    60    26    25    1
    61    26    29    1
    62    81    82    1
    63    81    83    1
    64    33    35   ar
    65    33    31   ar
    66    35    34   ar
    67    31    30   ar
    68    34    32   ar
    69    30    32   ar
    70    30    29    1
    71    20    19    2
    72    19    18    1
    73    99    97    1
    74    92    93    1
    75    97    96    1
    76    96    93    1
    77    96    98    1
    78    18    17    1
    79    18    21    1
    80    93    94    1
    81    22    23    1
    82    22    21    1
    83    22    24    1
    84   198   200   ar
    85   198   196   ar
    86   108   106   ar
    87   108   110   ar
    88   106   105   ar
    89   200   199   ar
    90    94    95    2
    91   196   195   ar
    92   110   109   ar
    93   105   104    1
    94   105   107   ar
    95   104   101    1
    96   127   125    1
    97   199   197   ar
    98   100   101    1
    99   101   102    1
   100   109   107   ar
   101    12    11    2
   102   195   197   ar
   103   195   194    1
   104    11    10    1
   105   125   124    1
   106   191   194    1
   107   191   190    1
   108   191   192    1
   109   102   103    2
   110   102   111   am
   111   126   124    1
   112    13    10    1
   113    13    14    1
   114   124   121    1
   115    10     9    1
   116   192   193    2
   117   111   112    1
   118   119   117   am
   119    15    14    1
   120   177   175    1
   121   174   173    2
   122    14    16    1
   123   121   120    1
   124   121   122    1
   125   176   178    1
   126   176   175    1
   127   112   115    1
   128   112   113    1
   129   116   117    1
   130   116   115    1
   131   117   118    2
   132   134   132    1
   133   175   172    1
   134   172   173    1
   135   172   171    1
   136   173   179   am
   137   122   128   am
   138   122   123    2
   139   128   129    1
   140   113   114    2
   141   182   181    2
   142   132   129    1
   143   132   133    1
   144   181   180    1
   145   129   130    1
   146   179   180    1
   147   180   183    1
   148   142   140    1
   149   188   187    1
   150   141   140    1
   151   139   140    1
   152   139   136    1
   153   130   131    2
   154   187   189    1
   155   187   186    2
   156   183   184    1
   157   185   184    1
   158   185   186    1
   159   166   165    2
   160   135   136    1
   161   136   137    1
   162   165   164    1
   163   159   157   ar
   164   159   161   ar
   165   164   163    1
   166   164   167    1
   167   162   161    1
   168   157   156   ar
   169   161   160   ar
   170   168   167    1
   171   168   170    1
   172   137   143   am
   173   137   138    2
   174   167   169    1
   175   143   144    1
   176   150   148   am
   177   156   155    1
   178   156   158   ar
   179   160   158   ar
   180   155   152    1
   181   144   147    1
   182   144   145    1
   183   148   147    1
   184   148   149    2
   185   152   151    1
   186   152   153    1
   187   154   153    2
   188   145   146    2
