@<TRIPOS>MOLECULE
tmp/4jrfA03.pdb
 76 71 0 0 0
SMALL
GASTEIGER

@<TRIPOS>ATOM
      1  N         21.4200   16.7930   33.2610 N.3   396  HIS396     -0.1241
      2  CA        22.1540   15.6940   33.9190 C.3   396  HIS396      0.1621
      3  C         22.2610   14.5200   32.9690 C.2   396  HIS396      0.2264
      4  O         21.3610   14.3340   32.1550 O.2   396  HIS396     -0.2867
      5  CB        21.4290   15.2360   35.2090 C.3   396  HIS396      0.0745
      6  CG        21.4860   16.2210   36.3370 C.ar  396  HIS396      0.0817
      7  ND1       21.8340   15.8230   37.6200 N.ar  396  HIS396     -0.2268
      8  CD2       21.2540   17.5580   36.3400 C.ar  396  HIS396      0.1154
      9  CE1       21.8110   16.9280   38.3560 C.ar  396  HIS396      0.1986
     10  NE2       21.4570   17.9980   37.6320 N.ar  396  HIS396     -0.2212
     11  N         21.8000    9.1460   35.8670 N.3   399  ASP399     -0.1239
     12  CA        21.0560    9.3880   37.1130 C.3   399  ASP399      0.1674
     13  C         21.5630    8.5160   38.2890 C.2   399  ASP399      0.2266
     14  O         21.1880    8.7910   39.4220 O.2   399  ASP399     -0.2867
     15  CB        19.5340    9.2430   36.9240 C.3   399  ASP399      0.1410
     16  CG        19.0490    7.8660   36.5210 C.2   399  ASP399      0.3668
     17  OD1       19.8910    7.0230   36.1560 O.co2 399  ASP399     -0.2456
     18  OD2       17.8170    7.6570   36.4990 O.co2 399  ASP399     -0.2456
     19  N          8.0280   21.3470   40.1780 N.3   423  SER423     -0.1217
     20  CA         7.7090   22.4550   41.0630 C.3   423  SER423      0.1889
     21  C          8.4660   23.7250   40.7060 C.2   423  SER423      0.2288
     22  O          9.5300   23.6670   40.1030 O.2   423  SER423     -0.2866
     23  CB         7.9820   22.0680   42.5200 C.3   423  SER423      0.2089
     24  OG         9.2970   22.3930   42.9300 O.3   423  SER423     -0.2183
     25  N          9.9700   27.0980   42.6180 N.3   425  LYS425     -0.1245
     26  CA        10.3200   27.5360   43.9740 C.3   425  LYS425      0.1561
     27  C         10.3100   29.0510   44.1000 C.2   425  LYS425      0.2260
     28  O         10.0000   29.5880   45.1700 O.2   425  LYS425     -0.2867
     29  CB        11.7040   26.9910   44.3680 C.3   425  LYS425      0.0271
     30  CG        11.7540   25.4550   44.4120 C.3   425  LYS425      0.0035
     31  CD        13.1540   24.9250   44.6100 C.3   425  LYS425      0.0206
     32  CE        13.0960   23.4390   44.8810 C.3   425  LYS425      0.1093
     33  NZ        14.3980   22.8970   45.3390 N.3   425  LYS425     -0.1314
     34  N         18.8660   26.5550   43.1560 N.3   453  ALA453     -0.1245
     35  CA        17.6400   25.8550   42.7130 C.3   453  ALA453      0.1562
     36  C         16.4140   26.7920   42.6360 C.2   453  ALA453      0.2260
     37  O         16.0200   27.4080   43.6350 O.2   453  ALA453     -0.2867
     38  CB        17.3290   24.7060   43.6620 C.3   453  ALA453      0.0290
     39  N         13.7200   25.5980   40.3160 N.3   455  LEU455     -0.1231
     40  CA        12.7460   24.5750   39.9780 C.3   455  LEU455      0.1693
     41  C         13.1430   23.2380   40.5540 C.2   455  LEU455      0.2593
     42  O         14.3150   23.0120   40.8740 O.2   455  LEU455     -0.2718
     43  CB        12.6450   24.4030   38.4390 C.3   455  LEU455      0.0284
     44  CG        12.3750   25.6000   37.5430 C.3   455  LEU455      0.0019
     45  CD1       12.4910   25.1930   36.0650 C.3   455  LEU455      0.0001
     46  CD2       10.9780   26.2240   37.8570 C.3   455  LEU455      0.0001
     47  N         12.1800   22.3310   40.6250 N.am  456  SER456     -0.1938
     48  CA        12.4240   20.9340   40.9240 C.3   456  SER456      0.2055
     49  C         12.1290   20.2220   39.6320 C.2   456  SER456      0.2643
     50  O         11.0020   20.2910   39.1480 O.2   456  SER456     -0.2714
     51  CB        11.5720   20.4340   42.0750 C.3   456  SER456      0.2130
     52  OG        11.8890   19.0680   42.2670 O.3   456  SER456     -0.2179
     53  N         13.1780   19.6990   38.9820 N.am  457  VAL457     -0.1963
     54  CA        13.0790   19.0530   37.6720 C.3   457  VAL457      0.1727
     55  C         13.5930   17.6200   37.7800 C.2   457  VAL457      0.2616
     56  O         14.6500   17.3650   38.3670 O.2   457  VAL457     -0.2715
     57  CB        13.8580   19.8480   36.5800 C.3   457  VAL457      0.0290
     58  CG1       13.6590   19.2490   35.1790 C.3   457  VAL457      0.0023
     59  CG2       13.4760   21.3270   36.5790 C.3   457  VAL457      0.0023
     60  N         12.8420   16.7020   37.1910 N.am  458  GLU458     -0.1963
     61  CA        13.1730   15.2840   37.1060 C.3   458  GLU458      0.1733
     62  C         13.7300   15.0680   35.7220 C.2   458  GLU458      0.2616
     63  O         13.0920   15.4270   34.7270 O.2   458  GLU458     -0.2715
     64  CB        11.9180   14.4380   37.3600 C.3   458  GLU458      0.0429
     65  CG        12.1630   12.9570   37.5670 C.3   458  GLU458      0.1163
     66  CD        10.9010   12.1380   37.3660 C.2   458  GLU458      0.3649
     67  OE1        9.8470   12.5050   37.9400 O.co2 458  GLU458     -0.2457
     68  OE2       10.9590   11.1480   36.6010 O.co2 458  GLU458     -0.2457
     69  N         14.9510   14.5520   35.6480 N.am  459  ILE459     -0.1977
     70  CA        15.6000   14.2920   34.3640 C.3   459  ILE459      0.1596
     71  C         15.8270   12.8000   34.2420 C.2   459  ILE459      0.2287
     72  O         16.4450   12.1990   35.1270 O.2   459  ILE459     -0.2864
     73  CB        16.9170   15.1060   34.1650 C.3   459  ILE459      0.0276
     74  CG1       16.6720   16.6250   34.3550 C.3   459  ILE459      0.0022
     75  CG2       17.5190   14.8100   32.7610 C.3   459  ILE459      0.0022
     76  CD1       17.9200   17.5390   34.3140 C.3   459  ILE459      0.0001
@<TRIPOS>BOND
     1     4     3    2
     2    75    73    1
     3     3     2    1
     4     1     2    1
     5     2     5    1
     6    73    74    1
     7    73    70    1
     8    71    70    1
     9    71    72    2
    10    76    74    1
    11    70    69    1
    12    63    62    2
    13    58    57    1
    14     5     6    1
    15    69    62   am
    16    62    61    1
    17    11    12    1
    18    45    44    1
    19    17    16   ar
    20     6     8   ar
    21     6     7   ar
    22     8    10   ar
    23    18    16   ar
    24    16    15    1
    25    59    57    1
    26    57    54    1
    27    68    66   ar
    28    15    12    1
    29    61    60    1
    30    61    64    1
    31    12    13    1
    32    60    55   am
    33    64    65    1
    34    66    65    1
    35    66    67   ar
    36    44    46    1
    37    44    43    1
    38     7     9   ar
    39    10     9   ar
    40    54    55    1
    41    54    53    1
    42    55    56    2
    43    13    14    2
    44    43    40    1
    45    53    49   am
    46    50    49    2
    47    49    48    1
    48    40    39    1
    49    40    41    1
    50    22    21    2
    51    19    20    1
    52    41    47   am
    53    41    42    2
    54    47    48    1
    55    21    20    1
    56    48    51    1
    57    20    23    1
    58    51    52    1
    59    23    24    1
    60    25    26    1
    61    36    35    1
    62    36    37    2
    63    35    34    1
    64    35    38    1
    65    26    27    1
    66    26    29    1
    67    27    28    2
    68    29    30    1
    69    30    31    1
    70    31    32    1
    71    32    33    1
