@<TRIPOS>MOLECULE
tmp/4jrvA00.pdb
 201 190 0 0 0
SMALL
GASTEIGER

@<TRIPOS>ATOM
      1  N        -19.1690  -46.1200    3.4370 N.3    23  LEU23      -0.1231
      2  CA       -18.5550  -46.9120    2.3730 C.3    23  LEU23       0.1693
      3  C        -18.7570  -46.2610    1.0020 C.2    23  LEU23       0.2592
      4  O        -17.9400  -46.4450    0.1000 O.2    23  LEU23      -0.2718
      5  CB       -19.1160  -48.3390    2.3690 C.3    23  LEU23       0.0284
      6  CG       -18.7710  -49.2020    3.5870 C.3    23  LEU23       0.0019
      7  CD1      -19.5220  -50.5220    3.5430 C.3    23  LEU23       0.0001
      8  CD2      -17.2740  -49.4500    3.6700 C.3    23  LEU23       0.0001
      9  N        -19.8350  -45.4980    0.8410 N.am   24  GLY24      -0.1957
     10  CA       -20.0990  -44.8420   -0.4330 C.3    24  GLY24       0.1869
     11  C        -21.3790  -44.0420   -0.4370 C.2    24  GLY24       0.2309
     12  O        -22.2480  -44.2440    0.4100 O.2    24  GLY24      -0.2863
     13  N        -28.3240  -43.1720   -5.0610 N.3    28  PHE28      -0.1241
     14  CA       -28.9610  -44.2040   -4.2340 C.3    28  PHE28       0.1605
     15  C        -29.0820  -43.8130   -2.7560 C.2    28  PHE28       0.2264
     16  O        -29.7940  -44.4740   -1.9970 O.2    28  PHE28      -0.2867
     17  CB       -28.1970  -45.5350   -4.3500 C.3    28  PHE28       0.0534
     18  CG       -26.7150  -45.4200   -4.0870 C.ar   28  PHE28      -0.0203
     19  CD1      -26.2260  -45.3310   -2.7890 C.ar   28  PHE28      -0.0042
     20  CD2      -25.8080  -45.4070   -5.1410 C.ar   28  PHE28      -0.0042
     21  CE1      -24.8650  -45.2230   -2.5490 C.ar   28  PHE28      -0.0003
     22  CE2      -24.4470  -45.3000   -4.9070 C.ar   28  PHE28      -0.0003
     23  CZ       -23.9740  -45.2100   -3.6090 C.ar   28  PHE28      -0.0000
     24  N        -24.2330  -45.5890    1.8510 N.3    31  VAL31      -0.1245
     25  CA       -24.1030  -46.9000    2.4820 C.3    31  VAL31       0.1561
     26  C        -23.0130  -46.8390    3.5490 C.2    31  VAL31       0.2260
     27  O        -21.9130  -46.3460    3.2890 O.2    31  VAL31      -0.2867
     28  CB       -23.7540  -47.9870    1.4480 C.3    31  VAL31       0.0252
     29  CG1      -23.7170  -49.3580    2.1040 C.3    31  VAL31       0.0019
     30  CG2      -24.7560  -47.9710    0.3050 C.3    31  VAL31       0.0019
     31  N        -23.8140  -53.8850    6.4010 N.3    48  ALA48      -0.1245
     32  CA       -23.8690  -52.6560    5.6130 C.3    48  ALA48       0.1562
     33  C        -25.2540  -52.0430    5.7880 C.2    48  ALA48       0.2260
     34  O        -26.2590  -52.7550    5.7590 O.2    48  ALA48      -0.2867
     35  CB       -23.5890  -52.9420    4.1480 C.3    48  ALA48       0.0290
     36  N        -27.9620  -49.0390    4.5070 N.3    50  LYS50      -0.1245
     37  CA       -28.2840  -48.1640    3.3770 C.3    50  LYS50       0.1561
     38  C        -29.4930  -47.2770    3.6600 C.2    50  LYS50       0.2260
     39  O        -30.5500  -47.7730    4.0410 O.2    50  LYS50      -0.2867
     40  CB       -28.5510  -49.0060    2.1320 C.3    50  LYS50       0.0271
     41  CG       -28.9580  -48.2140    0.9010 C.3    50  LYS50       0.0035
     42  CD       -28.8870  -49.0870   -0.3440 C.3    50  LYS50       0.0206
     43  CE       -29.9690  -48.7350   -1.3510 C.3    50  LYS50       0.1093
     44  NZ       -30.1210  -49.7990   -2.3760 N.3    50  LYS50      -0.1314
     45  N        -37.4870  -52.6130   -2.6350 N.3    64  GLU64      -0.1245
     46  CA       -36.2010  -53.3010   -2.5840 C.3    64  GLU64       0.1567
     47  C        -36.1060  -54.2050   -1.3530 C.2    64  GLU64       0.2260
     48  O        -35.5040  -55.2800   -1.4130 O.2    64  GLU64      -0.2867
     49  CB       -35.0460  -52.2950   -2.5930 C.3    64  GLU64       0.0388
     50  CG       -33.6680  -52.9450   -2.6190 C.3    64  GLU64       0.1160
     51  CD       -32.5290  -51.9480   -2.7160 C.2    64  GLU64       0.3649
     52  OE1      -32.7850  -50.7410   -2.9140 O.co2  64  GLU64      -0.2457
     53  OE2      -31.3640  -52.3840   -2.5940 O.co2  64  GLU64      -0.2457
     54  N        -35.3220  -58.3530   -1.2480 N.3    68  MET68      -0.1245
     55  CA       -34.1720  -58.8810   -0.4950 C.3    68  MET68       0.1570
     56  C        -34.6000  -59.7480    0.6750 C.2    68  MET68       0.2261
     57  O        -33.8850  -60.6700    1.0560 O.2    68  MET68      -0.2867
     58  CB       -33.2890  -57.7640    0.0520 C.3    68  MET68       0.0387
     59  CG       -32.4080  -57.0790   -0.9670 C.3    68  MET68       0.0595
     60  SD       -31.1590  -56.0660   -0.1500 S.3    68  MET68      -0.1393
     61  CE       -29.9590  -57.3090    0.3220 C.3    68  MET68       0.0692
     62  N        -27.5220  -61.8220   -1.9000 N.3    77  CYS77      -0.1235
     63  CA       -27.5790  -61.1100   -0.6220 C.3    77  CYS77       0.1677
     64  C        -29.0140  -60.9960   -0.1030 C.2    77  CYS77       0.2270
     65  O        -29.9010  -60.5270   -0.8170 O.2    77  CYS77      -0.2867
     66  CB       -26.9780  -59.7090   -0.7740 C.3    77  CYS77       0.0956
     67  SG       -25.2150  -59.7040   -1.1730 S.3    77  CYS77      -0.0801
     68  N        -31.8170  -59.5610    2.8920 N.3    79  LEU79      -0.1245
     69  CA       -32.0680  -58.4700    3.8290 C.3    79  LEU79       0.1561
     70  C        -32.0670  -59.0330    5.2450 C.2    79  LEU79       0.2260
     71  O        -32.7730  -60.0000    5.5250 O.2    79  LEU79      -0.2867
     72  CB       -33.4280  -57.8380    3.5330 C.3    79  LEU79       0.0270
     73  CG       -33.8070  -56.5690    4.2960 C.3    79  LEU79       0.0019
     74  CD1      -32.9170  -55.4050    3.8860 C.3    79  LEU79       0.0001
     75  CD2      -35.2690  -56.2430    4.0530 C.3    79  LEU79       0.0001
     76  N        -32.1010  -49.8830    5.1710 N.3    90  LEU90      -0.1231
     77  CA       -31.9580  -51.3020    4.8670 C.3    90  LEU90       0.1693
     78  C        -30.6790  -51.8200    5.5100 C.2    90  LEU90       0.2592
     79  O        -29.6580  -51.1310    5.4970 O.2    90  LEU90      -0.2718
     80  CB       -31.9130  -51.5430    3.3570 C.3    90  LEU90       0.0284
     81  CG       -33.1120  -51.0490    2.5470 C.3    90  LEU90       0.0019
     82  CD1      -32.9340  -51.3940    1.0770 C.3    90  LEU90       0.0001
     83  CD2      -34.4140  -51.6320    3.0760 C.3    90  LEU90       0.0001
     84  N        -30.7450  -53.0310    6.0660 N.am   91  ILE91      -0.1966
     85  CA       -29.6020  -53.6550    6.7360 C.3    91  ILE91       0.1727
     86  C        -29.3080  -55.0300    6.1460 C.2    91  ILE91       0.2617
     87  O        -30.2000  -55.8640    6.0010 O.2    91  ILE91      -0.2715
     88  CB       -29.8450  -53.8290    8.2450 C.3    91  ILE91       0.0290
     89  CG1      -30.4720  -52.5690    8.8470 C.3    91  ILE91       0.0022
     90  CG2      -28.5410  -54.1800    8.9450 C.3    91  ILE91       0.0023
     91  CD1      -29.6220  -51.3320    8.6830 C.3    91  ILE91       0.0001
     92  N        -28.0430  -55.2640    5.8180 N.am   92  THR92      -0.1937
     93  CA       -27.6370  -56.5160    5.2030 C.3    92  THR92       0.2028
     94  C        -26.2130  -56.8770    5.6110 C.2    92  THR92       0.2642
     95  O        -25.4900  -56.0540    6.1630 O.2    92  THR92      -0.2714
     96  CB       -27.7420  -56.4230    3.6690 C.3    92  THR92       0.1808
     97  OG1      -27.8110  -57.7370    3.1070 O.3    92  THR92      -0.2208
     98  CG2      -26.5510  -55.6680    3.0950 C.3    92  THR92       0.0379
     99  N        -25.8260  -58.1180    5.3400 N.am   93  GLN93      -0.1963
    100  CA       -24.4870  -58.6040    5.6450 C.3    93  GLN93       0.1733
    101  C        -23.4540  -57.7900    4.8900 C.2    93  GLN93       0.2616
    102  O        -23.5990  -57.5640    3.6880 O.2    93  GLN93      -0.2715
    103  CB       -24.3620  -60.0650    5.2290 C.3    93  GLN93       0.0408
    104  CG       -23.0030  -60.6930    5.5020 C.3    93  GLN93       0.0908
    105  CD       -22.8740  -62.0870    4.9140 C.2    93  GLN93       0.2608
    106  OE1      -23.4560  -62.3940    3.8720 O.2    93  GLN93      -0.2717
    107  NE2      -22.1040  -62.9370    5.5770 N.am   93  GLN93      -0.0878
    108  N        -22.4090  -57.3650    5.5930 N.am   94  LEU94      -0.1963
    109  CA       -21.3220  -56.6230    4.9710 C.3    94  LEU94       0.1728
    110  C        -20.5500  -57.5270    4.0140 C.2    94  LEU94       0.2616
    111  O        -20.2400  -58.6720    4.3460 O.2    94  LEU94      -0.2715
    112  CB       -20.3750  -56.0630    6.0340 C.3    94  LEU94       0.0311
    113  CG       -19.1560  -55.2970    5.5110 C.3    94  LEU94       0.0022
    114  CD1      -19.5830  -54.0950    4.6840 C.3    94  LEU94       0.0001
    115  CD2      -18.2760  -54.8630    6.6690 C.3    94  LEU94       0.0001
    116  N        -20.2570  -57.0030    2.8260 N.am   95  MET95      -0.1964
    117  CA       -19.4470  -57.6950    1.8260 C.3    95  MET95       0.1722
    118  C        -18.1300  -56.9230    1.7280 C.2    95  MET95       0.2458
    119  O        -17.9800  -56.0570    0.8640 O.2    95  MET95      -0.2730
    120  CB       -20.1680  -57.7010    0.4770 C.3    95  MET95       0.0427
    121  CG       -21.4820  -58.4810    0.4360 C.3    95  MET95       0.0599
    122  SD       -21.2980  -60.2780    0.4610 S.3    95  MET95      -0.1393
    123  CE       -21.6210  -60.6290    2.1830 C.3    95  MET95       0.0692
    124  N        -17.1660  -57.2360    2.6150 N.am   96  PRO96      -0.2716
    125  CA       -16.0400  -56.3330    2.8950 C.3    96  PRO96       0.1536
    126  C        -15.1900  -55.9230    1.6910 C.2    96  PRO96       0.2599
    127  O        -14.6160  -54.8330    1.6920 O.2    96  PRO96      -0.2715
    128  CB       -15.1790  -57.1360    3.8820 C.3    96  PRO96       0.0310
    129  CG       -16.0860  -58.1740    4.4390 C.3    96  PRO96       0.0237
    130  CD       -17.0120  -58.5200    3.3190 C.3    96  PRO96       0.0939
    131  N        -15.1060  -56.7830    0.6800 N.am   97  PHE97      -0.1960
    132  CA       -14.2270  -56.5280   -0.4620 C.3    97  PHE97       0.1771
    133  C        -14.9080  -55.6960   -1.5560 C.2    97  PHE97       0.2620
    134  O        -14.3300  -55.4750   -2.6230 O.2    97  PHE97      -0.2715
    135  CB       -13.6960  -57.8510   -1.0260 C.3    97  PHE97       0.0574
    136  CG       -12.8870  -58.6450   -0.0390 C.ar   97  PHE97      -0.0200
    137  CD1      -13.5110  -59.4990    0.8590 C.ar   97  PHE97      -0.0042
    138  CD2      -11.5060  -58.5350   -0.0010 C.ar   97  PHE97      -0.0042
    139  CE1      -12.7720  -60.2290    1.7750 C.ar   97  PHE97      -0.0003
    140  CE2      -10.7610  -59.2620    0.9120 C.ar   97  PHE97      -0.0003
    141  CZ       -11.3950  -60.1110    1.8010 C.ar   97  PHE97      -0.0000
    142  N        -16.1290  -55.2350   -1.2870 N.am   98  GLY98      -0.1940
    143  CA       -16.8460  -54.3520   -2.1950 C.3    98  GLY98       0.2014
    144  C        -17.3530  -55.0660   -3.4310 C.2    98  GLY98       0.2639
    145  O        -17.3670  -56.3010   -3.4910 O.2    98  GLY98      -0.2714
    146  N        -17.7660  -54.2800   -4.4220 N.am   99  CYS99      -0.1967
    147  CA       -18.2900  -54.8230   -5.6660 C.3    99  CYS99       0.1712
    148  C        -17.1820  -55.4650   -6.4890 C.2    99  CYS99       0.2296
    149  O        -16.0190  -55.0640   -6.4070 O.2    99  CYS99      -0.2864
    150  CB       -18.9720  -53.7320   -6.4870 C.3    99  CYS99       0.0983
    151  SG       -17.8320  -52.5090   -7.1560 S.3    99  CYS99      -0.0798
    152  N        -31.0360  -55.6150  -13.5470 N.3   139  ASP139     -0.1239
    153  CA       -29.8420  -54.7670  -13.4220 C.3   139  ASP139      0.1674
    154  C        -28.5970  -55.5820  -13.0360 C.2   139  ASP139      0.2266
    155  O        -27.8620  -55.2230  -12.1160 O.2   139  ASP139     -0.2867
    156  CB       -30.0980  -53.6150  -12.4310 C.3   139  ASP139      0.1410
    157  CG       -28.9480  -52.6030  -12.3790 C.2   139  ASP139      0.3668
    158  OD1      -28.2340  -52.4360  -13.3950 O.co2 139  ASP139     -0.2456
    159  OD2      -28.7560  -51.9740  -11.3140 O.co2 139  ASP139     -0.2456
    160  N        -20.8390  -54.4120  -11.1440 N.3   143  ARG143     -0.1231
    161  CA       -21.0050  -53.4890  -10.0110 C.3   143  ARG143      0.1694
    162  C        -22.0580  -53.9550   -9.0030 C.2   143  ARG143      0.2592
    163  O        -22.0240  -53.5510   -7.8410 O.2   143  ARG143     -0.2718
    164  CB       -21.3820  -52.0890  -10.5060 C.3   143  ARG143      0.0321
    165  CG       -22.7220  -52.0420  -11.2180 C.3   143  ARG143      0.0489
    166  CD       -23.1130  -50.6430  -11.6550 C.3   143  ARG143      0.2205
    167  NE       -24.3720  -50.7100  -12.3920 N.pl3 143  ARG143     -0.0865
    168  CZ       -24.4980  -51.1040  -13.6600 C.cat 143  ARG143      0.5346
    169  NH1      -23.4380  -51.4510  -14.3770 N.pl3 143  ARG143      0.1354
    170  NH2      -25.7000  -51.1440  -14.2200 N.pl3 143  ARG143      0.1354
    171  N        -23.0000  -54.7800   -9.4570 N.am  144  ASN144     -0.1974
    172  CA       -24.0710  -55.2970   -8.6000 C.3   144  ASN144      0.1688
    173  C        -23.8070  -56.7110   -8.0630 C.2   144  ASN144      0.2292
    174  O        -24.7150  -57.3630   -7.5440 O.2   144  ASN144     -0.2864
    175  CB       -25.4010  -55.2490   -9.3570 C.3   144  ASN144      0.1181
    176  CG       -25.8070  -53.8340   -9.7200 C.2   144  ASN144      0.2629
    177  OD1      -25.6270  -52.9090   -8.9350 O.2   144  ASN144     -0.2716
    178  ND2      -26.3470  -53.6590  -10.9160 N.am  144  ASN144     -0.0877
    179  N        -21.3190  -58.4470   -5.3000 N.3   146  LEU146     -0.1245
    180  CA       -20.4300  -58.0810   -4.2020 C.3   146  LEU146      0.1561
    181  C        -19.5300  -59.2510   -3.8210 C.2   146  LEU146      0.2260
    182  O        -19.8640  -60.4070   -4.0840 O.2   146  LEU146     -0.2867
    183  CB       -21.2440  -57.6100   -2.9930 C.3   146  LEU146      0.0270
    184  CG       -22.0330  -56.3050   -3.1760 C.3   146  LEU146      0.0019
    185  CD1      -23.0510  -56.1270   -2.0590 C.3   146  LEU146      0.0001
    186  CD2      -21.0970  -55.1080   -3.2460 C.3   146  LEU146      0.0001
    187  N        -26.5920  -58.7840   -5.8160 N.3   156  THR156     -0.1203
    188  CA       -27.2330  -57.8020   -4.9430 C.3   156  THR156      0.1994
    189  C        -27.9540  -56.7280   -5.7610 C.2   156  THR156      0.2617
    190  O        -28.1630  -56.8980   -6.9600 O.2   156  THR156     -0.2717
    191  CB       -26.1970  -57.1660   -3.9870 C.3   156  THR156      0.1784
    192  OG1      -26.8680  -56.4660   -2.9290 O.3   156  THR156     -0.2211
    193  CG2      -25.2800  -56.2060   -4.7320 C.3   156  THR156      0.0376
    194  N        -28.3340  -55.6350   -5.0960 N.am  157  ASP157     -0.1973
    195  CA       -29.0170  -54.4950   -5.7210 C.3   157  ASP157      0.1709
    196  C        -30.2970  -54.7560   -6.5080 C.2   157  ASP157      0.2293
    197  O        -30.3510  -54.5560   -7.7190 O.2   157  ASP157     -0.2864
    198  CB       -28.0440  -53.6850   -6.5870 C.3   157  ASP157      0.1436
    199  CG       -27.5490  -52.4310   -5.8880 C.2   157  ASP157      0.3671
    200  OD1      -28.2380  -51.3910   -5.9830 O.co2 157  ASP157     -0.2456
    201  OD2      -26.4710  -52.4820   -5.2540 O.co2 157  ASP157     -0.2456
@<TRIPOS>BOND
     1   169   168    1
     2   170   168    1
     3   168   167    2
     4   152   153    1
     5   153   154    1
     6   153   156    1
     7   158   157   ar
     8   154   155    2
     9   156   157    1
    10   167   166    1
    11   157   159   ar
    12   166   165    1
    13   165   164    1
    14   160   161    1
    15   178   176   am
    16   164   161    1
    17   161   162    1
    18   176   175    1
    19   176   177    2
    20   171   162   am
    21   171   172    1
    22   175   172    1
    23   162   163    2
    24   172   173    1
    25   173   174    2
    26   197   196    2
    27   151   150    1
    28   190   189    2
    29   198   199    1
    30   198   195    1
    31   196   195    1
    32   148   149    2
    33   148   147    1
    34   150   147    1
    35   200   199   ar
    36   199   201   ar
    37   187   188    1
    38   189   194   am
    39   189   188    1
    40   195   194    1
    41   147   146    1
    42   179   180    1
    43    20    22   ar
    44    20    18   ar
    45    13    14    1
    46   188   191    1
    47    22    23   ar
    48   193   191    1
    49   146   144   am
    50    17    14    1
    51    17    18    1
    52    14    15    1
    53   180   181    1
    54   180   183    1
    55    18    19   ar
    56   182   181    2
    57   191   192    1
    58    23    21   ar
    59   145   144    2
    60   144   143    1
    61   186   184    1
    62   184   183    1
    63   184   185    1
    64    52    51   ar
    65    19    21   ar
    66    15    16    2
    67    51    50    1
    68    51    53   ar
    69    45    46    1
    70   134   133    2
    71    50    49    1
    72    49    46    1
    73    46    47    1
    74    44    43    1
    75   143   142    1
    76    62    63    1
    77   133   142   am
    78   133   132    1
    79    48    47    2
    80    43    42    1
    81    54    55    1
    82    67    66    1
    83   135   132    1
    84   135   136    1
    85    59    60    1
    86    59    58    1
    87    65    64    2
    88    66    63    1
    89    63    64    1
    90    55    58    1
    91    55    56    1
    92   132   131    1
    93    11    10    1
    94    11    12    2
    95    10     9    1
    96    42    41    1
    97    60    61    1
    98   136   138   ar
    99   136   137   ar
   100   138   140   ar
   101     4     3    2
   102    30    28    1
   103   121   122    1
   104   121   120    1
   105   122   123    1
   106   120   117    1
   107    56    57    2
   108   131   126   am
   109     9     3   am
   110   137   139   ar
   111   119   118    2
   112    41    40    1
   113   140   141   ar
   114     3     2    1
   115    82    81    1
   116    28    29    1
   117    28    25    1
   118   126   127    2
   119   126   125    1
   120   118   117    1
   121   118   124   am
   122   139   141   ar
   123   117   116    1
   124    24    25    1
   125    40    37    1
   126     5     2    1
   127     5     6    1
   128     2     1    1
   129    25    26    1
   130    81    83    1
   131    81    80    1
   132   124   125    1
   133   124   130    1
   134   116   110   am
   135    68    69    1
   136   125   128    1
   137    98    96    1
   138    97    96    1
   139    27    26    2
   140   130   129    1
   141    80    77    1
   142    37    38    1
   143    37    36    1
   144    72    69    1
   145    72    73    1
   146     7     6    1
   147     6     8    1
   148    38    39    2
   149    96    93    1
   150   102   101    2
   151    69    70    1
   152   106   105    2
   153   128   129    1
   154    74    73    1
   155   110   111    2
   156   110   109    1
   157    75    73    1
   158    35    32    1
   159   114   113    1
   160    77    76    1
   161    77    78    1
   162   101   108   am
   163   101   100    1
   164   105   104    1
   165   105   107   am
   166   109   108    1
   167   109   112    1
   168    93    94    1
   169    93    92    1
   170   103   104    1
   171   103   100    1
   172    70    71    2
   173    99    94   am
   174    99   100    1
   175    79    78    2
   176    78    84   am
   177   113   112    1
   178   113   115    1
   179    94    95    2
   180    32    33    1
   181    32    31    1
   182    34    33    2
   183    92    86   am
   184    87    86    2
   185    84    85    1
   186    86    85    1
   187    85    88    1
   188    88    89    1
   189    88    90    1
   190    91    89    1
