@<TRIPOS>MOLECULE
tmp/4jrzA03.pdb
 121 113 0 0 0
SMALL
GASTEIGER

@<TRIPOS>ATOM
      1  N          5.8150  -18.3120  -10.6740 N.3    57  ARG57      -0.1245
      2  CA         7.0770  -18.4870   -9.9850 C.3    57  ARG57       0.1563
      3  C          7.6280  -19.8600  -10.3360 C.2    57  ARG57       0.2260
      4  O          8.8450  -20.0650  -10.3660 O.2    57  ARG57      -0.2867
      5  CB         6.8820  -18.3370   -8.4800 C.3    57  ARG57       0.0307
      6  CG         8.1430  -18.4270   -7.6550 C.3    57  ARG57       0.0489
      7  CD         8.5420  -17.0650   -7.1160 C.3    57  ARG57       0.2205
      8  NE         8.8610  -16.1030   -8.1660 N.pl3  57  ARG57      -0.0865
      9  CZ        10.0780  -15.9460   -8.6750 C.cat  57  ARG57       0.5346
     10  NH1       11.0710  -16.6990   -8.2320 N.pl3  57  ARG57       0.1354
     11  NH2       10.3030  -15.0450   -9.6260 N.pl3  57  ARG57       0.1354
     12  N         11.3200  -20.4050  -11.9620 N.3    61  ASN61      -0.1240
     13  CA        12.3280  -21.2550  -11.3300 C.3    61  ASN61       0.1653
     14  C         12.8730  -22.2910  -12.3030 C.2    61  ASN61       0.2266
     15  O         14.0630  -22.5560  -12.3150 O.2    61  ASN61      -0.2867
     16  CB        11.7960  -21.9710  -10.0800 C.3    61  ASN61       0.1155
     17  CG        11.7230  -21.0620   -8.8460 C.2    61  ASN61       0.2627
     18  OD1       12.3720  -20.0120   -8.7650 O.2    61  ASN61      -0.2716
     19  ND2       10.9330  -21.4810   -7.8720 N.am   61  ASN61      -0.0877
     20  N         15.3280  -20.7500  -14.6870 N.3    64  GLU64      -0.1231
     21  CA        16.6030  -20.3900  -14.0940 C.3    64  GLU64       0.1699
     22  C         17.5400  -21.5910  -14.0390 C.2    64  GLU64       0.2592
     23  O         18.7580  -21.4440  -14.0860 O.2    64  GLU64      -0.2718
     24  CB        16.3880  -19.9240  -12.6640 C.3    64  GLU64       0.0402
     25  CG        16.2090  -18.4490  -12.5290 C.3    64  GLU64       0.1161
     26  CD        16.0260  -18.0140  -11.0720 C.2    64  GLU64       0.3649
     27  OE1       15.8610  -18.8800  -10.1700 O.co2  64  GLU64      -0.2457
     28  OE2       16.0720  -16.7920  -10.8390 O.co2  64  GLU64      -0.2457
     29  N         16.9490  -22.7660  -13.8660 N.am   65  TYR65      -0.1976
     30  CA        17.6970  -23.9900  -13.7330 C.3    65  TYR65       0.1639
     31  C         17.9220  -24.7260  -15.0610 C.2    65  TYR65       0.2290
     32  O         18.7510  -25.5980  -15.1210 O.2    65  TYR65      -0.2864
     33  CB        17.0020  -24.9060  -12.7390 C.3    65  TYR65       0.0560
     34  CG        17.5190  -24.7160  -11.3440 C.ar   65  TYR65      -0.0198
     35  CD1       18.5230  -25.5370  -10.8440 C.ar   65  TYR65      -0.0009
     36  CD2       17.0280  -23.6930  -10.5260 C.ar   65  TYR65      -0.0009
     37  CE1       19.0190  -25.3630   -9.5740 C.ar   65  TYR65       0.0417
     38  CE2       17.5220  -23.5090   -9.2450 C.ar   65  TYR65       0.0417
     39  CZ        18.5150  -24.3490   -8.7780 C.ar   65  TYR65       0.1957
     40  OH        19.0090  -24.1940   -7.5060 O.3    65  TYR65      -0.2866
     41  N         21.4270  -24.7290  -16.4120 N.3    68  LEU68      -0.1245
     42  CA        22.3240  -25.4730  -15.5450 C.3    68  LEU68       0.1561
     43  C         22.1720  -26.9310  -15.8950 C.2    68  LEU68       0.2260
     44  O         23.1440  -27.6710  -15.9680 O.2    68  LEU68      -0.2867
     45  CB        21.9900  -25.2950  -14.0600 C.3    68  LEU68       0.0270
     46  CG        21.9620  -23.9020  -13.4270 C.3    68  LEU68       0.0019
     47  CD1       22.0770  -24.0130  -11.9040 C.3    68  LEU68       0.0001
     48  CD2       23.0540  -23.0680  -14.0060 C.3    68  LEU68       0.0001
     49  N         10.6900  -32.2100  -12.8530 N.3    96  ARG96      -0.1245
     50  CA        10.3600  -30.8110  -13.0960 C.3    96  ARG96       0.1563
     51  C          8.9190  -30.5960  -13.5440 C.2    96  ARG96       0.2260
     52  O          8.3050  -29.6050  -13.1750 O.2    96  ARG96      -0.2867
     53  CB        11.3250  -30.1760  -14.1020 C.3    96  ARG96       0.0307
     54  CG        12.6500  -29.7950  -13.4970 C.3    96  ARG96       0.0489
     55  CD        12.4540  -28.8070  -12.3890 C.3    96  ARG96       0.2205
     56  NE        13.7090  -28.1980  -11.9790 N.pl3  96  ARG96      -0.0865
     57  CZ        13.8010  -27.2520  -11.0530 C.cat  96  ARG96       0.5346
     58  NH1       12.7020  -26.8180  -10.4450 N.pl3  96  ARG96       0.1354
     59  NH2       14.9890  -26.7430  -10.7320 N.pl3  96  ARG96       0.1354
     60  N          7.0760  -30.8410  -10.3410 N.3    99  TYR99      -0.1241
     61  CA         7.3160  -29.6250   -9.5770 C.3    99  TYR99       0.1605
     62  C          6.3390  -28.5350  -10.0320 C.2    99  TYR99       0.2264
     63  O          5.6650  -27.8870   -9.2220 O.2    99  TYR99      -0.2867
     64  CB         8.7860  -29.1980   -9.7410 C.3    99  TYR99       0.0534
     65  CG         9.1490  -27.8340   -9.1990 C.ar   99  TYR99      -0.0201
     66  CD1        9.5970  -27.6690   -7.8940 C.ar   99  TYR99      -0.0009
     67  CD2        9.0620  -26.7120  -10.0040 C.ar   99  TYR99      -0.0009
     68  CE1        9.9280  -26.4090   -7.3990 C.ar   99  TYR99       0.0417
     69  CE2        9.3920  -25.4500   -9.5210 C.ar   99  TYR99       0.0417
     70  CZ         9.8200  -25.3070   -8.2250 C.ar   99  TYR99       0.1957
     71  OH        10.1390  -24.0420   -7.7780 O.3    99  TYR99      -0.2866
     72  N          5.1170  -28.6100   -4.1310 N.3   110  ARG110     -0.1245
     73  CA         6.2360  -28.4560   -5.0360 C.3   110  ARG110      0.1563
     74  C          7.4860  -29.1150   -4.4430 C.2   110  ARG110      0.2260
     75  O          8.4270  -29.4390   -5.1670 O.2   110  ARG110     -0.2867
     76  CB         6.5030  -26.9730   -5.3190 C.3   110  ARG110      0.0307
     77  CG         7.6490  -26.3910   -4.5020 C.3   110  ARG110      0.0489
     78  CD         7.7050  -24.8870   -4.6160 C.3   110  ARG110      0.2205
     79  NE         8.8250  -24.3550   -3.8490 N.pl3 110  ARG110     -0.0865
     80  CZ         8.8080  -24.1450   -2.5350 C.cat 110  ARG110      0.5346
     81  NH1        9.8870  -23.6610   -1.9380 N.pl3 110  ARG110      0.1354
     82  NH2        7.7190  -24.4250   -1.8170 N.pl3 110  ARG110      0.1354
     83  N         10.6430  -31.1990   -6.1480 N.3   114  LEU114     -0.1245
     84  CA        11.8620  -30.4000   -6.1250 C.3   114  LEU114      0.1561
     85  C         13.0560  -31.2250   -5.6330 C.2   114  LEU114      0.2260
     86  O         14.1630  -31.1090   -6.1650 O.2   114  LEU114     -0.2867
     87  CB        11.7120  -29.1350   -5.2820 C.3   114  LEU114      0.0270
     88  CG        12.9840  -28.2860   -5.2040 C.3   114  LEU114      0.0019
     89  CD1       13.3570  -27.7550   -6.5910 C.3   114  LEU114      0.0001
     90  CD2       12.8670  -27.1550   -4.2010 C.3   114  LEU114      0.0001
     91  N         16.4370  -32.0890   -7.7320 N.3   118  ALA118     -0.1245
     92  CA        17.7850  -31.7130   -7.3020 C.3   118  ALA118      0.1562
     93  C         18.7150  -32.9240   -7.1380 C.2   118  ALA118      0.2260
     94  O         19.9260  -32.8000   -7.3070 O.2   118  ALA118     -0.2867
     95  CB        17.7500  -30.8970   -6.0340 C.3   118  ALA118      0.0290
     96  N         19.8420  -33.6590  -10.6520 N.3   121  LEU121     -0.1231
     97  CA        20.7860  -32.6310  -11.0720 C.3   121  LEU121      0.1693
     98  C         22.1210  -32.8420  -10.3980 C.2   121  LEU121      0.2592
     99  O         23.1810  -32.6080  -11.0000 O.2   121  LEU121     -0.2718
    100  CB        20.2680  -31.2320  -10.7650 C.3   121  LEU121      0.0284
    101  CG        21.1400  -30.0960  -11.3020 C.3   121  LEU121      0.0019
    102  CD1       21.3480  -30.2410  -12.8220 C.3   121  LEU121      0.0001
    103  CD2       20.5260  -28.7440  -10.9860 C.3   121  LEU121      0.0001
    104  N         22.0620  -33.2980   -9.1520 N.am  122  PHE122     -0.1976
    105  CA        23.2580  -33.5890   -8.3800 C.3   122  PHE122      0.1639
    106  C         24.0230  -34.7650   -8.9840 C.2   122  PHE122      0.2290
    107  O         25.2510  -34.7990   -8.9820 O.2   122  PHE122     -0.2864
    108  CB        22.9040  -33.9310   -6.9330 C.3   122  PHE122      0.0560
    109  CG        24.0860  -34.3980   -6.1320 C.ar  122  PHE122     -0.0200
    110  CD1       24.9540  -33.4760   -5.5600 C.ar  122  PHE122     -0.0042
    111  CD2       24.3480  -35.7590   -5.9730 C.ar  122  PHE122     -0.0042
    112  CE1       26.0580  -33.9040   -4.8350 C.ar  122  PHE122     -0.0003
    113  CE2       25.4480  -36.1910   -5.2530 C.ar  122  PHE122     -0.0003
    114  CZ        26.3040  -35.2630   -4.6850 C.ar  122  PHE122     -0.0000
    115  N         25.9260  -33.6230  -12.0650 N.3   125  VAL125     -0.1245
    116  CA        27.1070  -32.8410  -11.7100 C.3   125  VAL125      0.1561
    117  C         28.2290  -33.7750  -11.2580 C.2   125  VAL125      0.2260
    118  O         29.4160  -33.5170  -11.5000 O.2   125  VAL125     -0.2867
    119  CB        26.7870  -31.8130  -10.5690 C.3   125  VAL125      0.0252
    120  CG1       28.0540  -31.1280  -10.0620 C.3   125  VAL125      0.0019
    121  CG2       25.7640  -30.7680  -11.0350 C.3   125  VAL125      0.0019
@<TRIPOS>BOND
     1    41    42    1
     2    44    43    2
     3    43    42    1
     4    42    45    1
     5    32    31    2
     6    31    30    1
     7    20    21    1
     8    53    54    1
     9    53    50    1
    10    21    22    1
    11    21    24    1
    12    23    22    2
    13    45    46    1
    14    22    29   am
    15    48    46    1
    16    29    30    1
    17    30    33    1
    18    51    52    2
    19    51    50    1
    20    54    55    1
    21    46    47    1
    22    50    49    1
    23   102   101    1
    24    33    34    1
    25    24    25    1
    26    25    26    1
    27    55    56    1
    28    15    14    2
    29    14    13    1
    30   115   116    1
    31    56    57    2
    32    12    13    1
    33   116   117    1
    34   116   119    1
    35   118   117    2
    36    34    35   ar
    37    34    36   ar
    38    13    16    1
    39   101   103    1
    40   101   100    1
    41    97   100    1
    42    97    96    1
    43    97    98    1
    44    26    28   ar
    45    26    27   ar
    46    57    59    1
    47    57    58    1
    48   121   119    1
    49    99    98    2
    50    35    37   ar
    51     1     2    1
    52   119   120    1
    53    36    38   ar
    54    98   104   am
    55     4     3    2
    56    60    61    1
    57     3     2    1
    58    16    17    1
    59    62    61    1
    60    62    63    2
    61    67    69   ar
    62    67    65   ar
    63     2     5    1
    64    64    61    1
    65    64    65    1
    66    11     9    1
    67    37    39   ar
    68    69    70   ar
    69    38    39   ar
    70    65    66   ar
    71   104   105    1
    72   106   107    2
    73   106   105    1
    74    17    18    2
    75    17    19   am
    76    39    40    1
    77     9    10    1
    78     9     8    2
    79     5     6    1
    80   105   108    1
    81    70    71    1
    82    70    68   ar
    83     8     7    1
    84    66    68   ar
    85    91    92    1
    86     6     7    1
    87    94    93    2
    88    92    93    1
    89    92    95    1
    90   108   109    1
    91    89    88    1
    92    86    85    2
    93    83    84    1
    94   109   111   ar
    95   109   110   ar
    96    84    85    1
    97    84    87    1
    98   111   113   ar
    99   110   112   ar
   100    76    73    1
   101    76    77    1
   102    87    88    1
   103   113   114   ar
   104    88    90    1
   105    75    74    2
   106    73    74    1
   107    73    72    1
   108   112   114   ar
   109    78    77    1
   110    78    79    1
   111    79    80    2
   112    80    81    1
   113    80    82    1
