@<TRIPOS>MOLECULE
tmp/4js0A01.pdb
 85 81 0 0 0
SMALL
GASTEIGER

@<TRIPOS>ATOM
      1  N         -1.6360  -20.9250    6.1580 N.3    87  PRO87      -0.2116
      2  CA        -1.8020  -19.5400    6.6220 C.3    87  PRO87       0.1372
      3  C         -1.9380  -19.4060    8.1320 C.2    87  PRO87       0.2244
      4  O         -1.4390  -18.4260    8.6690 O.2    87  PRO87      -0.2868
      5  CB        -3.0750  -19.0900    5.9190 C.3    87  PRO87       0.0268
      6  CG        -3.0540  -19.8990    4.6490 C.3    87  PRO87       0.0207
      7  CD        -2.5020  -21.2340    5.0130 C.3    87  PRO87       0.0892
      8  N          1.4330  -19.1170    9.7310 N.3    90  PHE90      -0.1227
      9  CA         2.0880  -17.8520    9.4290 C.3    90  PHE90       0.1736
     10  C          1.5310  -16.8030   10.3880 C.2    90  PHE90       0.2595
     11  O          2.2980  -16.0730   10.9930 O.2    90  PHE90      -0.2718
     12  CB         1.8420  -17.4610    7.9660 C.3    90  PHE90       0.0547
     13  CG         2.4960  -16.1720    7.5460 C.ar   90  PHE90      -0.0202
     14  CD1        3.8930  -16.0790    7.4750 C.ar   90  PHE90      -0.0042
     15  CD2        1.7400  -15.0740    7.1890 C.ar   90  PHE90      -0.0042
     16  CE1        4.5120  -14.8670    7.0480 C.ar   90  PHE90      -0.0003
     17  CE2        2.3430  -13.8650    6.7640 C.ar   90  PHE90      -0.0003
     18  CZ         3.7250  -13.7670    6.6840 C.ar   90  PHE90      -0.0000
     19  N          0.2140  -16.7300   10.5340 N.am   91  GLU91      -0.1979
     20  CA        -0.3700  -15.8150   11.5040 C.3    91  GLU91       0.1602
     21  C          0.2240  -16.0450   12.9080 C.2    91  GLU91       0.2287
     22  O          0.4520  -15.0850   13.6460 O.2    91  GLU91      -0.2864
     23  CB        -1.8920  -15.9400   11.5400 C.3    91  GLU91       0.0415
     24  CG        -2.5740  -14.9040   12.4530 C.3    91  GLU91       0.1163
     25  CD        -4.1030  -14.8560   12.2970 C.2    91  GLU91       0.3649
     26  OE1       -4.6530  -13.7330   12.2400 O.co2  91  GLU91      -0.2457
     27  OE2       -4.7420  -15.9290   12.2240 O.co2  91  GLU91      -0.2457
     28  N          3.4560  -14.2470   14.2870 N.3    94  LYS94      -0.1231
     29  CA         3.2380  -12.9410   14.8830 C.3    94  LYS94       0.1693
     30  C          2.4730  -13.0330   16.2090 C.2    94  LYS94       0.2591
     31  O          2.7660  -12.3070   17.1500 O.2    94  LYS94      -0.2718
     32  CB         2.4530  -12.0810   13.8790 C.3    94  LYS94       0.0285
     33  CG         2.2650  -10.6600   14.2740 C.3    94  LYS94       0.0035
     34  CD         1.4070   -9.9280   13.2310 C.3    94  LYS94       0.0206
     35  CE         1.3670   -8.4250   13.5240 C.3    94  LYS94       0.1093
     36  NZ         0.3300   -7.7000   12.7260 N.3    94  LYS94      -0.1314
     37  N          1.4710  -13.9100   16.2720 N.am   95  GLU95      -0.1979
     38  CA         0.5900  -13.9490   17.4300 C.3    95  GLU95       0.1602
     39  C          1.1340  -14.7930   18.5910 C.2    95  GLU95       0.2287
     40  O          0.6740  -14.6420   19.7400 O.2    95  GLU95      -0.2864
     41  CB        -0.7910  -14.4480   17.0310 C.3    95  GLU95       0.0415
     42  CG        -1.6190  -13.4610   16.1780 C.3    95  GLU95       0.1163
     43  CD        -2.3680  -12.4210   17.0140 C.2    95  GLU95       0.3649
     44  OE1       -2.2450  -12.4310   18.2640 O.co2  95  GLU95      -0.2457
     45  OE2       -3.0900  -11.5840   16.4260 O.co2  95  GLU95      -0.2457
     46  N          5.2780  -11.5120    1.0210 N.3   141  THR141     -0.1218
     47  CA         4.5290  -11.3620    2.2460 C.3   141  THR141      0.1862
     48  C          5.3710  -11.7620    3.4530 C.2   141  THR141      0.2287
     49  O          5.3800  -11.0970    4.4770 O.2   141  THR141     -0.2866
     50  CB         3.2670  -12.2210    2.1670 C.3   141  THR141      0.1770
     51  OG1        2.4890  -11.7760    1.0560 O.3   141  THR141     -0.2211
     52  CG2        2.4440  -12.0910    3.4390 C.3   141  THR141      0.0375
     53  N          8.0270   -9.1830    4.2930 N.3   144  LYS144     -0.1231
     54  CA         7.4720   -8.0180    4.9540 C.3   144  LYS144      0.1693
     55  C          7.3260   -8.2770    6.4440 C.2   144  LYS144      0.2591
     56  O          7.6880   -7.4400    7.2540 O.2   144  LYS144     -0.2718
     57  CB         6.1260   -7.6330    4.3650 C.3   144  LYS144      0.0285
     58  CG         5.5700   -6.3740    4.9950 C.3   144  LYS144      0.0035
     59  CD         4.2810   -5.9290    4.3350 C.3   144  LYS144      0.0206
     60  CE         3.3190   -5.3760    5.3730 C.3   144  LYS144      0.1093
     61  NZ         3.9590   -4.3610    6.2690 N.3   144  LYS144     -0.1314
     62  N          6.7800   -9.4300    6.8060 N.am  145  LEU145     -0.1980
     63  CA         6.6330   -9.7800    8.2230 C.3   145  LEU145      0.1596
     64  C          8.0060   -9.9150    8.8950 C.2   145  LEU145      0.2287
     65  O          8.2010   -9.4950   10.0390 O.2   145  LEU145     -0.2864
     66  CB         5.8420  -11.0830    8.3790 C.3   145  LEU145      0.0297
     67  CG         5.5350  -11.4620    9.8280 C.3   145  LEU145      0.0022
     68  CD1        4.6330  -10.4390   10.4730 C.3   145  LEU145      0.0001
     69  CD2        4.9210  -12.8450    9.9160 C.3   145  LEU145      0.0001
     70  N          9.0530   -6.4770    9.6760 N.3   148  ASP148     -0.1225
     71  CA         8.2210   -5.9020   10.7500 C.3   148  ASP148      0.1805
     72  C          8.5320   -6.5020   12.1390 C.2   148  ASP148      0.2597
     73  O          8.4870   -5.8130   13.1500 O.2   148  ASP148     -0.2718
     74  CB         6.7310   -6.0860   10.4420 C.3   148  ASP148      0.1424
     75  CG         6.2580   -5.2780    9.2050 C.2   148  ASP148      0.3668
     76  OD1        6.9530   -4.3220    8.7710 O.co2 148  ASP148     -0.2456
     77  OD2        5.1670   -5.6010    8.6810 O.co2 148  ASP148     -0.2456
     78  N          8.8500   -7.7850   12.1910 N.am  149  LEU149     -0.1979
     79  CA         9.1040   -8.4550   13.4620 C.3   149  LEU149      0.1596
     80  C         10.5760   -8.4120   13.8560 C.2   149  LEU149      0.2287
     81  O         10.9680   -8.9170   14.9050 O.2   149  LEU149     -0.2864
     82  CB         8.6480   -9.9160   13.3550 C.3   149  LEU149      0.0297
     83  CG         7.1450  -10.0820   13.1000 C.3   149  LEU149      0.0022
     84  CD1        6.7190  -11.5490   13.1020 C.3   149  LEU149      0.0001
     85  CD2        6.3510   -9.2970   14.1220 C.3   149  LEU149      0.0001
@<TRIPOS>BOND
     1    46    47    1
     2    51    50    1
     3    50    47    1
     4    50    52    1
     5    47    48    1
     6    48    49    2
     7    53    54    1
     8    59    58    1
     9    59    60    1
    10    57    54    1
    11    57    58    1
    12     6     7    1
    13     6     5    1
    14    54    55    1
    15     7     1    1
    16    60    61    1
    17     5     2    1
    18     1     2    1
    19    55    62   am
    20    55    56    2
    21     2     3    1
    22    18    17   ar
    23    18    16   ar
    24    17    15   ar
    25    62    63    1
    26    16    14   ar
    27    15    13   ar
    28    14    13   ar
    29    13    12    1
    30    12     9    1
    31     3     4    2
    32    63    66    1
    33    63    64    1
    34    66    67    1
    35    77    75   ar
    36    76    75   ar
    37    64    65    2
    38    75    74    1
    39     9     8    1
    40     9    10    1
    41    70    71    1
    42    67    69    1
    43    67    68    1
    44    10    19   am
    45    10    11    2
    46    74    71    1
    47    19    20    1
    48    71    72    1
    49    20    23    1
    50    20    21    1
    51    23    24    1
    52    72    78   am
    53    72    73    2
    54    78    79    1
    55    27    25   ar
    56    26    25   ar
    57    25    24    1
    58    36    35    1
    59    21    22    2
    60    83    84    1
    61    83    82    1
    62    83    85    1
    63    34    35    1
    64    34    33    1
    65    82    79    1
    66    79    80    1
    67    80    81    2
    68    32    33    1
    69    32    29    1
    70    28    29    1
    71    29    30    1
    72    42    43    1
    73    42    41    1
    74    30    37   am
    75    30    31    2
    76    37    38    1
    77    45    43   ar
    78    43    44   ar
    79    41    38    1
    80    38    39    1
    81    39    40    2
