@<TRIPOS>MOLECULE
tmp/4js1A00.pdb
 153 149 0 0 0
SMALL
GASTEIGER

@<TRIPOS>ATOM
      1  N          4.8780   45.1310   41.5810 N.3   100  SER100     -0.1202
      2  CA         4.4860   46.3740   40.9370 C.3   100  SER100      0.2020
      3  C          5.5180   47.3830   41.3810 C.2   100  SER100      0.2619
      4  O          6.3080   47.0860   42.2580 O.2   100  SER100     -0.2717
      5  CB         3.0720   46.7730   41.3570 C.3   100  SER100      0.2103
      6  OG         3.0400   48.0550   41.9450 O.3   100  SER100     -0.2182
      7  N          5.5500   48.5680   40.7980 N.am  101  SER101     -0.1937
      8  CA         6.5770   49.5280   41.2270 C.3   101  SER101      0.2055
      9  C          6.0780   50.5980   42.1820 C.2   101  SER101      0.2643
     10  O          6.8070   51.5380   42.4880 O.2   101  SER101     -0.2714
     11  CB         7.2190   50.2000   40.0180 C.3   101  SER101      0.2130
     12  OG         7.8270   49.2210   39.1920 O.3   101  SER101     -0.2179
     13  N          4.8420   50.4480   42.6500 N.am  102  ALA102     -0.1963
     14  CA         4.1760   51.4340   43.5240 C.3   102  ALA102      0.1728
     15  C          5.0010   51.9230   44.7300 C.2   102  ALA102      0.2616
     16  O          5.7910   51.1760   45.2980 O.2   102  ALA102     -0.2715
     17  CB         2.8410   50.8700   44.0090 C.3   102  ALA102      0.0334
     18  N          4.7910   53.1810   45.1150 N.am  103  GLY103     -0.1955
     19  CA         5.3820   53.7360   46.3250 C.3   103  GLY103      0.1869
     20  C          4.8740   53.0170   47.5560 C.2   103  GLY103      0.2309
     21  O          5.5150   53.0110   48.6070 O.2   103  GLY103     -0.2863
     22  N          9.6070   45.5790   36.8320 N.3   123  PHE123     -0.1227
     23  CA         9.3020   46.4010   35.6650 C.3   123  PHE123      0.1736
     24  C         10.2930   47.5130   35.4050 C.2   123  PHE123      0.2595
     25  O         10.8150   48.1170   36.3390 O.2   123  PHE123     -0.2718
     26  CB         7.9070   47.0110   35.8040 C.3   123  PHE123      0.0547
     27  CG         6.8310   45.9890   35.9060 C.ar  123  PHE123     -0.0202
     28  CD1        6.3930   45.3170   34.7800 C.ar  123  PHE123     -0.0042
     29  CD2        6.2660   45.6830   37.1280 C.ar  123  PHE123     -0.0042
     30  CE1        5.4000   44.3650   34.8660 C.ar  123  PHE123     -0.0003
     31  CE2        5.2720   44.7260   37.2220 C.ar  123  PHE123     -0.0003
     32  CZ         4.8410   44.0660   36.0870 C.ar  123  PHE123     -0.0000
     33  N         10.5230   47.7990   34.1230 N.am  124  ASN124     -0.1974
     34  CA        11.3280   48.9520   33.7550 C.3   124  ASN124      0.1688
     35  C         12.6130   49.0520   34.5790 C.2   124  ASN124      0.2292
     36  O         13.4030   48.1110   34.6100 O.2   124  ASN124     -0.2864
     37  CB        10.4860   50.2130   33.8970 C.3   124  ASN124      0.1181
     38  CG         9.2720   50.1840   33.0080 C.2   124  ASN124      0.2629
     39  OD1        9.3570   49.7960   31.8460 O.2   124  ASN124     -0.2716
     40  ND2        8.1280   50.5890   33.5440 N.am  124  ASN124     -0.0877
     41  N         -1.1000   48.7320   31.0470 N.3   234  SER234     -0.1202
     42  CA         0.1710   49.0770   31.6810 C.3   234  SER234      0.2020
     43  C          1.1200   47.8840   31.6300 C.2   234  SER234      0.2619
     44  O          0.6850   46.7480   31.4740 O.2   234  SER234     -0.2717
     45  CB        -0.0650   49.5630   33.1350 C.3   234  SER234      0.2103
     46  OG        -0.3570   48.4790   33.9920 O.3   234  SER234     -0.2182
     47  N          2.4230   48.1100   31.7560 N.am  235  SER235     -0.1937
     48  CA         3.3420   46.9630   31.8310 C.3   235  SER235      0.2055
     49  C          2.8900   45.9820   32.9180 C.2   235  SER235      0.2643
     50  O          3.0140   44.7640   32.7850 O.2   235  SER235     -0.2714
     51  CB         4.7710   47.4450   32.1260 C.3   235  SER235      0.2130
     52  OG         5.2660   48.2930   31.0830 O.3   235  SER235     -0.2179
     53  N          2.3420   46.5150   34.0010 N.am  236  GLY236     -0.1954
     54  CA         1.8870   45.6640   35.0860 C.3   236  GLY236      0.1869
     55  C          0.8300   44.6500   34.6830 C.2   236  GLY236      0.2309
     56  O          0.9210   43.4760   35.0480 O.2   236  GLY236     -0.2863
     57  N          1.0170   45.0840   45.6020 N.3   254  GLU254     -0.1231
     58  CA         0.7270   46.5120   45.4240 C.3   254  GLU254      0.1699
     59  C          0.3190   46.9340   44.0130 C.2   254  GLU254      0.2592
     60  O          0.6130   48.0440   43.5680 O.2   254  GLU254     -0.2718
     61  CB         1.8620   47.3810   45.9580 C.3   254  GLU254      0.0402
     62  CG         2.2470   47.0650   47.4130 C.3   254  GLU254      0.1161
     63  CD         1.2360   47.5600   48.4670 C.2   254  GLU254      0.3649
     64  OE1        0.3160   48.3350   48.1390 O.co2 254  GLU254     -0.2457
     65  OE2        1.3740   47.1670   49.6410 O.co2 254  GLU254     -0.2457
     66  N         -0.3730   46.0490   43.3090 N.am  255  PHE255     -0.1976
     67  CA        -1.0560   46.4660   42.0860 C.3   255  PHE255      0.1639
     68  C         -2.3880   46.9650   42.6390 C.2   255  PHE255      0.2290
     69  O         -2.6570   48.1710   42.6520 O.2   255  PHE255     -0.2864
     70  CB        -1.2470   45.2740   41.1620 C.3   255  PHE255      0.0560
     71  CG        -1.7240   45.6370   39.7960 C.ar  255  PHE255     -0.0200
     72  CD1       -0.9610   46.4560   38.9840 C.ar  255  PHE255     -0.0042
     73  CD2       -2.9270   45.1490   39.3160 C.ar  255  PHE255     -0.0042
     74  CE1       -1.3850   46.7960   37.7010 C.ar  255  PHE255     -0.0003
     75  CE2       -3.3710   45.4870   38.0430 C.ar  255  PHE255     -0.0003
     76  CZ        -2.5880   46.3030   37.2210 C.ar  255  PHE255     -0.0000
     77  N          2.8350   58.8900   46.4510 N.3   264  VAL264     -0.1231
     78  CA         4.1950   58.5900   45.9830 C.3   264  VAL264      0.1692
     79  C          4.1680   57.5600   44.8780 C.2   264  VAL264      0.2592
     80  O          3.8490   56.3880   45.0970 O.2   264  VAL264     -0.2718
     81  CB         5.0990   58.0390   47.0770 C.3   264  VAL264      0.0266
     82  CG1        6.5370   57.9480   46.5540 C.3   264  VAL264      0.0020
     83  CG2        4.9890   58.8920   48.3430 C.3   264  VAL264      0.0020
     84  N          4.5050   58.0060   43.6740 N.am  265  CYS265     -0.1956
     85  CA         4.3130   57.1960   42.4870 C.3   265  CYS265      0.1843
     86  C          5.1050   55.8810   42.4980 C.2   265  CYS265      0.2625
     87  O          4.5620   54.8140   42.1700 O.2   265  CYS265     -0.2714
     88  CB         4.6370   58.0230   41.2340 C.3   265  CYS265      0.0997
     89  SG         4.5830   57.0190   39.7390 S.3   265  CYS265     -0.0797
     90  N          6.3840   55.9500   42.8580 N.am  266  TYR266     -0.1974
     91  CA         7.2460   54.7560   42.8500 C.3   266  TYR266      0.1639
     92  C          7.9910   54.5880   44.1820 C.2   266  TYR266      0.2290
     93  O          8.2070   55.5650   44.9050 O.2   266  TYR266     -0.2864
     94  CB         8.2870   54.8410   41.7410 C.3   266  TYR266      0.0560
     95  CG         7.7600   54.8530   40.3300 C.ar  266  TYR266     -0.0198
     96  CD1        6.9520   53.8300   39.8510 C.ar  266  TYR266     -0.0009
     97  CD2        8.1070   55.8750   39.4570 C.ar  266  TYR266     -0.0009
     98  CE1        6.4840   53.8420   38.5360 C.ar  266  TYR266      0.0417
     99  CE2        7.6500   55.8970   38.1520 C.ar  266  TYR266      0.0417
    100  CZ         6.8430   54.8760   37.6950 C.ar  266  TYR266      0.1957
    101  OH         6.3870   54.9010   36.3940 O.3   266  TYR266     -0.2866
    102  N         11.0780   53.7570   44.4110 N.3   268  TYR268     -0.1241
    103  CA        12.4580   54.1640   44.1960 C.3   268  TYR268      0.1605
    104  C         12.5740   55.6090   43.7360 C.2   268  TYR268      0.2264
    105  O         13.6780   56.1260   43.5720 O.2   268  TYR268     -0.2867
    106  CB        13.1490   53.2260   43.2040 C.3   268  TYR268      0.0534
    107  CG        12.4390   53.0280   41.8690 C.ar  268  TYR268     -0.0201
    108  CD1       11.4020   52.1140   41.7370 C.ar  268  TYR268     -0.0009
    109  CD2       12.8460   53.7190   40.7320 C.ar  268  TYR268     -0.0009
    110  CE1       10.7640   51.9200   40.5220 C.ar  268  TYR268      0.0417
    111  CE2       12.2160   53.5350   39.5210 C.ar  268  TYR268      0.0417
    112  CZ        11.1760   52.6330   39.4160 C.ar  268  TYR268      0.1957
    113  OH        10.5530   52.4460   38.1910 O.3   268  TYR268     -0.2866
    114  N         -0.3440   57.3800   38.9540 N.3   276  CYS276     -0.1221
    115  CA         0.4020   56.1150   38.8940 C.3   276  CYS276      0.1808
    116  C         -0.3670   54.9550   39.4990 C.2   276  CYS276      0.2601
    117  O         -0.1980   53.8220   39.0750 O.2   276  CYS276     -0.2717
    118  CB         1.7520   56.2330   39.5940 C.3   276  CYS276      0.0970
    119  SG         2.8130   57.4570   38.8180 S.3   276  CYS276     -0.0800
    120  N         -1.1840   55.2350   40.5140 N.am  277  THR277     -0.1953
    121  CA        -1.9760   54.1950   41.1710 C.3   277  THR277      0.1897
    122  C         -3.3310   54.0200   40.4630 C.2   277  THR277      0.2313
    123  O         -3.8040   52.8990   40.2720 O.2   277  THR277     -0.2863
    124  CB        -2.1840   54.5080   42.6720 C.3   277  THR277      0.1794
    125  OG1       -0.9130   54.7230   43.2930 O.3   277  THR277     -0.2208
    126  CG2       -2.8670   53.3400   43.3840 C.3   277  THR277      0.0378
    127  N         -2.5420   54.7880   30.9470 N.3   282  HIS282     -0.1241
    128  CA        -3.0730   53.4260   30.8570 C.3   282  HIS282      0.1621
    129  C         -4.4600   53.3250   31.4420 C.2   282  HIS282      0.2264
    130  O         -4.8340   54.1130   32.3160 O.2   282  HIS282     -0.2867
    131  CB        -2.1570   52.3780   31.5160 C.3   282  HIS282      0.0745
    132  CG        -0.7570   52.3650   30.9870 C.ar  282  HIS282      0.0817
    133  ND1       -0.4240   51.8190   29.7650 N.ar  282  HIS282     -0.2268
    134  CD2        0.4010   52.8150   31.5240 C.ar  282  HIS282      0.1154
    135  CE1        0.8790   51.9310   29.5770 C.ar  282  HIS282      0.1986
    136  NE2        1.4000   52.5470   30.6220 N.ar  282  HIS282     -0.2212
    137  N         -5.4100   51.6990   33.7210 N.3   284  LEU284     -0.1245
    138  CA        -4.9980   51.0540   34.9530 C.3   284  LEU284      0.1561
    139  C         -6.1680   50.7890   35.8720 C.2   284  LEU284      0.2260
    140  O         -6.2210   49.7770   36.5640 O.2   284  LEU284     -0.2867
    141  CB        -4.0050   51.9640   35.6540 C.3   284  LEU284      0.0270
    142  CG        -3.1490   51.3360   36.7340 C.3   284  LEU284      0.0019
    143  CD1       -2.3870   50.1680   36.1740 C.3   284  LEU284      0.0001
    144  CD2       -2.1970   52.3760   37.2640 C.3   284  LEU284      0.0001
    145  N         -7.2730   47.0280   37.2790 N.3   288  LYS288     -0.1245
    146  CA        -7.3810   46.6740   38.6840 C.3   288  LYS288      0.1561
    147  C         -8.7470   46.1050   39.0490 C.2   288  LYS288      0.2260
    148  O         -8.8270   45.1700   39.8490 O.2   288  LYS288     -0.2867
    149  CB        -6.9470   47.8370   39.5870 C.3   288  LYS288      0.0271
    150  CG        -5.4700   48.1280   39.3940 C.3   288  LYS288      0.0035
    151  CD        -4.8980   49.1310   40.3830 C.3   288  LYS288      0.0206
    152  CE        -3.4890   49.5040   39.8580 C.3   288  LYS288      0.1093
    153  NZ        -2.7600   50.4030   40.7930 N.3   288  LYS288     -0.1314
@<TRIPOS>BOND
     1   135   133   ar
     2   135   136   ar
     3   133   132   ar
     4   136   134   ar
     5   128   127    1
     6   128   129    1
     7   128   131    1
     8   132   131    1
     9   132   134   ar
    10    41    42    1
    11    52    51    1
    12   129   130    2
    13    44    43    2
    14    43    42    1
    15    43    47   am
    16    42    45    1
    17    47    48    1
    18    48    51    1
    19    48    49    1
    20    39    38    2
    21    50    49    2
    22    49    53   am
    23    38    40   am
    24    38    37    1
    25    45    46    1
    26   137   138    1
    27    34    37    1
    28    34    33    1
    29    34    35    1
    30    53    54    1
    31    33    24   am
    32    35    36    2
    33    55    56    2
    34    55    54    1
    35    28    30   ar
    36    28    27   ar
    37    30    32   ar
    38   138   141    1
    39   138   139    1
    40    24    23    1
    41    24    25    2
    42   141   142    1
    43    23    26    1
    44    23    22    1
    45    26    27    1
    46   139   140    2
    47    27    29   ar
    48    32    31   ar
    49   143   142    1
    50   101   100    1
    51   142   144    1
    52    29    31   ar
    53    76    74   ar
    54    76    75   ar
    55   145   146    1
    56   100    99   ar
    57   100    98   ar
    58    74    72   ar
    59    75    73   ar
    60    99    97   ar
    61   113   112    1
    62    98    96   ar
    63   146   147    1
    64   146   149    1
    65   119   118    1
    66   119    89    1
    67   115   114    1
    68   115   116    1
    69   115   118    1
    70    72    71   ar
    71   147   148    2
    72   117   116    2
    73    12    11    1
    74    73    71   ar
    75   150   149    1
    76   150   151    1
    77   112   111   ar
    78   112   110   ar
    79    97    95   ar
    80   116   120   am
    81   111   109   ar
    82    89    88    1
    83    71    70    1
    84    96    95   ar
    85   152   151    1
    86   152   153    1
    87    11     8    1
    88   123   122    2
    89    95    94    1
    90   122   121    1
    91   120   121    1
    92   110   108   ar
    93   109   107   ar
    94     7     8    1
    95     7     3   am
    96     2     5    1
    97     2     3    1
    98     2     1    1
    99    70    67    1
   100   121   124    1
   101     8     9    1
   102    88    85    1
   103     5     6    1
   104     3     4    2
   105   108   107   ar
   106    94    91    1
   107   107   106    1
   108    67    68    1
   109    67    66    1
   110    87    86    2
   111     9    10    2
   112     9    13   am
   113    85    86    1
   114    85    84    1
   115    86    90   am
   116    68    69    2
   117    13    14    1
   118   124   125    1
   119   124   126    1
   120    91    90    1
   121    91    92    1
   122   106   103    1
   123    66    59   am
   124    14    17    1
   125    14    15    1
   126    60    59    2
   127   105   104    2
   128    84    79   am
   129   104   103    1
   130    59    58    1
   131    92    93    2
   132   103   102    1
   133    15    18   am
   134    15    16    2
   135    79    80    2
   136    79    78    1
   137    18    19    1
   138    58    57    1
   139    58    61    1
   140    61    62    1
   141    78    77    1
   142    78    81    1
   143    19    20    1
   144    82    81    1
   145    81    83    1
   146    62    63    1
   147    20    21    2
   148    64    63   ar
   149    63    65   ar
