@<TRIPOS>MOLECULE
tmp/4js2A00.pdb
 161 156 0 0 0
SMALL
GASTEIGER

@<TRIPOS>ATOM
      1  N          5.5810   45.5100   41.5700 N.3   100  SER100     -0.1202
      2  CA         5.2690   46.8110   41.0050 C.3   100  SER100      0.2020
      3  C          6.3750   47.8080   41.3710 C.2   100  SER100      0.2619
      4  O          7.2940   47.4730   42.0990 O.2   100  SER100     -0.2717
      5  CB         3.8820   47.2650   41.4730 C.3   100  SER100      0.2103
      6  OG         3.9310   48.4980   42.1500 O.3   100  SER100     -0.2182
      7  N          6.3200   49.0190   40.8420 N.am  101  SER101     -0.1937
      8  CA         7.3160   50.0170   41.2150 C.3   101  SER101      0.2055
      9  C          6.7240   51.0480   42.1810 C.2   101  SER101      0.2643
     10  O          7.3570   52.0580   42.4830 O.2   101  SER101     -0.2714
     11  CB         7.8570   50.7200   39.9750 C.3   101  SER101      0.2130
     12  OG         8.3770   49.7910   39.0330 O.3   101  SER101     -0.2179
     13  N          5.5140   50.7700   42.6620 N.am  102  ALA102     -0.1963
     14  CA         4.7420   51.6910   43.5060 C.3   102  ALA102      0.1728
     15  C          5.4880   52.2250   44.7290 C.2   102  ALA102      0.2616
     16  O          6.2470   51.5040   45.3810 O.2   102  ALA102     -0.2715
     17  CB         3.4380   51.0250   43.9360 C.3   102  ALA102      0.0334
     18  N          5.2550   53.4910   45.0500 N.am  103  GLY103     -0.1955
     19  CA         5.8200   54.0790   46.2510 C.3   103  GLY103      0.1869
     20  C          5.3550   53.4200   47.5440 C.2   103  GLY103      0.2309
     21  O          6.0130   53.5380   48.5810 O.2   103  GLY103     -0.2863
     22  N         10.4300   46.0090   36.7140 N.3   123  PHE123     -0.1227
     23  CA        10.0930   46.8830   35.6140 C.3   123  PHE123      0.1736
     24  C         11.0540   48.0350   35.4230 C.2   123  PHE123      0.2595
     25  O         11.5010   48.6720   36.3820 O.2   123  PHE123     -0.2718
     26  CB         8.6890   47.4510   35.7740 C.3   123  PHE123      0.0547
     27  CG         7.6340   46.4130   35.8280 C.ar  123  PHE123     -0.0202
     28  CD1        7.1280   45.8660   34.6660 C.ar  123  PHE123     -0.0042
     29  CD2        7.1380   45.9750   37.0500 C.ar  123  PHE123     -0.0042
     30  CE1        6.1450   44.9000   34.7190 C.ar  123  PHE123     -0.0003
     31  CE2        6.1540   45.0040   37.1160 C.ar  123  PHE123     -0.0003
     32  CZ         5.6520   44.4660   35.9510 C.ar  123  PHE123     -0.0000
     33  N         11.3330   48.3000   34.1510 N.am  124  ASN124     -0.1974
     34  CA        12.1120   49.4410   33.7330 C.3   124  ASN124      0.1688
     35  C         13.3830   49.6280   34.5430 C.2   124  ASN124      0.2292
     36  O         14.1690   48.6850   34.6640 O.2   124  ASN124     -0.2864
     37  CB        11.2170   50.6690   33.6890 C.3   124  ASN124      0.1181
     38  CG        10.1160   50.5140   32.6520 C.2   124  ASN124      0.2629
     39  OD1       10.4020   50.4100   31.4630 O.2   124  ASN124     -0.2716
     40  ND2        8.8640   50.4550   33.0920 N.am  124  ASN124     -0.0877
     41  N          9.8660   49.2850   28.7180 N.3   145  ASN145     -0.1240
     42  CA         9.2090   49.8560   27.5630 C.3   145  ASN145      0.1653
     43  C         10.2660   50.3580   26.5800 C.2   145  ASN145      0.2266
     44  O         11.4340   50.5300   26.9480 O.2   145  ASN145     -0.2867
     45  CB         8.2410   50.9690   27.9630 C.3   145  ASN145      0.1155
     46  CG         8.9220   52.1110   28.6660 C.2   145  ASN145      0.2627
     47  OD1        9.8300   52.7460   28.1280 O.2   145  ASN145     -0.2716
     48  ND2        8.4640   52.4030   29.8710 N.am  145  ASN145     -0.0877
     49  N         -0.5370   48.7940   30.9680 N.3   234  SER234     -0.1202
     50  CA         0.7070   49.2500   31.5880 C.3   234  SER234      0.2020
     51  C          1.6920   48.1100   31.5920 C.2   234  SER234      0.2619
     52  O          1.2980   46.9520   31.4060 O.2   234  SER234     -0.2717
     53  CB         0.4540   49.7580   33.0100 C.3   234  SER234      0.2103
     54  OG        -0.0090   48.7070   33.8390 O.3   234  SER234     -0.2182
     55  N          2.9760   48.4130   31.7670 N.am  235  SER235     -0.1937
     56  CA         3.9680   47.3370   31.7940 C.3   235  SER235      0.2055
     57  C          3.5800   46.3260   32.8650 C.2   235  SER235      0.2643
     58  O          3.7450   45.1150   32.6780 O.2   235  SER235     -0.2714
     59  CB         5.3750   47.8700   32.0790 C.3   235  SER235      0.2130
     60  OG         5.7980   48.8150   31.1140 O.3   235  SER235     -0.2179
     61  N          3.0500   46.8370   33.9780 N.am  236  GLY236     -0.1954
     62  CA         2.6810   46.0180   35.1300 C.3   236  GLY236      0.1869
     63  C          1.7670   44.8870   34.7350 C.2   236  GLY236      0.2309
     64  O          2.0900   43.7190   34.9540 O.2   236  GLY236     -0.2863
     65  N          1.7930   45.2710   45.5940 N.3   254  GLU254     -0.1231
     66  CA         1.5680   46.7150   45.5070 C.3   254  GLU254      0.1699
     67  C          1.0990   47.1820   44.1420 C.2   254  GLU254      0.2592
     68  O          1.3250   48.3270   43.7440 O.2   254  GLU254     -0.2718
     69  CB         2.7830   47.5110   45.9980 C.3   254  GLU254      0.0402
     70  CG         3.0360   47.3920   47.5220 C.3   254  GLU254      0.1161
     71  CD         1.8920   47.9280   48.3950 C.2   254  GLU254      0.3649
     72  OE1        0.9750   48.6040   47.8800 O.co2 254  GLU254     -0.2457
     73  OE2        1.9160   47.6790   49.6160 O.co2 254  GLU254     -0.2457
     74  N          0.4320   46.2820   43.4270 N.am  255  PHE255     -0.1976
     75  CA        -0.2850   46.6470   42.2120 C.3   255  PHE255      0.1639
     76  C         -1.6610   47.1040   42.6680 C.2   255  PHE255      0.2290
     77  O         -1.9540   48.2960   42.6400 O.2   255  PHE255     -0.2864
     78  CB        -0.3780   45.4530   41.2780 C.3   255  PHE255      0.0560
     79  CG        -0.8950   45.7860   39.9200 C.ar  255  PHE255     -0.0200
     80  CD1       -0.2000   46.6530   39.0920 C.ar  255  PHE255     -0.0042
     81  CD2       -2.0670   45.2150   39.4540 C.ar  255  PHE255     -0.0042
     82  CE1       -0.6730   46.9590   37.8200 C.ar  255  PHE255     -0.0003
     83  CE2       -2.5510   45.5200   38.1820 C.ar  255  PHE255     -0.0003
     84  CZ        -1.8450   46.3880   37.3600 C.ar  255  PHE255     -0.0000
     85  N          3.0300   59.1100   46.2870 N.3   264  VAL264     -0.1231
     86  CA         4.4060   58.9300   45.8610 C.3   264  VAL264      0.1692
     87  C          4.4450   57.8740   44.7910 C.2   264  VAL264      0.2592
     88  O          4.0680   56.7210   45.0200 O.2   264  VAL264     -0.2718
     89  CB         5.3070   58.4880   47.0160 C.3   264  VAL264      0.0266
     90  CG1        6.7130   58.1380   46.5000 C.3   264  VAL264      0.0020
     91  CG2        5.3600   59.5680   48.0610 C.3   264  VAL264      0.0020
     92  N          4.8990   58.2750   43.6110 N.am  265  CYS265     -0.1956
     93  CA         4.7570   57.4410   42.4320 C.3   265  CYS265      0.1843
     94  C          5.5740   56.1440   42.5190 C.2   265  CYS265      0.2625
     95  O          5.0430   55.0620   42.2950 O.2   265  CYS265     -0.2714
     96  CB         5.1230   58.2470   41.1780 C.3   265  CYS265      0.0997
     97  SG         5.1460   57.1960   39.6660 S.3   265  CYS265     -0.0797
     98  N          6.8600   56.2560   42.8510 N.am  266  TYR266     -0.1974
     99  CA         7.7620   55.1050   42.8860 C.3   266  TYR266      0.1639
    100  C          8.3580   54.8960   44.2780 C.2   266  TYR266      0.2290
    101  O          8.5000   55.8390   45.0390 O.2   266  TYR266     -0.2864
    102  CB         8.9140   55.3250   41.9090 C.3   266  TYR266      0.0560
    103  CG         8.5310   55.3730   40.4320 C.ar  266  TYR266     -0.0198
    104  CD1        7.8490   54.3250   39.8330 C.ar  266  TYR266     -0.0009
    105  CD2        8.8910   56.4550   39.6330 C.ar  266  TYR266     -0.0009
    106  CE1        7.5170   54.3620   38.4840 C.ar  266  TYR266      0.0417
    107  CE2        8.5640   56.4990   38.2870 C.ar  266  TYR266      0.0417
    108  CZ         7.8800   55.4480   37.7220 C.ar  266  TYR266      0.1957
    109  OH         7.5460   55.4790   36.3880 O.3   266  TYR266     -0.2866
    110  N         11.3870   54.2870   44.5380 N.3   268  TYR268     -0.1241
    111  CA        12.7680   54.7400   44.3390 C.3   268  TYR268      0.1605
    112  C         12.9000   56.1680   43.8620 C.2   268  TYR268      0.2264
    113  O         13.9900   56.5980   43.4840 O.2   268  TYR268     -0.2867
    114  CB        13.5330   53.8150   43.3880 C.3   268  TYR268      0.0534
    115  CG        12.9320   53.6750   41.9960 C.ar  268  TYR268     -0.0201
    116  CD1       11.8730   52.8130   41.7620 C.ar  268  TYR268     -0.0009
    117  CD2       13.4550   54.3760   40.9150 C.ar  268  TYR268     -0.0009
    118  CE1       11.3260   52.6680   40.4920 C.ar  268  TYR268      0.0417
    119  CE2       12.9200   54.2470   39.6440 C.ar  268  TYR268      0.0417
    120  CZ        11.8550   53.3870   39.4350 C.ar  268  TYR268      0.1957
    121  OH        11.3200   53.2340   38.1760 O.3   268  TYR268     -0.2866
    122  N          0.1460   57.5170   38.7890 N.3   276  CYS276     -0.1221
    123  CA         0.9180   56.2730   38.7310 C.3   276  CYS276      0.1808
    124  C          0.1390   55.1300   39.3580 C.2   276  CYS276      0.2601
    125  O          0.2780   53.9850   38.9470 O.2   276  CYS276     -0.2717
    126  CB         2.2690   56.4020   39.4270 C.3   276  CYS276      0.0970
    127  SG         3.3990   57.5660   38.6590 S.3   276  CYS276     -0.0800
    128  N         -0.6850   55.4510   40.3520 N.am  277  THR277     -0.1953
    129  CA        -1.5070   54.4500   41.0080 C.3   277  THR277      0.1897
    130  C         -2.8420   54.2630   40.2860 C.2   277  THR277      0.2313
    131  O         -3.2540   53.1350   40.0230 O.2   277  THR277     -0.2863
    132  CB        -1.7480   54.8050   42.5000 C.3   277  THR277      0.1794
    133  OG1       -0.5230   54.6720   43.2300 O.3   277  THR277     -0.2208
    134  CG2       -2.7870   53.8890   43.1130 C.3   277  THR277      0.0378
    135  N         -2.1170   54.7950   30.5600 N.3   282  HIS282     -0.1241
    136  CA        -2.5970   53.4150   30.5580 C.3   282  HIS282      0.1621
    137  C         -3.9690   53.2780   31.2210 C.2   282  HIS282      0.2264
    138  O         -4.2980   54.0310   32.1350 O.2   282  HIS282     -0.2867
    139  CB        -1.6120   52.5270   31.3210 C.3   282  HIS282      0.0745
    140  CG        -0.2530   52.4770   30.7410 C.ar  282  HIS282      0.0817
    141  ND1        0.0570   51.7910   29.5690 N.ar  282  HIS282     -0.2268
    142  CD2        0.9440   52.9890   31.1720 C.ar  282  HIS282      0.1154
    143  CE1        1.3390   51.8930   29.3170 C.ar  282  HIS282      0.1986
    144  NE2        1.9020   52.6120   30.2730 N.ar  282  HIS282     -0.2212
    145  N         -4.9170   51.7530   33.6210 N.3   284  LEU284     -0.1245
    146  CA        -4.4220   51.0610   34.8050 C.3   284  LEU284      0.1561
    147  C         -5.5660   50.7410   35.7600 C.2   284  LEU284      0.2260
    148  O         -5.5900   49.7030   36.4240 O.2   284  LEU284     -0.2867
    149  CB        -3.4010   51.9570   35.4940 C.3   284  LEU284      0.0270
    150  CG        -2.5590   51.3990   36.6260 C.3   284  LEU284      0.0019
    151  CD1       -1.6270   50.2990   36.1340 C.3   284  LEU284      0.0001
    152  CD2       -1.7750   52.5250   37.2390 C.3   284  LEU284      0.0001
    153  N         -6.3790   47.0250   37.2180 N.3   288  LYS288     -0.1245
    154  CA        -6.5420   46.7260   38.6360 C.3   288  LYS288      0.1561
    155  C         -7.8860   46.0750   38.9550 C.2   288  LYS288      0.2260
    156  O         -7.9300   45.1020   39.7150 O.2   288  LYS288     -0.2867
    157  CB        -6.2350   47.9660   39.4970 C.3   288  LYS288      0.0271
    158  CG        -4.7390   48.2910   39.3790 C.3   288  LYS288      0.0035
    159  CD        -4.2590   49.5030   40.1280 C.3   288  LYS288      0.0206
    160  CE        -2.7610   49.6990   39.8250 C.3   288  LYS288      0.1093
    161  NZ        -1.9900   50.4570   40.8710 N.3   288  LYS288     -0.1314
@<TRIPOS>BOND
     1    43    44    2
     2    43    42    1
     3    42    45    1
     4    42    41    1
     5    45    46    1
     6    47    46    2
     7    46    48   am
     8   143   141   ar
     9   143   144   ar
    10   141   140   ar
    11   144   142   ar
    12   136   135    1
    13   136   137    1
    14   136   139    1
    15   140   142   ar
    16   140   139    1
    17    49    50    1
    18    60    59    1
    19   137   138    2
    20    52    51    2
    21    39    38    2
    22    50    51    1
    23    50    53    1
    24    51    55   am
    25    55    56    1
    26    56    59    1
    27    56    57    1
    28    38    40   am
    29    38    37    1
    30    58    57    2
    31    57    61   am
    32    53    54    1
    33   145   146    1
    34    37    34    1
    35    34    33    1
    36    34    35    1
    37    61    62    1
    38    33    24   am
    39    35    36    2
    40    28    30   ar
    41    28    27   ar
    42    30    32   ar
    43    63    64    2
    44    63    62    1
    45   146   149    1
    46   146   147    1
    47    24    23    1
    48    24    25    2
    49   149   150    1
    50    23    26    1
    51    23    22    1
    52   147   148    2
    53    26    27    1
    54    27    29   ar
    55    32    31   ar
    56   151   150    1
    57   109   108    1
    58   150   152    1
    59    29    31   ar
    60   153   154    1
    61    84    82   ar
    62    84    83   ar
    63   108   107   ar
    64   108   106   ar
    65    82    80   ar
    66   121   120    1
    67    83    81   ar
    68   107   105   ar
    69   106   104   ar
    70   154   155    1
    71   154   157    1
    72   127   126    1
    73   127    97    1
    74   123   122    1
    75   123   124    1
    76   123   126    1
    77   125   124    2
    78   155   156    2
    79    12    11    1
    80    80    79   ar
    81   124   128   am
    82   158   157    1
    83   158   159    1
    84   120   119   ar
    85   120   118   ar
    86    81    79   ar
    87   105   103   ar
    88   119   117   ar
    89    97    96    1
    90   160   159    1
    91   160   161    1
    92   104   103   ar
    93    79    78    1
    94    11     8    1
    95   131   130    2
    96   130   129    1
    97   128   129    1
    98   103   102    1
    99   118   116   ar
   100     7     8    1
   101     7     3   am
   102   117   115   ar
   103     2     3    1
   104     2     5    1
   105     2     1    1
   106   129   132    1
   107    96    93    1
   108     8     9    1
   109    78    75    1
   110     3     4    2
   111     5     6    1
   112   116   115   ar
   113   102    99    1
   114   115   114    1
   115     9    10    2
   116     9    13   am
   117    75    76    1
   118    75    74    1
   119    95    94    2
   120    93    94    1
   121    93    92    1
   122   132   134    1
   123   132   133    1
   124    94    98   am
   125    77    76    2
   126    13    14    1
   127    98    99    1
   128    99   100    1
   129   114   111    1
   130    74    67   am
   131   113   112    2
   132    14    17    1
   133    14    15    1
   134    92    87   am
   135    68    67    2
   136   112   111    1
   137    67    66    1
   138   100   101    2
   139   111   110    1
   140    15    18   am
   141    15    16    2
   142    87    88    2
   143    87    86    1
   144    18    19    1
   145    66    65    1
   146    66    69    1
   147    86    85    1
   148    86    89    1
   149    69    70    1
   150    19    20    1
   151    90    89    1
   152    89    91    1
   153    70    71    1
   154    20    21    2
   155    72    71   ar
   156    71    73   ar
