@<TRIPOS>MOLECULE
tmp/4js3A02.pdb
 120 115 0 0 0
SMALL
GASTEIGER

@<TRIPOS>ATOM
      1  N        -23.8420    7.3060  -27.8900 N.3     7  TYR7       -0.1241
      2  CA       -24.9500    8.1430  -27.4350 C.3     7  TYR7        0.1605
      3  C        -24.9070    9.5290  -28.0620 C.2     7  TYR7        0.2264
      4  O        -25.9250   10.0320  -28.5450 O.2     7  TYR7       -0.2867
      5  CB       -24.9580    8.2420  -25.9090 C.3     7  TYR7        0.0534
      6  CG       -25.7230    7.1120  -25.2670 C.ar    7  TYR7       -0.0201
      7  CD1      -25.1610    5.8440  -25.1510 C.ar    7  TYR7       -0.0009
      8  CD2      -27.0160    7.3070  -24.7920 C.ar    7  TYR7       -0.0009
      9  CE1      -25.8610    4.8020  -24.5700 C.ar    7  TYR7        0.0417
     10  CE2      -27.7280    6.2700  -24.2110 C.ar    7  TYR7        0.0417
     11  CZ       -27.1450    5.0230  -24.1030 C.ar    7  TYR7        0.1957
     12  OH       -27.8480    3.9950  -23.5290 O.3     7  TYR7       -0.2866
     13  N        -27.4530    7.6060  -30.8730 N.3    11  LEU11      -0.1231
     14  CA       -28.6960    7.4420  -30.1190 C.3    11  LEU11       0.1693
     15  C        -29.4150    8.7660  -29.8320 C.2    11  LEU11       0.2591
     16  O        -30.5840    8.9270  -30.1930 O.2    11  LEU11      -0.2718
     17  CB       -28.4700    6.6480  -28.8270 C.3    11  LEU11       0.0284
     18  CG       -29.7440    6.2940  -28.0470 C.3    11  LEU11       0.0019
     19  CD1      -30.8570    5.8420  -28.9810 C.3    11  LEU11       0.0001
     20  CD2      -29.4690    5.2120  -27.0250 C.3    11  LEU11       0.0001
     21  N        -28.7260    9.7060  -29.1870 N.am   12  MET12      -0.1979
     22  CA       -29.3480   10.9900  -28.8490 C.3    12  MET12       0.1605
     23  C        -29.8470   11.7860  -30.0700 C.2    12  MET12       0.2287
     24  O        -30.9930   12.2380  -30.0710 O.2    12  MET12      -0.2864
     25  CB       -28.4460   11.8450  -27.9470 C.3    12  MET12       0.0413
     26  CG       -28.1290   11.2010  -26.6000 C.3    12  MET12       0.0598
     27  SD       -29.6010   10.6590  -25.7110 S.3    12  MET12      -0.1393
     28  CE       -30.4700   12.2110  -25.4980 C.3    12  MET12       0.0692
     29  N        -33.0370    9.9830  -31.2030 N.3    15  LEU15      -0.1245
     30  CA       -34.0870   10.3000  -30.2420 C.3    15  LEU15       0.1561
     31  C        -34.6230   11.6950  -30.5430 C.2    15  LEU15       0.2260
     32  O        -35.8360   11.8960  -30.6620 O.2    15  LEU15      -0.2867
     33  CB       -33.5040   10.2820  -28.8250 C.3    15  LEU15       0.0270
     34  CG       -34.3400    9.9090  -27.5970 C.3    15  LEU15       0.0019
     35  CD1      -33.7600   10.5490  -26.3260 C.3    15  LEU15       0.0001
     36  CD2      -35.8030   10.2680  -27.7590 C.3    15  LEU15       0.0001
     37  N        -37.3300    9.5050  -21.6360 N.3    28  ALA28      -0.1245
     38  CA       -36.1050    9.3730  -20.8480 C.3    28  ALA28       0.1562
     39  C        -36.4130    9.1320  -19.3720 C.2    28  ALA28       0.2260
     40  O        -35.7110    8.3650  -18.7100 O.2    28  ALA28      -0.2867
     41  CB       -35.2100   10.6100  -21.0130 C.3    28  ALA28       0.0290
     42  N        -37.5680    5.4190  -19.1650 N.3    31  PHE31      -0.1227
     43  CA       -36.4330    4.4930  -19.2430 C.3    31  PHE31       0.1736
     44  C        -35.5700    4.5400  -17.9860 C.2    31  PHE31       0.2596
     45  O        -35.0900    3.5110  -17.5040 O.2    31  PHE31      -0.2718
     46  CB       -35.5680    4.7870  -20.4760 C.3    31  PHE31       0.0547
     47  CG       -36.1920    4.3450  -21.7780 C.ar   31  PHE31      -0.0202
     48  CD1      -37.2530    3.4470  -21.7870 C.ar   31  PHE31      -0.0042
     49  CD2      -35.7170    4.8260  -22.9930 C.ar   31  PHE31      -0.0042
     50  CE1      -37.8310    3.0380  -22.9800 C.ar   31  PHE31      -0.0003
     51  CE2      -36.2960    4.4210  -24.1950 C.ar   31  PHE31      -0.0003
     52  CZ       -37.3490    3.5220  -24.1830 C.ar   31  PHE31      -0.0000
     53  N        -35.3610    5.7400  -17.4600 N.am   32  THR32      -0.1953
     54  CA       -34.5720    5.8860  -16.2470 C.3    32  THR32       0.1897
     55  C        -35.2650    5.1790  -15.0860 C.2    32  THR32       0.2313
     56  O        -34.6300    4.4600  -14.3160 O.2    32  THR32      -0.2863
     57  CB       -34.3570    7.3670  -15.9140 C.3    32  THR32       0.1794
     58  OG1      -33.7240    8.0080  -17.0310 O.3    32  THR32      -0.2208
     59  CG2      -33.4760    7.5210  -14.6730 C.3    32  THR32       0.0378
     60  N        -33.3300    1.1670  -17.4190 N.3    36  LEU36      -0.1231
     61  CA       -32.8410    0.8250  -18.7530 C.3    36  LEU36       0.1693
     62  C        -31.7490    1.8070  -19.1580 C.2    36  LEU36       0.2592
     63  O        -31.9830    2.7510  -19.9210 O.2    36  LEU36      -0.2718
     64  CB       -33.9820    0.8540  -19.7680 C.3    36  LEU36       0.0284
     65  CG       -35.2080    0.0330  -19.3630 C.3    36  LEU36       0.0019
     66  CD1      -36.2460    0.0410  -20.4730 C.3    36  LEU36       0.0001
     67  CD2      -34.8030   -1.3890  -19.0000 C.3    36  LEU36       0.0001
     68  N        -30.5540    1.5850  -18.6350 N.am   37  LEU37      -0.1966
     69  CA       -29.4750    2.5410  -18.7910 C.3    37  LEU37       0.1713
     70  C        -28.2220    1.7950  -19.2120 C.2    37  LEU37       0.2458
     71  O        -28.0640    0.6200  -18.8820 O.2    37  LEU37      -0.2730
     72  CB       -29.2370    3.2670  -17.4630 C.3    37  LEU37       0.0310
     73  CG       -30.4270    4.0530  -16.9140 C.3    37  LEU37       0.0022
     74  CD1      -30.3100    4.2730  -15.4130 C.3    37  LEU37       0.0001
     75  CD2      -30.5310    5.3750  -17.6420 C.3    37  LEU37       0.0001
     76  N        -27.3270    2.4720  -19.9480 N.am   38  PRO38      -0.2727
     77  CA       -26.0550    1.8380  -20.2960 C.3    38  PRO38       0.1402
     78  C        -25.2280    1.6540  -19.0320 C.2    38  PRO38       0.2269
     79  O        -25.5010    2.3120  -18.0250 O.2    38  PRO38      -0.2865
     80  CB       -25.4030    2.8600  -21.2260 C.3    38  PRO38       0.0296
     81  CG       -25.9770    4.1790  -20.7990 C.3    38  PRO38       0.0237
     82  CD       -27.3990    3.8690  -20.4140 C.3    38  PRO38       0.0939
     83  N        -35.5450   17.5450  -14.0860 N.3    67  PHE67      -0.1241
     84  CA       -35.5200   16.3150  -14.8620 C.3    67  PHE67       0.1605
     85  C        -36.5430   15.3430  -14.2930 C.2    67  PHE67       0.2264
     86  O        -37.3650   14.7790  -15.0240 O.2    67  PHE67      -0.2867
     87  CB       -34.1370   15.6650  -14.8820 C.3    67  PHE67       0.0534
     88  CG       -34.1200   14.3510  -15.6130 C.ar   67  PHE67      -0.0203
     89  CD1      -34.0050   14.3150  -16.9940 C.ar   67  PHE67      -0.0042
     90  CD2      -34.2800   13.1530  -14.9280 C.ar   67  PHE67      -0.0042
     91  CE1      -34.0290   13.1080  -17.6760 C.ar   67  PHE67      -0.0003
     92  CE2      -34.3010   11.9340  -15.6060 C.ar   67  PHE67      -0.0003
     93  CZ       -34.1740   11.9160  -16.9790 C.ar   67  PHE67      -0.0000
     94  N        -27.5390    5.8020  -12.6530 N.3    80  MET80      -0.1245
     95  CA       -26.8720    6.5040  -13.7410 C.3    80  MET80       0.1570
     96  C        -25.5050    7.0290  -13.2950 C.2    80  MET80       0.2261
     97  O        -24.6480    7.3430  -14.1270 O.2    80  MET80      -0.2867
     98  CB       -27.7540    7.6580  -14.2320 C.3    80  MET80       0.0387
     99  CG       -27.4540    8.1000  -15.6430 C.3    80  MET80       0.0595
    100  SD       -28.5830    9.3750  -16.2160 S.3    80  MET80      -0.1393
    101  CE       -30.1510    8.5360  -16.1000 C.3    80  MET80       0.0692
    102  N        -27.4160   16.2590  -20.4230 N.3   328  LEU328     -0.1245
    103  CA       -28.0530   14.9550  -20.5920 C.3   328  LEU328      0.1561
    104  C        -28.8660   14.9100  -21.8870 C.2   328  LEU328      0.2260
    105  O        -28.9000   13.8920  -22.5800 O.2   328  LEU328     -0.2867
    106  CB       -28.9610   14.6810  -19.3910 C.3   328  LEU328      0.0270
    107  CG       -29.0640   13.2970  -18.7570 C.3   328  LEU328      0.0019
    108  CD1      -27.6910   12.6990  -18.5230 C.3   328  LEU328      0.0001
    109  CD2      -29.8320   13.4120  -17.4440 C.3   328  LEU328      0.0001
    110  N        -26.7160   12.3300  -23.3350 N.3   332  GLY332     -0.1210
    111  CA       -27.2860   11.1530  -22.7100 C.3   332  GLY332      0.1940
    112  C        -26.5200   10.7380  -21.4780 C.2   332  GLY332      0.2453
    113  O        -25.5410   11.3900  -21.0970 O.2   332  GLY332     -0.2732
    114  N        -26.9490    9.6300  -20.8580 N.am  333  PRO333     -0.2728
    115  CA       -26.3850    9.0840  -19.6150 C.3   333  PRO333      0.1401
    116  C        -24.8550    8.9570  -19.5350 C.2   333  PRO333      0.2269
    117  O        -24.3390    9.1110  -18.4240 O.2   333  PRO333     -0.2865
    118  CB       -27.0320    7.6910  -19.5180 C.3   333  PRO333      0.0296
    119  CG       -28.3410    7.8410  -20.2400 C.3   333  PRO333      0.0237
    120  CD       -28.0650    8.8090  -21.3680 C.3   333  PRO333      0.0939
@<TRIPOS>BOND
     1    29    30    1
     2    13    14    1
     3    32    31    2
     4    31    30    1
     5    30    33    1
     6    16    15    2
     7    14    15    1
     8    14    17    1
     9    24    23    2
    10    23    22    1
    11    15    21   am
    12    21    22    1
    13    19    18    1
    14    22    25    1
    15    17    18    1
    16    33    34    1
    17     4     3    2
    18     3     2    1
    19    18    20    1
    20    25    26    1
    21     1     2    1
    22    36    34    1
    23    34    35    1
    24     2     5    1
    25    26    27    1
    26     5     6    1
    27    27    28    1
    28     6     7   ar
    29     6     8   ar
    30     7     9   ar
    31     8    10   ar
    32     9    11   ar
    33    10    11   ar
    34    51    52   ar
    35    51    49   ar
    36    52    50   ar
    37    11    12    1
    38   110   111    1
    39    49    47   ar
    40    50    48   ar
    41   111   112    1
    42   105   104    2
    43   104   103    1
    44    48    47   ar
    45    47    46    1
    46    37    38    1
    47   112   113    2
    48   112   114   am
    49   120   114    1
    50   120   119    1
    51    80    81    1
    52    80    77    1
    53    41    38    1
    54   114   115    1
    55    38    39    1
    56    81    82    1
    57   103   102    1
    58   103   106    1
    59    46    43    1
    60    66    65    1
    61    82    76    1
    62    77    76    1
    63    77    78    1
    64   119   118    1
    65    76    70   am
    66    63    62    2
    67    64    65    1
    68    64    61    1
    69   115   116    1
    70   115   118    1
    71   116   117    2
    72   106   107    1
    73    39    40    2
    74    65    67    1
    75    43    42    1
    76    43    44    1
    77    70    71    2
    78    70    69    1
    79    62    61    1
    80    62    68   am
    81    78    79    2
    82    69    68    1
    83    69    72    1
    84   107   108    1
    85   107   109    1
    86    61    60    1
    87    44    45    2
    88    44    53   am
    89    91    89   ar
    90    91    93   ar
    91    75    73    1
    92    72    73    1
    93    53    54    1
    94    58    57    1
    95    89    88   ar
    96    93    92   ar
    97    73    74    1
    98    54    57    1
    99    54    55    1
   100   100   101    1
   101   100    99    1
   102    57    59    1
   103    99    98    1
   104    88    90   ar
   105    88    87    1
   106    92    90   ar
   107    55    56    2
   108    86    85    2
   109    87    84    1
   110    84    85    1
   111    84    83    1
   112    98    95    1
   113    97    96    2
   114    95    96    1
   115    95    94    1
