@<TRIPOS>MOLECULE
tmp/4js8A01.pdb
 98 89 0 0 0
SMALL
GASTEIGER

@<TRIPOS>ATOM
      1  N         -8.3410   17.6950   10.2760 N.3    25  VAL25      -0.1245
      2  CA        -7.4050   18.7880    9.9710 C.3    25  VAL25       0.1561
      3  C         -7.2180   18.8260    8.4470 C.2    25  VAL25       0.2260
      4  O         -6.9210   17.8010    7.8330 O.2    25  VAL25      -0.2867
      5  CB        -6.0520   18.7330   10.7430 C.3    25  VAL25       0.0252
      6  CG1       -5.1390   19.8950   10.3500 C.3    25  VAL25       0.0019
      7  CG2       -6.2790   18.7570   12.2500 C.3    25  VAL25       0.0019
      8  N         -8.4600   23.0850   11.5680 N.3    39  LYS39      -0.1245
      9  CA        -8.9690   21.9770   12.3570 C.3    39  LYS39       0.1561
     10  C        -10.4710   22.1630   12.5200 C.2    39  LYS39       0.2260
     11  O        -10.9170   23.2160   12.9780 O.2    39  LYS39      -0.2867
     12  CB        -8.2630   21.8660   13.7180 C.3    39  LYS39       0.0271
     13  CG        -8.6980   20.6520   14.5350 C.3    39  LYS39       0.0035
     14  CD        -7.9770   20.5600   15.8680 C.3    39  LYS39       0.0206
     15  CE        -8.4780   19.3810   16.6680 C.3    39  LYS39       0.1093
     16  NZ        -7.6100   19.0900   17.8360 N.3    39  LYS39      -0.1314
     17  N        -11.6320   20.7860   24.5760 N.3    54  TYR54      -0.1241
     18  CA       -11.4630   21.5930   23.3660 C.3    54  TYR54       0.1605
     19  C        -11.4550   23.0830   23.7100 C.2    54  TYR54       0.2264
     20  O        -10.6740   23.8310   23.1250 O.2    54  TYR54      -0.2867
     21  CB       -12.5460   21.2790   22.3210 C.3    54  TYR54       0.0534
     22  CG       -12.2770   20.0210   21.5200 C.ar   54  TYR54      -0.0201
     23  CD1      -11.1990   19.9440   20.6420 C.ar   54  TYR54      -0.0009
     24  CD2      -13.1230   18.9200   21.6100 C.ar   54  TYR54      -0.0009
     25  CE1      -10.9390   18.7860   19.9130 C.ar   54  TYR54       0.0417
     26  CE2      -12.8770   17.7570   20.8810 C.ar   54  TYR54       0.0417
     27  CZ       -11.7880   17.6960   20.0270 C.ar   54  TYR54       0.1957
     28  OH       -11.5450   16.5560   19.2970 O.3    54  TYR54      -0.2866
     29  N         -8.0690   23.8500   25.5010 N.3    57  GLU57      -0.1231
     30  CA        -6.9920   23.7730   24.5090 C.3    57  GLU57       0.1699
     31  C         -6.9520   25.0620   23.6630 C.2    57  GLU57       0.2592
     32  O         -5.8610   25.5890   23.4390 O.2    57  GLU57      -0.2718
     33  CB        -7.1600   22.5190   23.6280 C.3    57  GLU57       0.0402
     34  CG        -5.9670   22.1780   22.7490 C.3    57  GLU57       0.1161
     35  CD        -4.7880   21.4650   23.3760 C.2    57  GLU57       0.3649
     36  OE1       -4.9640   20.3250   23.8650 O.co2  57  GLU57      -0.2457
     37  OE2       -3.6670   22.0200   23.3060 O.co2  57  GLU57      -0.2457
     38  N         -8.1260   25.5830   23.2260 N.am   58  ILE58      -0.1980
     39  CA        -8.2210   26.8310   22.4430 C.3    58  ILE58       0.1595
     40  C         -7.7210   28.0110   23.2970 C.2    58  ILE58       0.2287
     41  O         -6.9420   28.8320   22.8080 O.2    58  ILE58      -0.2864
     42  CB        -9.6610   27.0740   21.8950 C.3    58  ILE58       0.0276
     43  CG1       -9.9870   26.0930   20.7530 C.3    58  ILE58       0.0022
     44  CG2       -9.8670   28.5330   21.4260 C.3    58  ILE58       0.0022
     45  CD1      -11.4800   25.8620   20.5100 C.3    58  ILE58       0.0001
     46  N         -3.9460   27.7640   23.7960 N.3    61  LEU61      -0.1245
     47  CA        -3.2660   28.0340   22.5260 C.3    61  LEU61       0.1561
     48  C         -3.2030   29.5390   22.2600 C.2    61  LEU61       0.2260
     49  O         -2.1350   30.0390   21.9180 O.2    61  LEU61      -0.2867
     50  CB        -3.9340   27.3170   21.3400 C.3    61  LEU61       0.0270
     51  CG        -3.0450   26.3900   20.5040 C.3    61  LEU61       0.0019
     52  CD1       -3.8210   25.7960   19.3640 C.3    61  LEU61       0.0001
     53  CD2       -1.8440   27.1230   19.9320 C.3    61  LEU61       0.0001
     54  N        -10.6000   26.0700   13.6030 N.3    86  MET86      -0.1245
     55  CA        -9.3640   26.6890   14.0720 C.3    86  MET86       0.1570
     56  C         -8.4210   26.9380   12.9020 C.2    86  MET86       0.2261
     57  O         -7.9420   25.9820   12.2970 O.2    86  MET86      -0.2867
     58  CB        -8.6850   25.8130   15.1380 C.3    86  MET86       0.0387
     59  CG        -9.4670   25.7090   16.4360 C.3    86  MET86       0.0595
     60  SD        -8.8130   24.4340   17.5340 S.3    86  MET86      -0.1393
     61  CE        -7.3430   25.2360   18.0860 C.3    86  MET86       0.0692
     62  N         -4.9870   27.7410   11.6930 N.3    88  MET88      -0.1245
     63  CA        -3.6190   27.6640   12.2040 C.3    88  MET88       0.1570
     64  C         -2.5880   27.7220   11.0910 C.2    88  MET88       0.2261
     65  O         -2.9360   27.5470    9.9190 O.2    88  MET88      -0.2867
     66  CB        -3.4320   26.3700   13.0160 C.3    88  MET88       0.0387
     67  CG        -4.1770   26.3800   14.3410 C.3    88  MET88       0.0595
     68  SD        -4.2520   24.7690   15.1450 S.3    88  MET88      -0.1393
     69  CE        -5.4470   23.9940   14.1730 C.3    88  MET88       0.0692
     70  N          2.3960   21.3990   18.4790 N.3   149  ILE149     -0.1231
     71  CA         1.0680   21.4560   17.8700 C.3   149  ILE149      0.1692
     72  C         -0.0290   21.5330   18.9380 C.2   149  ILE149      0.2592
     73  O         -0.9250   22.3690   18.8210 O.2   149  ILE149     -0.2718
     74  CB         0.8610   20.2390   16.9130 C.3   149  ILE149      0.0266
     75  CG1        1.9370   20.1940   15.8090 C.3   149  ILE149      0.0019
     76  CG2       -0.5340   20.2280   16.2980 C.3   149  ILE149      0.0020
     77  CD1        2.0710   18.8410   15.0790 C.3   149  ILE149      0.0001
     78  N          0.0130   20.6500   19.9460 N.am  150  ASP150     -0.1974
     79  CA        -1.0220   20.5980   20.9790 C.3   150  ASP150      0.1709
     80  C         -0.4180   20.5010   22.3860 C.2   150  ASP150      0.2293
     81  O          0.7810   20.2560   22.5290 O.2   150  ASP150     -0.2864
     82  CB        -1.9800   19.4250   20.7110 C.3   150  ASP150      0.1436
     83  CG        -1.2850   18.0870   20.6050 C.2   150  ASP150      0.3671
     84  OD1       -0.8650   17.7270   19.4860 O.co2 150  ASP150     -0.2456
     85  OD2       -1.1290   17.4180   21.6460 O.co2 150  ASP150     -0.2456
     86  N         -6.7590   18.2370   24.6590 N.3   154  ALA154     -0.1245
     87  CA        -7.7660   17.7060   23.7320 C.3   154  ALA154      0.1562
     88  C         -7.3390   16.3400   23.1550 C.2   154  ALA154      0.2260
     89  O         -6.1840   15.9370   23.3200 O.2   154  ALA154     -0.2867
     90  CB        -8.0140   18.7030   22.6060 C.3   154  ALA154      0.0290
     91  N         -5.0020   13.0010   17.2690 N.3   157  MET157     -0.1245
     92  CA        -5.4450   12.6820   15.9050 C.3   157  MET157      0.1570
     93  C         -4.4070   11.8730   15.1200 C.2   157  MET157      0.2261
     94  O         -3.2040   12.0910   15.2820 O.2   157  MET157     -0.2867
     95  CB        -5.7710   13.9720   15.1410 C.3   157  MET157      0.0387
     96  CG        -6.9770   14.7080   15.6910 C.3   157  MET157      0.0595
     97  SD        -7.2900   16.2880   14.8730 S.3   157  MET157     -0.1393
     98  CE        -7.8510   15.7290   13.3420 C.3   157  MET157      0.0692
@<TRIPOS>BOND
     1     4     3    2
     2     3     2    1
     3    65    64    2
     4     2     1    1
     5     2     5    1
     6     6     5    1
     7     5     7    1
     8    64    63    1
     9     8     9    1
    10    62    63    1
    11    63    66    1
    12    57    56    2
    13     9    10    1
    14     9    12    1
    15    10    11    2
    16    56    55    1
    17    66    67    1
    18    98    97    1
    19    54    55    1
    20    12    13    1
    21    55    58    1
    22    69    68    1
    23    67    68    1
    24    13    14    1
    25    97    96    1
    26    77    75    1
    27    93    94    2
    28    93    92    1
    29    58    59    1
    30    95    96    1
    31    95    92    1
    32    75    74    1
    33    14    15    1
    34    92    91    1
    35    76    74    1
    36    59    60    1
    37    15    16    1
    38    74    71    1
    39    60    61    1
    40    71    70    1
    41    71    72    1
    42    73    72    2
    43    72    78   am
    44    28    27    1
    45    52    51    1
    46    84    83   ar
    47    25    27   ar
    48    25    23   ar
    49    53    51    1
    50    78    79    1
    51    27    26   ar
    52    51    50    1
    53    45    43    1
    54    83    82    1
    55    83    85   ar
    56    23    22   ar
    57    82    79    1
    58    43    42    1
    59    26    24   ar
    60    79    80    1
    61    50    47    1
    62    44    42    1
    63    22    24   ar
    64    22    21    1
    65    42    39    1
    66    49    48    2
    67    48    47    1
    68    21    18    1
    69    80    81    2
    70    39    38    1
    71    39    40    1
    72    47    46    1
    73    90    87    1
    74    34    35    1
    75    34    33    1
    76    41    40    2
    77    20    19    2
    78    88    89    2
    79    88    87    1
    80    38    31   am
    81    37    35   ar
    82    18    19    1
    83    18    17    1
    84    35    36   ar
    85    32    31    2
    86    33    30    1
    87    31    30    1
    88    87    86    1
    89    30    29    1
