@<TRIPOS>MOLECULE
tmp/4js8A00.pdb
 169 157 0 0 0
SMALL
GASTEIGER

@<TRIPOS>ATOM
      1  N         -6.3040   19.2010    0.7960 N.3    15  LYS15      -0.1245
      2  CA        -6.3520   17.7960    1.2180 C.3    15  LYS15       0.1561
      3  C         -6.5670   17.6650    2.7320 C.2    15  LYS15       0.2260
      4  O         -6.2340   18.5790    3.4910 O.2    15  LYS15      -0.2867
      5  CB        -5.0630   17.0360    0.8110 C.3    15  LYS15       0.0271
      6  CG        -3.7560   17.5710    1.4160 C.3    15  LYS15       0.0035
      7  CD        -2.5300   16.7630    0.9910 C.3    15  LYS15       0.0206
      8  CE        -2.2990   15.5240    1.8280 C.3    15  LYS15       0.1093
      9  NZ        -1.0540   14.8150    1.4340 N.3    15  LYS15      -0.1314
     10  N         -5.3240   16.1570    6.0360 N.3    17  ILE17      -0.1231
     11  CA        -4.0300   15.6830    6.5210 C.3    17  ILE17       0.1692
     12  C         -4.1640   14.8980    7.8430 C.2    17  ILE17       0.2592
     13  O         -3.2770   14.1080    8.1660 O.2    17  ILE17      -0.2718
     14  CB        -3.0000   16.8410    6.6110 C.3    17  ILE17       0.0266
     15  CG1       -3.5210   18.0230    7.4660 C.3    17  ILE17       0.0019
     16  CG2       -2.6060   17.2990    5.1920 C.3    17  ILE17       0.0020
     17  CD1       -2.5030   19.1330    7.7510 C.3    17  ILE17       0.0001
     18  N         -5.2770   15.0800    8.5510 N.am   18  GLY18      -0.1957
     19  CA        -5.5420   14.3880    9.8080 C.3    18  GLY18       0.1869
     20  C         -7.0130   14.1970   10.1250 C.2    18  GLY18       0.2309
     21  O         -7.8570   14.9720    9.6700 O.2    18  GLY18      -0.2863
     22  N         -8.3410   17.6950   10.2760 N.3    25  VAL25      -0.1245
     23  CA        -7.4050   18.7880    9.9710 C.3    25  VAL25       0.1561
     24  C         -7.2180   18.8260    8.4470 C.2    25  VAL25       0.2260
     25  O         -6.9210   17.8010    7.8330 O.2    25  VAL25      -0.2867
     26  CB        -6.0520   18.7330   10.7430 C.3    25  VAL25       0.0252
     27  CG1       -5.1390   19.8950   10.3500 C.3    25  VAL25       0.0019
     28  CG2       -6.2790   18.7570   12.2500 C.3    25  VAL25       0.0019
     29  N         -5.5260   20.9540    4.9490 N.3    27  GLN27      -0.1245
     30  CA        -4.5630   21.8660    4.3440 C.3    27  GLN27       0.1566
     31  C         -5.4080   22.7760    3.4600 C.2    27  GLN27       0.2260
     32  O         -6.1500   22.2720    2.6180 O.2    27  GLN27      -0.2867
     33  CB        -3.5150   21.0690    3.5550 C.3    27  GLN27       0.0367
     34  CG        -2.1930   21.7810    3.3880 C.3    27  GLN27       0.0905
     35  CD        -1.1350   20.8660    2.8170 C.2    27  GLN27       0.2608
     36  OE1       -1.2240   20.4050    1.6750 O.2    27  GLN27      -0.2717
     37  NE2       -0.1000   20.5940    3.5990 N.am   27  GLN27      -0.0878
     38  N         -3.6710   25.6560    7.9210 N.3    37  ALA37      -0.1245
     39  CA        -4.2150   24.3820    8.3580 C.3    37  ALA37       0.1562
     40  C         -5.4590   24.6770    9.1720 C.2    37  ALA37       0.2260
     41  O         -5.4160   25.5430   10.0490 O.2    37  ALA37      -0.2867
     42  CB        -3.1920   23.6030    9.1670 C.3    37  ALA37       0.0290
     43  N         -8.4600   23.0850   11.5680 N.3    39  LYS39      -0.1245
     44  CA        -8.9690   21.9770   12.3570 C.3    39  LYS39       0.1561
     45  C        -10.4710   22.1630   12.5200 C.2    39  LYS39       0.2260
     46  O        -10.9170   23.2160   12.9780 O.2    39  LYS39      -0.2867
     47  CB        -8.2630   21.8660   13.7180 C.3    39  LYS39       0.0271
     48  CG        -8.6980   20.6520   14.5350 C.3    39  LYS39       0.0035
     49  CD        -7.9770   20.5600   15.8680 C.3    39  LYS39       0.0206
     50  CE        -8.4780   19.3810   16.6680 C.3    39  LYS39       0.1093
     51  NZ        -7.6100   19.0900   17.8360 N.3    39  LYS39      -0.1314
     52  N          2.5940   26.4210   17.8070 N.3    72  ILE72      -0.1245
     53  CA         1.8390   26.6410   16.5620 C.3    72  ILE72       0.1561
     54  C          1.0060   27.9390   16.6580 C.2    72  ILE72       0.2260
     55  O          0.4220   28.2290   17.7050 O.2    72  ILE72      -0.2867
     56  CB         0.9600   25.4080   16.1770 C.3    72  ILE72       0.0252
     57  CG1        0.3360   25.5630   14.7740 C.3    72  ILE72       0.0019
     58  CG2       -0.1170   25.0850   17.2170 C.3    72  ILE72       0.0019
     59  CD1        0.7270   24.5500   13.8500 C.3    72  ILE72       0.0001
     60  N         -4.9870   27.7410   11.6930 N.3    88  MET88      -0.1230
     61  CA        -3.6190   27.6640   12.2040 C.3    88  MET88       0.1702
     62  C         -2.5880   27.7220   11.0910 C.2    88  MET88       0.2595
     63  O         -2.9360   27.5470    9.9190 O.2    88  MET88      -0.2718
     64  CB        -3.4320   26.3700   13.0160 C.3    88  MET88       0.0401
     65  CG        -4.1770   26.3800   14.3410 C.3    88  MET88       0.0596
     66  SD        -4.2520   24.7690   15.1450 S.3    88  MET88      -0.1393
     67  CE        -5.4470   23.9940   14.1730 C.3    88  MET88       0.0692
     68  N         -1.3070   27.9600   11.4560 N.am   89  GLU89      -0.1920
     69  CA        -0.2210   27.9750   10.4790 C.3    89  GLU89       0.1949
     70  C         -0.0090   26.5430    9.9780 C.2    89  GLU89       0.2659
     71  O         -0.2090   25.5910   10.7380 O.2    89  GLU89      -0.2711
     72  CB         1.0720   28.6040   11.0460 C.2    89  GLU89       0.0111
     73  CG         1.8570   27.7530   12.0310 C.2    89  GLU89       0.0838
     74  CD         3.1000   28.4040   12.6050 C.2    89  GLU89       0.3877
     75  OE1        4.0190   28.7450   11.8260 O.co2  89  GLU89      -0.2406
     76  OE2        3.1670   28.5400   13.8470 O.co2  89  GLU89      -0.2406
     77  N          0.3040   26.3950    8.6870 N.am   90  CYS90      -0.1951
     78  CA         0.5170   25.0850    8.0850 C.3    90  CYS90       0.1843
     79  C          2.0050   24.7910    8.0200 C.2    90  CYS90       0.2626
     80  O          2.7820   25.6140    7.5320 O.2    90  CYS90      -0.2714
     81  CB        -0.1280   25.0120    6.7030 C.3    90  CYS90       0.0997
     82  SG        -0.1040   23.3610    5.9610 S.3    90  CYS90      -0.0797
     83  N          2.3900   23.6260    8.5220 N.am   91  GLY91      -0.1940
     84  CA         3.7780   23.1870    8.4950 C.3    91  GLY91       0.2014
     85  C          4.0720   22.3150    7.2940 C.2    91  GLY91       0.2639
     86  O          3.1550   21.9290    6.5620 O.2    91  GLY91      -0.2714
     87  N          5.3550   21.9960    7.0880 N.am   92  ASN92      -0.1958
     88  CA         5.7960   21.1570    5.9750 C.3    92  ASN92       0.1819
     89  C          5.4910   19.6900    6.2610 C.2    92  ASN92       0.2621
     90  O          4.8640   19.0230    5.4380 O.2    92  ASN92      -0.2715
     91  CB         7.2920   21.3560    5.7070 C.3    92  ASN92       0.1195
     92  CG         7.6490   22.7550    5.2740 C.2    92  ASN92       0.2630
     93  OD1        7.7210   23.6840    6.0850 O.2    92  ASN92      -0.2716
     94  ND2        7.8830   22.9310    3.9820 N.am   92  ASN92      -0.0877
     95  N          5.9170   19.2000    7.4390 N.am   93  ILE93      -0.1963
     96  CA         5.7440   17.8110    7.8730 C.3    93  ILE93       0.1727
     97  C          5.8540   17.7120    9.4080 C.2    93  ILE93       0.2616
     98  O          6.5750   18.4990   10.0210 O.2    93  ILE93      -0.2715
     99  CB         6.8070   16.9060    7.1510 C.3    93  ILE93       0.0290
    100  CG1        6.5090   15.3940    7.3010 C.3    93  ILE93       0.0022
    101  CG2        8.2670   17.2760    7.5170 C.3    93  ILE93       0.0023
    102  CD1        7.1640   14.4850    6.2290 C.3    93  ILE93       0.0001
    103  N          5.1530   16.7400   10.0150 N.am   94  ASP94      -0.1971
    104  CA         5.2530   16.4630   11.4500 C.3    94  ASP94       0.1709
    105  C          6.5420   15.6670   11.6830 C.2    94  ASP94       0.2293
    106  O          7.0200   15.0040   10.7550 O.2    94  ASP94      -0.2864
    107  CB         4.0180   15.7030   11.9580 C.3    94  ASP94       0.1436
    108  CG         3.8280   14.3510   11.3020 C.2    94  ASP94       0.3671
    109  OD1        3.5030   14.3190   10.0960 O.co2  94  ASP94      -0.2456
    110  OD2        3.9680   13.3270   12.0050 O.co2  94  ASP94      -0.2456
    111  N          6.4150   11.6270   10.8510 N.3    97  SER97      -0.1217
    112  CA         6.4870   11.2820    9.4230 C.3    97  SER97       0.1889
    113  C          7.8840   11.5650    8.8520 C.2    97  SER97       0.2288
    114  O          8.3320   10.8520    7.9540 O.2    97  SER97      -0.2866
    115  CB         5.4370   12.0520    8.6270 C.3    97  SER97       0.2089
    116  OG         4.1300   11.8370    9.1320 O.3    97  SER97      -0.2183
    117  N          4.6840   13.1380   16.7450 N.3   137  ALA137     -0.1245
    118  CA         3.4850   13.6130   16.0410 C.3   137  ALA137      0.1562
    119  C          2.9440   14.9380   16.6230 C.2   137  ALA137      0.2260
    120  O          2.1960   15.6290   15.9340 O.2   137  ALA137     -0.2867
    121  CB         2.3980   12.5500   16.0820 C.3   137  ALA137      0.0290
    122  N          5.7910   19.8050   14.8500 N.3   140  LEU140     -0.1245
    123  CA         5.6930   20.1780   13.4410 C.3   140  LEU140      0.1561
    124  C          6.9450   20.8820   12.9380 C.2   140  LEU140      0.2260
    125  O          7.4620   21.7530   13.6360 O.2   140  LEU140     -0.2867
    126  CB         4.5190   21.1650   13.3120 C.3   140  LEU140      0.0270
    127  CG         3.4510   20.9850   12.2370 C.3   140  LEU140      0.0019
    128  CD1        2.7970   22.2930   11.9840 C.3   140  LEU140      0.0001
    129  CD2        4.0100   20.4670   10.9230 C.3   140  LEU140      0.0001
    130  N          2.3960   21.3990   18.4790 N.3   149  ILE149     -0.1245
    131  CA         1.0680   21.4560   17.8700 C.3   149  ILE149      0.1561
    132  C         -0.0290   21.5330   18.9380 C.2   149  ILE149      0.2260
    133  O         -0.9250   22.3690   18.8210 O.2   149  ILE149     -0.2867
    134  CB         0.8610   20.2390   16.9130 C.3   149  ILE149      0.0252
    135  CG1        1.9370   20.1940   15.8090 C.3   149  ILE149      0.0019
    136  CG2       -0.5340   20.2280   16.2980 C.3   149  ILE149      0.0019
    137  CD1        2.0710   18.8410   15.0790 C.3   149  ILE149      0.0001
    138  N         -5.0020   13.0010   17.2690 N.3   157  MET157     -0.1230
    139  CA        -5.4450   12.6820   15.9050 C.3   157  MET157      0.1702
    140  C         -4.4070   11.8730   15.1200 C.2   157  MET157      0.2592
    141  O         -3.2040   12.0910   15.2820 O.2   157  MET157     -0.2718
    142  CB        -5.7710   13.9720   15.1410 C.3   157  MET157      0.0401
    143  CG        -6.9770   14.7080   15.6910 C.3   157  MET157      0.0596
    144  SD        -7.2900   16.2880   14.8730 S.3   157  MET157     -0.1393
    145  CE        -7.8510   15.7290   13.3420 C.3   157  MET157      0.0692
    146  N         -4.8860   10.9640   14.2430 N.am  158  GLN158     -0.1966
    147  CA        -4.0450   10.1030   13.4020 C.3   158  GLN158      0.1718
    148  C         -3.8460   10.7090   11.9850 C.2   158  GLN158      0.2458
    149  O         -4.7290   11.4250   11.5040 O.2   158  GLN158     -0.2730
    150  CB        -4.5970    8.6590   13.3250 C.3   158  GLN158      0.0407
    151  CG        -5.9990    8.4970   12.7310 C.3   158  GLN158      0.0908
    152  CD        -6.3600    7.0480   12.4990 C.2   158  GLN158      0.2608
    153  OE1       -6.4550    6.5840   11.3570 O.2   158  GLN158     -0.2717
    154  NE2       -6.5820    6.2990   13.5740 N.am  158  GLN158     -0.0878
    155  N         -2.6990   10.4300   11.3100 N.am  159  PRO159     -0.2716
    156  CA        -2.4540   11.0330    9.9860 C.3   159  PRO159      0.1536
    157  C         -3.3250   10.5020    8.8420 C.2   159  PRO159      0.2598
    158  O         -3.9750    9.4630    8.9650 O.2   159  PRO159     -0.2715
    159  CB        -0.9820   10.6990    9.7170 C.3   159  PRO159      0.0310
    160  CG        -0.7120    9.4900   10.5150 C.3   159  PRO159      0.0237
    161  CD        -1.5330    9.6360   11.7550 C.3   159  PRO159      0.0939
    162  N         -3.3140   11.2470    7.7160 N.am  160  ASP160     -0.1972
    163  CA        -4.0020   10.9490    6.4580 C.3   160  ASP160      0.1709
    164  C         -3.1630   11.4460    5.2770 C.2   160  ASP160      0.2293
    165  O         -2.6740   12.5780    5.2980 O.2   160  ASP160     -0.2864
    166  CB        -5.4100   11.5710    6.4210 C.3   160  ASP160      0.1436
    167  CG        -6.4110   10.9220    7.3550 C.2   160  ASP160      0.3671
    168  OD1       -6.5890    9.6850    7.2750 O.co2 160  ASP160     -0.2456
    169  OD2       -7.0480   11.6530    8.1330 O.co2 160  ASP160     -0.2456
@<TRIPOS>BOND
     1     1     2    1
     2     5     2    1
     3     5     6    1
     4     7     6    1
     5     7     8    1
     6     2     3    1
     7     9     8    1
     8    36    35    2
     9    32    31    2
    10     3     4    2
    11    35    34    1
    12    35    37   am
    13    34    33    1
    14    31    30    1
    15    33    30    1
    16    94    92   am
    17    30    29    1
    18    16    14    1
    19    92    91    1
    20    92    93    2
    21   164   165    2
    22   164   163    1
    23    90    89    2
    24    91    88    1
    25    82    81    1
    26    88    89    1
    27    88    87    1
    28    10    11    1
    29   102   100    1
    30    89    95   am
    31   166   163    1
    32   166   167    1
    33   163   162    1
    34    11    14    1
    35    11    12    1
    36    86    85    2
    37    14    15    1
    38    81    78    1
    39    87    85   am
    40    99   100    1
    41    99   101    1
    42    99    96    1
    43   168   167   ar
    44    85    84    1
    45   167   169   ar
    46    95    96    1
    47    15    17    1
    48    80    79    2
    49   162   157   am
    50    25    24    2
    51    12    13    2
    52    12    18   am
    53    96    97    1
    54    38    39    1
    55   114   113    2
    56    79    78    1
    57    79    83   am
    58    78    77    1
    59    39    42    1
    60    39    40    1
    61    24    23    1
    62    84    83    1
    63    18    19    1
    64   115   116    1
    65   115   112    1
    66    77    70   am
    67   157   158    2
    68   157   156    1
    69   113   112    1
    70    40    41    2
    71    97   103   am
    72    97    98    2
    73   112   111    1
    74    21    20    2
    75   159   156    1
    76   159   160    1
    77    19    20    1
    78    63    62    2
    79    23    22    1
    80    23    26    1
    81    70    69    1
    82    70    71    2
    83   156   155    1
    84   103   104    1
    85   109   108   ar
    86    27    26    1
    87    69    72    1
    88    69    68    1
    89   160   161    1
    90    26    28    1
    91   106   105    2
    92   129   127    1
    93    72    73    2
    94    62    68   am
    95    62    61    1
    96   108   107    1
    97   108   110   ar
    98   155   161    1
    99   155   148   am
   100   153   152    2
   101   104   105    1
   102   104   107    1
   103   149   148    2
   104    43    44    1
   105    60    61    1
   106    75    74   ar
   107   128   127    1
   108   148   147    1
   109    73    74    1
   110    61    64    1
   111   127   126    1
   112    44    45    1
   113    44    47    1
   114   152   151    1
   115   152   154   am
   116    45    46    2
   117    74    76   ar
   118   151   150    1
   119   124   123    1
   120   124   125    2
   121    64    65    1
   122   126   123    1
   123   150   147    1
   124   145   144    1
   125   147   146    1
   126   123   122    1
   127    47    48    1
   128    59    57    1
   129    67    66    1
   130   146   140   am
   131    65    66    1
   132    48    49    1
   133    57    56    1
   134   144   143    1
   135   137   135    1
   136   140   141    2
   137   140   139    1
   138   142   143    1
   139   142   139    1
   140   135   134    1
   141    49    50    1
   142   139   138    1
   143   120   119    2
   144   118   121    1
   145   118   119    1
   146   118   117    1
   147    56    53    1
   148    56    58    1
   149   136   134    1
   150    53    54    1
   151    53    52    1
   152    54    55    2
   153    50    51    1
   154   134   131    1
   155   131   130    1
   156   131   132    1
   157   133   132    2
