@<TRIPOS>MOLECULE
tmp/4jscB00.pdb
 163 158 0 0 0
SMALL
GASTEIGER

@<TRIPOS>ATOM
      1  N         -4.5140  -11.8070  -18.3720 N.3    29  LEU29      -0.1231
      2  CA        -4.8160  -13.0330  -17.6530 C.3    29  LEU29       0.1693
      3  C         -3.6240  -13.3780  -16.7760 C.2    29  LEU29       0.2592
      4  O         -3.7640  -13.6090  -15.5700 O.2    29  LEU29      -0.2718
      5  CB        -5.0920  -14.1830  -18.6210 C.3    29  LEU29       0.0284
      6  CG        -6.2080  -14.0490  -19.6650 C.3    29  LEU29       0.0019
      7  CD1       -6.2650  -15.3520  -20.4670 C.3    29  LEU29       0.0001
      8  CD2       -7.5540  -13.7690  -19.0260 C.3    29  LEU29       0.0001
      9  N         -2.4400  -13.3980  -17.3750 N.am   30  TYR30      -0.1976
     10  CA        -1.2560  -13.7640  -16.6100 C.3    30  TYR30       0.1639
     11  C         -1.1170  -12.9020  -15.3650 C.2    30  TYR30       0.2290
     12  O         -0.9490  -13.4100  -14.2600 O.2    30  TYR30      -0.2864
     13  CB         0.0020  -13.6100  -17.4500 C.3    30  TYR30       0.0560
     14  CG         1.2510  -13.8250  -16.6530 C.ar   30  TYR30      -0.0198
     15  CD1        1.5930  -15.0870  -16.2000 C.ar   30  TYR30      -0.0009
     16  CD2        2.0520  -12.7610  -16.2930 C.ar   30  TYR30      -0.0009
     17  CE1        2.7020  -15.2810  -15.3930 C.ar   30  TYR30       0.0417
     18  CE2        3.1660  -12.9430  -15.4910 C.ar   30  TYR30       0.0417
     19  CZ         3.4820  -14.2010  -15.0400 C.ar   30  TYR30       0.1957
     20  OH         4.5650  -14.3750  -14.2000 O.3    30  TYR30      -0.2866
     21  N         -3.3390  -10.8220  -13.8080 N.3    32  LEU32      -0.1231
     22  CA        -4.4680  -11.0610  -12.9180 C.3    32  LEU32       0.1693
     23  C         -4.3010  -12.3900  -12.1940 C.2    32  LEU32       0.2593
     24  O         -4.8020  -12.5760  -11.0950 O.2    32  LEU32      -0.2718
     25  CB        -5.7890  -11.0710  -13.7010 C.3    32  LEU32       0.0284
     26  CG        -6.3240   -9.7030  -14.1230 C.3    32  LEU32       0.0019
     27  CD1       -7.6340   -9.8670  -14.8630 C.3    32  LEU32       0.0001
     28  CD2       -6.5070   -8.8260  -12.8940 C.3    32  LEU32       0.0001
     29  N         -3.5850  -13.3130  -12.8200 N.am   33  GLY33      -0.1942
     30  CA        -3.3280  -14.5920  -12.1870 C.3    33  GLY33       0.2014
     31  C         -2.2380  -14.4960  -11.1400 C.2    33  GLY33       0.2638
     32  O         -2.1880  -15.2990  -10.2010 O.2    33  GLY33      -0.2714
     33  N         -1.3540  -13.5190  -11.2810 N.am   34  GLN34      -0.1977
     34  CA        -0.3190  -13.3450  -10.2800 C.3    34  GLN34       0.1601
     35  C         -0.8880  -12.5080   -9.1390 C.2    34  GLN34       0.2287
     36  O         -0.5820  -12.7370   -7.9640 O.2    34  GLN34      -0.2864
     37  CB         0.9070  -12.6610  -10.8850 C.3    34  GLN34       0.0394
     38  CG         1.5980  -13.4800  -11.9780 C.3    34  GLN34       0.0908
     39  CD         2.1060  -14.8210  -11.4710 C.2    34  GLN34       0.2608
     40  OE1        2.9650  -14.8760  -10.5900 O.2    34  GLN34      -0.2717
     41  NE2        1.5780  -15.9130  -12.0290 N.am   34  GLN34      -0.0878
     42  N         -3.7510  -12.7370   -8.1760 N.3    36  ILE36      -0.1231
     43  CA        -4.5750  -13.6420   -7.4090 C.3    36  ILE36       0.1692
     44  C         -3.7360  -14.4600   -6.4360 C.2    36  ILE36       0.2591
     45  O         -4.0840  -14.5670   -5.2640 O.2    36  ILE36      -0.2718
     46  CB        -5.3830  -14.5730   -8.3260 C.3    36  ILE36       0.0266
     47  CG1       -6.5040  -13.7840   -8.9980 C.3    36  ILE36       0.0019
     48  CG2       -5.9770  -15.7010   -7.5290 C.3    36  ILE36       0.0020
     49  CD1       -7.3610  -14.6150   -9.9170 C.3    36  ILE36       0.0001
     50  N         -2.6270  -15.0210   -6.9020 N.am   37  MET37      -0.1979
     51  CA        -1.7980  -15.8360   -6.0250 C.3    37  MET37       0.1605
     52  C         -1.1570  -15.0180   -4.9040 C.2    37  MET37       0.2287
     53  O         -0.9690  -15.5170   -3.8010 O.2    37  MET37      -0.2864
     54  CB        -0.7090  -16.5690   -6.8200 C.3    37  MET37       0.0413
     55  CG        -1.2110  -17.7540   -7.6610 C.3    37  MET37       0.0598
     56  SD        -2.3280  -18.9310   -6.7880 S.3    37  MET37      -0.1393
     57  CE        -1.1560  -19.8430   -5.7320 C.3    37  MET37       0.0692
     58  N         -7.3070  -17.7750   -3.9820 N.3    42  TYR42      -0.1241
     59  CA        -7.5900  -19.0000   -4.7210 C.3    42  TYR42       0.1605
     60  C         -7.2420  -20.2430   -3.9190 C.2    42  TYR42       0.2264
     61  O         -6.1380  -20.3720   -3.3920 O.2    42  TYR42      -0.2867
     62  CB        -6.8200  -19.0030   -6.0520 C.3    42  TYR42       0.0534
     63  CG        -6.8780  -20.3100   -6.8200 C.ar   42  TYR42      -0.0201
     64  CD1       -8.0110  -20.6720   -7.5370 C.ar   42  TYR42      -0.0009
     65  CD2       -5.7970  -21.1780   -6.8320 C.ar   42  TYR42      -0.0009
     66  CE1       -8.0640  -21.8680   -8.2440 C.ar   42  TYR42       0.0417
     67  CE2       -5.8400  -22.3780   -7.5380 C.ar   42  TYR42       0.0417
     68  CZ        -6.9740  -22.7160   -8.2380 C.ar   42  TYR42       0.1957
     69  OH        -7.0230  -23.9130   -8.9210 O.3    42  TYR42      -0.2866
     70  N        -11.2760  -25.1470   -6.9280 N.3    48  HIS48      -0.1241
     71  CA       -10.6440  -24.2200   -7.8800 C.3    48  HIS48       0.1621
     72  C        -11.4370  -22.9250   -8.0240 C.2    48  HIS48       0.2264
     73  O        -11.7810  -22.5390   -9.1420 O.2    48  HIS48      -0.2867
     74  CB       -10.5090  -24.8520   -9.2720 C.3    48  HIS48       0.0745
     75  CG        -9.8330  -26.1870   -9.2770 C.ar   48  HIS48       0.0817
     76  ND1       -8.4620  -26.3310   -9.3130 N.ar   48  HIS48      -0.2268
     77  CD2      -10.3420  -27.4420   -9.2670 C.ar   48  HIS48       0.1154
     78  CE1       -8.1560  -27.6170   -9.3230 C.ar   48  HIS48       0.1986
     79  NE2       -9.2800  -28.3130   -9.2950 N.ar   48  HIS48      -0.2212
     80  N        -10.5040   -6.7960   -6.5450 N.3    57  LEU57      -0.1245
     81  CA       -10.8570   -7.5820   -7.7130 C.3    57  LEU57       0.1561
     82  C        -12.3200   -7.9740   -7.7220 C.2    57  LEU57       0.2260
     83  O        -13.0120   -7.8240   -8.7340 O.2    57  LEU57      -0.2867
     84  CB       -10.0020   -8.8490   -7.7750 C.3    57  LEU57       0.0270
     85  CG       -10.3720   -9.7930   -8.9120 C.3    57  LEU57       0.0019
     86  CD1      -10.0710   -9.1130  -10.2340 C.3    57  LEU57       0.0001
     87  CD2       -9.6070  -11.0850   -8.7710 C.3    57  LEU57       0.0001
     88  N        -14.7740   -7.1000  -10.7190 N.3    61  PHE61      -0.1241
     89  CA       -15.4100   -8.0850  -11.5880 C.3    61  PHE61       0.1605
     90  C        -16.9210   -8.1830  -11.4020 C.2    61  PHE61       0.2264
     91  O        -17.5880   -8.9760  -12.0760 O.2    61  PHE61      -0.2867
     92  CB       -14.7800   -9.4640  -11.3660 C.3    61  PHE61       0.0534
     93  CG       -13.4890   -9.6730  -12.1090 C.ar   61  PHE61      -0.0203
     94  CD1      -12.8590   -8.6160  -12.7490 C.ar   61  PHE61      -0.0042
     95  CD2      -12.9190  -10.9290  -12.1850 C.ar   61  PHE61      -0.0042
     96  CE1      -11.6810   -8.8120  -13.4520 C.ar   61  PHE61      -0.0003
     97  CE2      -11.7440  -11.1320  -12.8850 C.ar   61  PHE61      -0.0003
     98  CZ       -11.1220  -10.0700  -13.5220 C.ar   61  PHE61      -0.0000
     99  N        -15.5640  -17.0550   -8.4040 N.3    66  PHE66      -0.1241
    100  CA       -15.7610  -17.6800   -9.7050 C.3    66  PHE66       0.1605
    101  C        -14.8250  -18.8900   -9.8640 C.2    66  PHE66       0.2264
    102  O        -13.7360  -18.9310   -9.2680 O.2    66  PHE66      -0.2867
    103  CB       -15.5240  -16.6480  -10.8250 C.3    66  PHE66       0.0534
    104  CG       -14.1310  -16.0740  -10.8350 C.ar   66  PHE66      -0.0203
    105  CD1      -13.1200  -16.6800  -11.5810 C.ar   66  PHE66      -0.0042
    106  CD2      -13.8340  -14.9340  -10.1060 C.ar   66  PHE66      -0.0042
    107  CE1      -11.8330  -16.1560  -11.5880 C.ar   66  PHE66      -0.0003
    108  CE2      -12.5580  -14.4010  -10.1050 C.ar   66  PHE66      -0.0003
    109  CZ       -11.5520  -15.0080  -10.8490 C.ar   66  PHE66      -0.0000
    110  N        -12.0910  -20.9520  -11.6740 N.3    68  VAL68      -0.1231
    111  CA       -11.0350  -20.5590  -12.5750 C.3    68  VAL68       0.1692
    112  C        -11.2580  -21.2260  -13.9340 C.2    68  VAL68       0.2591
    113  O        -10.4580  -21.0540  -14.8550 O.2    68  VAL68      -0.2718
    114  CB        -9.6620  -20.9450  -12.0170 C.3    68  VAL68       0.0266
    115  CG1       -9.3660  -20.1270  -10.7700 C.3    68  VAL68       0.0020
    116  CG2       -9.6280  -22.4260  -11.7080 C.3    68  VAL68       0.0020
    117  N        -12.3650  -21.9650  -14.0440 N.am   69  LYS69      -0.1980
    118  CA       -12.7020  -22.7220  -15.2410 C.3    69  LYS69       0.1596
    119  C        -13.9530  -22.1930  -15.9620 C.2    69  LYS69       0.2287
    120  O        -14.5280  -22.8830  -16.8080 O.2    69  LYS69      -0.2864
    121  CB       -12.9070  -24.2010  -14.8880 C.3    69  LYS69       0.0298
    122  CG       -11.6800  -24.8950  -14.2900 C.3    69  LYS69       0.0038
    123  CD       -11.9510  -26.3700  -13.9660 C.3    69  LYS69       0.0206
    124  CE       -10.7640  -27.0070  -13.2540 C.3    69  LYS69       0.1093
    125  NZ       -10.9740  -28.4490  -12.8920 N.3    69  LYS69      -0.1314
    126  N        -13.9140  -19.6610  -17.9680 N.3    71  HIS71      -0.1241
    127  CA       -13.1590  -18.7600  -18.8390 C.3    71  HIS71       0.1621
    128  C        -14.0160  -17.7640  -19.6290 C.2    71  HIS71       0.2264
    129  O        -13.7280  -16.5660  -19.6820 O.2    71  HIS71      -0.2867
    130  CB       -12.3060  -19.5940  -19.8020 C.3    71  HIS71       0.0745
    131  CG       -11.1780  -20.3270  -19.1370 C.ar   71  HIS71       0.0817
    132  ND1      -10.2160  -21.0120  -19.8470 N.ar   71  HIS71      -0.2268
    133  CD2      -10.8260  -20.4310  -17.8330 C.ar   71  HIS71       0.1154
    134  CE1       -9.3140  -21.5010  -19.0120 C.ar   71  HIS71       0.1986
    135  NE2       -9.6600  -21.1610  -17.7840 N.ar   71  HIS71      -0.2212
    136  N        -14.8960  -15.2300  -17.1640 N.3    74  ILE74      -0.1231
    137  CA       -13.7010  -14.4790  -16.7980 C.3    74  ILE74       0.1692
    138  C        -13.2880  -13.4980  -17.8900 C.2    74  ILE74       0.2592
    139  O        -12.6620  -12.4720  -17.6110 O.2    74  ILE74      -0.2718
    140  CB       -12.5390  -15.4350  -16.5010 C.3    74  ILE74       0.0266
    141  CG1      -12.8980  -16.2940  -15.2770 C.3    74  ILE74       0.0019
    142  CG2      -11.2490  -14.6590  -16.3100 C.3    74  ILE74       0.0020
    143  CD1      -11.9180  -17.3940  -14.9250 C.3    74  ILE74       0.0001
    144  N        -13.6510  -13.8000  -19.1340 N.am   75  TYR75      -0.1976
    145  CA       -13.3770  -12.8950  -20.2330 C.3    75  TYR75       0.1639
    146  C        -14.3280  -11.7200  -20.2320 C.2    75  TYR75       0.2290
    147  O        -13.9090  -10.5670  -20.3730 O.2    75  TYR75      -0.2864
    148  CB       -13.4750  -13.6330  -21.5700 C.3    75  TYR75       0.0560
    149  CG       -12.1440  -14.1320  -22.0660 C.ar   75  TYR75      -0.0198
    150  CD1      -11.2750  -13.2790  -22.7250 C.ar   75  TYR75      -0.0009
    151  CD2      -11.7380  -15.4330  -21.8380 C.ar   75  TYR75      -0.0009
    152  CE1      -10.0360  -13.7050  -23.1360 C.ar   75  TYR75       0.0417
    153  CE2      -10.4990  -15.8740  -22.2450 C.ar   75  TYR75       0.0417
    154  CZ        -9.6490  -15.0030  -22.8950 C.ar   75  TYR75       0.1957
    155  OH        -8.4120  -15.4260  -23.3110 O.3    75  TYR75      -0.2866
    156  N        -13.3360   -9.3780  -17.4030 N.3    78  ILE78      -0.1245
    157  CA       -12.2310   -8.5620  -17.8700 C.3    78  ILE78       0.1561
    158  C        -12.6640   -7.5190  -18.9150 C.2    78  ILE78       0.2260
    159  O        -12.2000   -6.3760  -18.8930 O.2    78  ILE78      -0.2867
    160  CB       -11.1260   -9.4490  -18.4620 C.3    78  ILE78       0.0252
    161  CG1      -10.5310  -10.3190  -17.3510 C.3    78  ILE78       0.0019
    162  CG2      -10.0560   -8.5900  -19.1220 C.3    78  ILE78       0.0019
    163  CD1       -9.3830  -11.1790  -17.8100 C.3    78  ILE78       0.0001
@<TRIPOS>BOND
     1   155   154    1
     2   152   154   ar
     3   152   150   ar
     4   154   153   ar
     5   150   149   ar
     6   153   151   ar
     7   149   151   ar
     8   149   148    1
     9   148   145    1
    10     7     6    1
    11   147   146    2
    12   145   146    1
    13   145   144    1
    14   132   131   ar
    15   132   134   ar
    16   130   131    1
    17   130   127    1
    18   129   128    2
    19     6     8    1
    20     6     5    1
    21   128   127    1
    22   131   133   ar
    23   144   138   am
    24   162   160    1
    25   134   135   ar
    26   158   159    2
    27   158   157    1
    28   127   126    1
    29     5     2    1
    30   160   157    1
    31   160   161    1
    32     1     2    1
    33   138   139    2
    34   138   137    1
    35   157   156    1
    36   133   135   ar
    37   163   161    1
    38     2     3    1
    39    13    14    1
    40    13    10    1
    41     9     3   am
    42     9    10    1
    43   136   137    1
    44   120   119    2
    45   137   140    1
    46     3     4    2
    47    14    16   ar
    48    14    15   ar
    49    10    11    1
    50   140   142    1
    51   140   141    1
    52    16    18   ar
    53    15    17   ar
    54   119   118    1
    55    18    19   ar
    56    17    19   ar
    57    11    12    2
    58   141   143    1
    59   118   121    1
    60   118   117    1
    61    19    20    1
    62   121   122    1
    63    27    26    1
    64   113   112    2
    65   122   123    1
    66    26    25    1
    67    26    28    1
    68   117   112   am
    69   123   124    1
    70   112   111    1
    71    21    22    1
    72    25    22    1
    73    98    96   ar
    74    98    97   ar
    75    96    94   ar
    76   124   125    1
    77    22    23    1
    78    97    95   ar
    79    29    23   am
    80    29    30    1
    81    94    93   ar
    82   111   114    1
    83   111   110    1
    84    23    24    2
    85    30    31    1
    86    95    93   ar
    87    93    92    1
    88    91    90    2
    89    41    39   am
    90   114   116    1
    91   114   115    1
    92    38    39    1
    93    38    37    1
    94   107   105   ar
    95   107   109   ar
    96    89    90    1
    97    89    92    1
    98    89    88    1
    99   105   104   ar
   100    39    40    2
   101    33    31   am
   102    33    34    1
   103    31    32    2
   104    37    34    1
   105   109   108   ar
   106   104   103    1
   107   104   106   ar
   108   103   100    1
   109    34    35    1
   110    86    85    1
   111   106   108   ar
   112    49    47    1
   113   101   100    1
   114   101   102    2
   115   100    99    1
   116    78    76   ar
   117    78    79   ar
   118    76    75   ar
   119    79    77   ar
   120    75    74    1
   121    75    77   ar
   122    74    71    1
   123    73    72    2
   124    35    36    2
   125    47    46    1
   126    69    68    1
   127    85    87    1
   128    85    84    1
   129    83    82    2
   130    46    48    1
   131    46    43    1
   132    66    68   ar
   133    66    64   ar
   134    68    67   ar
   135    42    43    1
   136    72    71    1
   137    71    70    1
   138    84    81    1
   139    82    81    1
   140    81    80    1
   141    55    54    1
   142    55    56    1
   143    67    65   ar
   144    64    63   ar
   145    43    44    1
   146    50    44   am
   147    50    51    1
   148    65    63   ar
   149    54    51    1
   150    63    62    1
   151    56    57    1
   152    44    45    2
   153    62    59    1
   154    51    52    1
   155    52    53    2
   156    59    58    1
   157    59    60    1
   158    60    61    2
