@<TRIPOS>MOLECULE
tmp/4jsdA00.pdb
 175 177 0 0 0
SMALL
GASTEIGER

@<TRIPOS>ATOM
      1  N        -19.7880   -4.0500  -28.2500 N.3    12  GLY12      -0.1210
      2  CA       -18.9510   -2.9250  -28.6390 C.3    12  GLY12       0.1956
      3  C        -18.2410   -2.1820  -27.5190 C.2    12  GLY12       0.2611
      4  O        -17.5750   -1.1710  -27.7640 O.2    12  GLY12      -0.2717
      5  N        -18.3710   -2.6910  -26.2970 N.am   13  ALA13      -0.1979
      6  CA       -17.8230   -2.0340  -25.1150 C.3    13  ALA13       0.1597
      7  C        -16.6370   -2.7830  -24.5220 C.2    13  ALA13       0.2287
      8  O        -15.6590   -2.1780  -24.0840 O.2    13  ALA13      -0.2864
      9  CB       -18.9080   -1.8880  -24.0570 C.3    13  ALA13       0.0319
     10  N        -13.7650   -5.3800  -25.3720 N.3    15  TRP15      -0.1241
     11  CA       -12.9430   -6.0210  -26.4010 C.3    15  TRP15       0.1605
     12  C        -11.7270   -6.6660  -25.7440 C.2    15  TRP15       0.2264
     13  O        -11.1280   -6.0810  -24.8470 O.2    15  TRP15      -0.2867
     14  CB       -12.4610   -4.9790  -27.4020 C.3    15  TRP15       0.0550
     15  CG       -13.5620   -4.4190  -28.2110 C.ar   15  TRP15       0.0003
     16  CD1      -14.2070   -3.2310  -28.0170 C.ar   15  TRP15       0.0946
     17  CD2      -14.1710   -5.0330  -29.3430 C.ar   15  TRP15       0.0152
     18  NE1      -15.1790   -3.0690  -28.9660 N.ar   15  TRP15      -0.2442
     19  CE2      -15.1770   -4.1610  -29.7960 C.ar   15  TRP15       0.0810
     20  CE3      -13.9620   -6.2370  -30.0210 C.ar   15  TRP15       0.0012
     21  CZ2      -15.9750   -4.4540  -30.9020 C.ar   15  TRP15       0.0191
     22  CZ3      -14.7480   -6.5260  -31.1110 C.ar   15  TRP15       0.0001
     23  CH2      -15.7460   -5.6400  -31.5440 C.ar   15  TRP15       0.0015
     24  N        -15.8310   -6.8540  -35.1810 N.3   215  ASN215     -0.1240
     25  CA       -17.0780   -6.1820  -35.5490 C.3   215  ASN215      0.1653
     26  C        -18.1120   -7.0650  -36.2660 C.2   215  ASN215      0.2266
     27  O        -19.2680   -7.1000  -35.8440 O.2   215  ASN215     -0.2867
     28  CB       -16.8230   -4.8890  -36.3380 C.3   215  ASN215      0.1155
     29  CG       -16.3930   -3.7310  -35.4510 C.2   215  ASN215      0.2627
     30  OD1      -16.6490   -3.7160  -34.2380 O.2   215  ASN215     -0.2716
     31  ND2      -15.7460   -2.7390  -36.0610 N.am  215  ASN215     -0.0877
     32  N        -22.6380   -0.6170  -28.7510 N.3   231  GLY231     -0.1210
     33  CA       -21.7440    0.5110  -28.9370 C.3   231  GLY231      0.1956
     34  C        -20.7620    0.2250  -30.0630 C.2   231  GLY231      0.2612
     35  O        -19.5560    0.3820  -29.9010 O.2   231  GLY231     -0.2717
     36  N        -21.2880   -0.1650  -31.2210 N.am  232  LEU232     -0.1965
     37  CA       -20.4810   -0.7300  -32.2990 C.3   232  LEU232      0.1728
     38  C        -20.3330    0.1640  -33.5230 C.2   232  LEU232      0.2616
     39  O        -21.2630    0.8730  -33.8960 O.2   232  LEU232     -0.2715
     40  CB       -21.1320   -2.0390  -32.7600 C.3   232  LEU232      0.0311
     41  CG       -20.2620   -3.1950  -33.2730 C.3   232  LEU232      0.0022
     42  CD1      -19.4440   -3.7790  -32.1320 C.3   232  LEU232      0.0001
     43  CD2      -21.1290   -4.2700  -33.9250 C.3   232  LEU232      0.0001
     44  N        -19.1740    0.1150  -34.1780 N.am  233  PHE233     -0.1974
     45  CA       -19.1480    0.5180  -35.5900 C.3   233  PHE233      0.1639
     46  C        -19.9650   -0.5090  -36.3640 C.2   233  PHE233      0.2290
     47  O        -19.6790   -1.7080  -36.2870 O.2   233  PHE233     -0.2864
     48  CB       -17.7360    0.5650  -36.1790 C.3   233  PHE233      0.0560
     49  CG       -17.7180    0.6370  -37.6950 C.ar  233  PHE233     -0.0200
     50  CD1      -18.0060    1.8280  -38.3490 C.ar  233  PHE233     -0.0042
     51  CD2      -17.4490   -0.4920  -38.4630 C.ar  233  PHE233     -0.0042
     52  CE1      -18.0110    1.8990  -39.7400 C.ar  233  PHE233     -0.0003
     53  CE2      -17.4530   -0.4230  -39.8620 C.ar  233  PHE233     -0.0003
     54  CZ       -17.7330    0.7730  -40.4960 C.ar  233  PHE233     -0.0000
     55  N        -18.6280   11.7420  -30.1300 N.3   261  ASP261     -0.1239
     56  CA       -18.0540   11.3190  -28.8680 C.3   261  ASP261      0.1674
     57  C        -16.8570   12.1800  -28.4810 C.2   261  ASP261      0.2266
     58  O        -16.6990   12.5370  -27.3220 O.2   261  ASP261     -0.2867
     59  CB       -17.6560    9.8450  -28.8950 C.3   261  ASP261      0.1410
     60  CG       -17.3190    9.3190  -27.5080 C.2   261  ASP261      0.3668
     61  OD1      -18.2460    9.2240  -26.6810 O.co2 261  ASP261     -0.2456
     62  OD2      -16.1340    9.0210  -27.2530 O.co2 261  ASP261     -0.2456
     63  N        -15.6330    5.2760  -42.8560 N.3   298  TYR298     -0.1241
     64  CA       -16.3470    5.6850  -41.6340 C.3   298  TYR298      0.1605
     65  C        -17.8020    5.9450  -41.9310 C.2   298  TYR298      0.2264
     66  O        -18.5600    6.3160  -41.0360 O.2   298  TYR298     -0.2867
     67  CB       -15.7340    6.9520  -41.0330 C.3   298  TYR298      0.0534
     68  CG       -15.7920    7.0550  -39.5080 C.ar  298  TYR298     -0.0201
     69  CD1      -15.2500    6.0570  -38.7080 C.ar  298  TYR298     -0.0009
     70  CD2      -16.3370    8.1690  -38.8750 C.ar  298  TYR298     -0.0009
     71  CE1      -15.2650    6.1440  -37.3200 C.ar  298  TYR298      0.0417
     72  CE2      -16.3580    8.2680  -37.4680 C.ar  298  TYR298      0.0417
     73  CZ       -15.8200    7.2540  -36.7070 C.ar  298  TYR298      0.1957
     74  OH       -15.8220    7.3210  -35.3200 O.3   298  TYR298     -0.2866
     75  N        -11.5080   -3.9610  -34.9840 N.3   380  TRP380     -0.1241
     76  CA       -12.0590   -2.6150  -35.1240 C.3   380  TRP380      0.1605
     77  C        -11.9710   -2.2410  -36.6040 C.2   380  TRP380      0.2264
     78  O        -11.0730   -1.5110  -37.0290 O.2   380  TRP380     -0.2867
     79  CB       -11.3250   -1.6000  -34.2270 C.3   380  TRP380      0.0550
     80  CG       -11.5660   -1.7790  -32.7300 C.ar  380  TRP380      0.0003
     81  CD1      -12.0320   -2.9000  -32.0990 C.ar  380  TRP380      0.0946
     82  CD2      -11.3620   -0.7960  -31.6930 C.ar  380  TRP380      0.0152
     83  NE1      -12.1220   -2.6800  -30.7360 N.ar  380  TRP380     -0.2442
     84  CE2      -11.7200   -1.3990  -30.4640 C.ar  380  TRP380      0.0810
     85  CE3      -10.9090    0.5270  -31.6850 C.ar  380  TRP380      0.0012
     86  CZ2      -11.6410   -0.7220  -29.2450 C.ar  380  TRP380      0.0191
     87  CZ3      -10.8360    1.1980  -30.4700 C.ar  380  TRP380      0.0001
     88  CH2      -11.1980    0.5710  -29.2700 C.ar  380  TRP380      0.0015
     89  N        -13.5100   -0.4550  -38.9750 N.3   382  ASP382     -0.1225
     90  CA       -13.4770    0.9020  -39.5120 C.3   382  ASP382      0.1805
     91  C        -12.0770    1.5020  -39.3660 C.2   382  ASP382      0.2597
     92  O        -11.5050    1.9950  -40.3440 O.2   382  ASP382     -0.2718
     93  CB       -14.5520    1.7950  -38.8640 C.3   382  ASP382      0.1424
     94  CG       -14.4960    1.7870  -37.3380 C.2   382  ASP382      0.3668
     95  OD1      -14.0890    0.7620  -36.7440 O.co2 382  ASP382     -0.2456
     96  OD2      -14.8790    2.8110  -36.7330 O.co2 382  ASP382     -0.2456
     97  N        -11.5260    1.4360  -38.1530 N.am  383  TRP383     -0.1976
     98  CA       -10.1950    1.9830  -37.8780 C.3   383  TRP383      0.1640
     99  C         -9.1010    1.2370  -38.6480 C.2   383  TRP383      0.2290
    100  O         -8.1370    1.8470  -39.1020 O.2   383  TRP383     -0.2864
    101  CB        -9.8890    1.9820  -36.3720 C.3   383  TRP383      0.0576
    102  CG       -10.5560    3.1010  -35.5790 C.ar  383  TRP383      0.0006
    103  CD1      -11.5800    3.9010  -35.9850 C.ar  383  TRP383      0.0946
    104  CD2      -10.2150    3.5340  -34.2460 C.ar  383  TRP383      0.0152
    105  NE1      -11.9080    4.8020  -34.9860 N.ar  383  TRP383     -0.2442
    106  CE2      -11.0850    4.5960  -33.9120 C.ar  383  TRP383      0.0810
    107  CE3       -9.2610    3.1240  -33.3070 C.ar  383  TRP383      0.0012
    108  CZ2      -11.0310    5.2500  -32.6840 C.ar  383  TRP383      0.0191
    109  CZ3       -9.2130    3.7810  -32.0820 C.ar  383  TRP383      0.0001
    110  CH2      -10.0910    4.8290  -31.7880 C.ar  383  TRP383      0.0015
    111  N         -6.8590   -6.1030  -28.4820 N.3   408  PHE408     -0.1241
    112  CA        -7.0730   -4.8550  -27.7570 C.3   408  PHE408      0.1605
    113  C         -6.1080   -4.6420  -26.5900 C.2   408  PHE408      0.2264
    114  O         -5.5310   -3.5660  -26.4480 O.2   408  PHE408     -0.2867
    115  CB        -8.5070   -4.7600  -27.2360 C.3   408  PHE408      0.0534
    116  CG        -8.7590   -3.5240  -26.4270 C.ar  408  PHE408     -0.0203
    117  CD1       -8.5440   -3.5160  -25.0520 C.ar  408  PHE408     -0.0042
    118  CD2       -9.1740   -2.3550  -27.0430 C.ar  408  PHE408     -0.0042
    119  CE1       -8.7480   -2.3730  -24.3140 C.ar  408  PHE408     -0.0003
    120  CE2       -9.3860   -1.2140  -26.3020 C.ar  408  PHE408     -0.0003
    121  CZ        -9.1750   -1.2160  -24.9390 C.ar  408  PHE408     -0.0000
    122  N         -8.4530    7.6790  -29.1510 N.3   426  TRP426     -0.1241
    123  CA        -9.3880    8.7250  -28.7890 C.3   426  TRP426      0.1605
    124  C         -8.6790    9.8100  -27.9990 C.2   426  TRP426      0.2264
    125  O         -7.4510    9.8110  -27.8960 O.2   426  TRP426     -0.2867
    126  CB       -10.5680    8.1370  -28.0110 C.3   426  TRP426      0.0550
    127  CG       -10.1880    7.3980  -26.7600 C.ar  426  TRP426      0.0003
    128  CD1       -9.9790    7.9420  -25.5270 C.ar  426  TRP426      0.0946
    129  CD2       -9.9960    5.9800  -26.6110 C.ar  426  TRP426      0.0152
    130  NE1       -9.6630    6.9580  -24.6210 N.ar  426  TRP426     -0.2442
    131  CE2       -9.6650    5.7450  -25.2590 C.ar  426  TRP426      0.0810
    132  CE3      -10.0670    4.8910  -27.4880 C.ar  426  TRP426      0.0012
    133  CZ2       -9.4060    4.4680  -24.7620 C.ar  426  TRP426      0.0191
    134  CZ3       -9.8070    3.6230  -26.9940 C.ar  426  TRP426      0.0001
    135  CH2       -9.4820    3.4220  -25.6410 C.ar  426  TRP426      0.0015
    136  N        -14.9010   11.4360  -33.4630 N.3   507  THR507     -0.1203
    137  CA       -15.3430   10.0530  -33.2870 C.3   507  THR507      0.1994
    138  C        -16.8480    9.9880  -33.0470 C.2   507  THR507      0.2617
    139  O        -17.4390   10.9180  -32.5010 O.2   507  THR507     -0.2717
    140  CB       -14.5840    9.3150  -32.1460 C.3   507  THR507      0.1784
    141  OG1      -14.5960   10.1070  -30.9510 O.3   507  THR507     -0.2211
    142  CG2      -13.1460    9.0430  -32.5530 C.3   507  THR507      0.0376
    143  N        -17.4660    8.8970  -33.4800 N.am  508  ALA508     -0.1979
    144  CA       -18.8900    8.7350  -33.2850 C.3   508  ALA508      0.1597
    145  C        -19.1570    8.1670  -31.9040 C.2   508  ALA508      0.2287
    146  O        -18.3890    7.3590  -31.3840 O.2   508  ALA508     -0.2864
    147  CB       -19.4810    7.8350  -34.3490 C.3   508  ALA508      0.0319
    148  N        -20.7780    5.7230  -30.6740 N.3   510  TRP510     -0.1241
    149  CA       -21.4400    4.4980  -31.1440 C.3   510  TRP510      0.1605
    150  C        -22.5590    4.0860  -30.2090 C.2   510  TRP510      0.2264
    151  O        -22.3410    3.8810  -29.0110 O.2   510  TRP510     -0.2867
    152  CB       -20.4780    3.3200  -31.2960 C.3   510  TRP510      0.0550
    153  CG       -19.2920    3.5230  -32.1860 C.ar  510  TRP510      0.0003
    154  CD1      -17.9900    3.2980  -31.8470 C.ar  510  TRP510      0.0946
    155  CD2      -19.2820    3.9480  -33.5560 C.ar  510  TRP510      0.0152
    156  NE1      -17.1690    3.5700  -32.9040 N.ar  510  TRP510     -0.2442
    157  CE2      -17.9340    3.9710  -33.9690 C.ar  510  TRP510      0.0810
    158  CE3      -20.2730    4.3220  -34.4670 C.ar  510  TRP510      0.0012
    159  CZ2      -17.5500    4.3520  -35.2520 C.ar  510  TRP510      0.0191
    160  CZ3      -19.8940    4.7000  -35.7500 C.ar  510  TRP510      0.0001
    161  CH2      -18.5430    4.7130  -36.1320 C.ar  510  TRP510      0.0015
    162  N        -20.3370    2.0630  -23.5790 N.3   535  TRP535     -0.1241
    163  CA       -18.9590    2.1990  -23.1100 C.3   535  TRP535      0.1605
    164  C        -18.5930    3.5810  -22.5760 C.2   535  TRP535      0.2264
    165  O        -17.5100    3.7510  -22.0080 O.2   535  TRP535     -0.2867
    166  CB       -17.9370    1.7780  -24.1880 C.3   535  TRP535      0.0550
    167  CG       -18.1890    2.2780  -25.5990 C.ar  535  TRP535      0.0003
    168  CD1      -18.6750    1.5500  -26.6390 C.ar  535  TRP535      0.0946
    169  CD2      -17.9240    3.5900  -26.1200 C.ar  535  TRP535      0.0152
    170  NE1      -18.7460    2.3220  -27.7830 N.ar  535  TRP535     -0.2442
    171  CE2      -18.2910    3.5810  -27.4860 C.ar  535  TRP535      0.0810
    172  CE3      -17.4240    4.7770  -25.5650 C.ar  535  TRP535      0.0012
    173  CZ2      -18.1730    4.7050  -28.2980 C.ar  535  TRP535      0.0191
    174  CZ3      -17.3080    5.8950  -26.3820 C.ar  535  TRP535      0.0001
    175  CH2      -17.6790    5.8470  -27.7320 C.ar  535  TRP535      0.0015
@<TRIPOS>BOND
     1    63    64    1
     2    65    64    1
     3    65    66    2
     4    64    67    1
     5    67    68    1
     6    54    53   ar
     7    54    52   ar
     8    92    91    2
     9    53    51   ar
    10    52    50   ar
    11    90    91    1
    12    90    89    1
    13    90    93    1
    14    68    70   ar
    15    68    69   ar
    16    91    97   am
    17   100    99    2
    18    70    72   ar
    19    93    94    1
    20    69    71   ar
    21    99    98    1
    22    51    49   ar
    23    50    49   ar
    24    97    98    1
    25    98   101    1
    26    49    48    1
    27    72    73   ar
    28    94    95   ar
    29    94    96   ar
    30    71    73   ar
    31    78    77    2
    32    73    74    1
    33    77    76    1
    34   101   102    1
    35    46    47    2
    36    46    45    1
    37    28    25    1
    38    28    29    1
    39    26    27    2
    40    26    25    1
    41    48    45    1
    42   161   160   ar
    43   161   159   ar
    44    31    29   am
    45   103   102   ar
    46   103   105   ar
    47   160   158   ar
    48    45    44    1
    49   102   104   ar
    50    25    24    1
    51    29    30    2
    52   159   157   ar
    53    76    75    1
    54    76    79    1
    55   105   106   ar
    56   158   155   ar
    57   147   144    1
    58   104   106   ar
    59   104   107   ar
    60    79    80    1
    61    44    38   am
    62   157   155   ar
    63   157   156   ar
    64    43    41    1
    65   106   108   ar
    66    39    38    2
    67   155   153   ar
    68    38    37    1
    69   143   144    1
    70   143   138   am
    71   136   137    1
    72   107   109   ar
    73   137   138    1
    74   137   140    1
    75   144   145    1
    76    41    40    1
    77    41    42    1
    78   138   139    2
    79   156   154   ar
    80    40    37    1
    81    80    81   ar
    82    80    82   ar
    83   108   110   ar
    84   142   140    1
    85    37    36    1
    86   153   154   ar
    87   153   152    1
    88   140   141    1
    89    81    83   ar
    90   109   110   ar
    91   145   146    2
    92    82    85   ar
    93    82    84   ar
    94    85    87   ar
    95    23    22   ar
    96    23    21   ar
    97   152   149    1
    98    36    34   am
    99   149   148    1
   100   149   150    1
   101    22    20   ar
   102    21    19   ar
   103    83    84   ar
   104    87    88   ar
   105    84    86   ar
   106   150   151    2
   107    55    56    1
   108    34    35    2
   109    34    33    1
   110    20    17   ar
   111    19    17   ar
   112    19    18   ar
   113    17    15   ar
   114    88    86   ar
   115   122   123    1
   116    18    16   ar
   117    33    32    1
   118    59    56    1
   119    59    60    1
   120    56    57    1
   121   123   126    1
   122   123   124    1
   123     2     1    1
   124     2     3    1
   125   111   112    1
   126    57    58    2
   127   173   175   ar
   128   173   171   ar
   129    15    16   ar
   130    15    14    1
   131   126   127    1
   132   124   125    2
   133   170   171   ar
   134   170   168   ar
   135     4     3    2
   136   112   115    1
   137   112   113    1
   138   175   174   ar
   139     3     5   am
   140    60    62   ar
   141    60    61   ar
   142   132   134   ar
   143   132   129   ar
   144   171   169   ar
   145    14    11    1
   146   115   116    1
   147   118   116   ar
   148   118   120   ar
   149   134   135   ar
   150   127   129   ar
   151   127   128   ar
   152   168   167   ar
   153   129   131   ar
   154   113   114    2
   155   116   117   ar
   156    11    12    1
   157    11    10    1
   158   174   172   ar
   159   120   121   ar
   160     5     6    1
   161   169   167   ar
   162   169   172   ar
   163    12    13    2
   164   135   133   ar
   165   167   166    1
   166   128   130   ar
   167   131   133   ar
   168   131   130   ar
   169     6     7    1
   170     6     9    1
   171   117   119   ar
   172   121   119   ar
   173     7     8    2
   174   166   163    1
   175   162   163    1
   176   163   164    1
   177   164   165    2
