@<TRIPOS>MOLECULE
tmp/4jseA01.pdb
 180 176 0 0 0
SMALL
GASTEIGER

@<TRIPOS>ATOM
      1  N          9.9400   24.0480   28.8030 N.3    24  LEU24      -0.1231
      2  CA         8.5170   23.7660   29.1050 C.3    24  LEU24       0.1693
      3  C          8.2020   23.5630   30.5750 C.2    24  LEU24       0.2592
      4  O          8.2970   24.5360   31.3410 O.2    24  LEU24      -0.2718
      5  CB         7.8820   22.6840   28.1890 C.3    24  LEU24       0.0284
      6  CG         6.7000   23.1140   27.2490 C.3    24  LEU24       0.0019
      7  CD1        5.2870   22.9920   27.9170 C.3    24  LEU24       0.0001
      8  CD2        6.8600   24.5290   26.5820 C.3    24  LEU24       0.0001
      9  N          7.8290   22.3390   30.9640 N.am   25  GLU25      -0.1966
     10  CA         7.4040   22.0370   32.3410 C.3    25  GLU25       0.1733
     11  C          7.6540   20.5910   32.6810 C.2    25  GLU25       0.2617
     12  O          7.5290   19.7230   31.8210 O.2    25  GLU25      -0.2715
     13  CB         5.9040   22.2660   32.5210 C.3    25  GLU25       0.0429
     14  CG         5.5080   23.6830   32.8310 C.3    25  GLU25       0.1163
     15  CD         4.3870   24.1710   31.9200 C.2    25  GLU25       0.3649
     16  OE1        3.8690   25.2980   32.1470 O.co2  25  GLU25      -0.2457
     17  OE2        4.0410   23.4200   30.9660 O.co2  25  GLU25      -0.2457
     18  N          7.9600   20.3330   33.9520 N.am   26  THR26      -0.1951
     19  CA         8.0780   18.9650   34.4510 C.3    26  THR26       0.1897
     20  C          6.7420   18.3980   34.9090 C.2    26  THR26       0.2313
     21  O          6.5990   17.1900   35.0520 O.2    26  THR26      -0.2863
     22  CB         8.9950   18.8870   35.6810 C.3    26  THR26       0.1794
     23  OG1        8.5210   19.8080   36.6750 O.3    26  THR26      -0.2208
     24  CG2       10.4500   19.1780   35.3070 C.3    26  THR26       0.0378
     25  N          1.9480   14.0560   30.5860 N.3    40  PRO40      -0.2116
     26  CA         1.7800   15.4980   30.9150 C.3    40  PRO40       0.1372
     27  C          0.4230   15.7920   31.5840 C.2    40  PRO40       0.2244
     28  O         -0.6090   15.7690   30.9090 O.2    40  PRO40      -0.2868
     29  CB         1.8790   16.1920   29.5460 C.3    40  PRO40       0.0268
     30  CG         2.5810   15.1850   28.6150 C.3    40  PRO40       0.0207
     31  CD         2.6300   13.8410   29.2910 C.3    40  PRO40       0.0892
     32  N         18.6630   14.0320   24.6530 N.3   103  ASN103     -0.1225
     33  CA        17.8700   14.7050   25.6770 C.3   103  ASN103      0.1785
     34  C         16.7580   13.8480   26.2770 C.2   103  ASN103      0.2597
     35  O         16.0030   14.3230   27.1490 O.2   103  ASN103     -0.2718
     36  CB        17.2490   15.9770   25.0560 C.3   103  ASN103      0.1169
     37  CG        18.2960   17.0020   24.6770 C.2   103  ASN103      0.2627
     38  OD1       19.4190   16.9930   25.2010 O.2   103  ASN103     -0.2716
     39  ND2       17.9370   17.8990   23.7610 N.am  103  ASN103     -0.0877
     40  N         16.6180   12.6140   25.7860 N.am  104  ALA104     -0.1966
     41  CA        15.4800   11.7790   26.1860 C.3   104  ALA104      0.1728
     42  C         15.6970   11.2200   27.6150 C.2   104  ALA104      0.2616
     43  O         16.4030   10.2400   27.8270 O.2   104  ALA104     -0.2715
     44  CB        15.2380   10.6720   25.1650 C.3   104  ALA104      0.0334
     45  N         15.1070   11.8960   28.5960 N.am  105  SER105     -0.1950
     46  CA        15.4450   11.6440   29.9920 C.3   105  SER105      0.1924
     47  C         15.0450   10.2590   30.4860 C.2   105  SER105      0.2314
     48  O         15.5810    9.7940   31.4730 O.2   105  SER105     -0.2863
     49  CB        14.8230   12.7190   30.8810 C.3   105  SER105      0.2116
     50  OG        13.4350   12.4550   31.0190 O.3   105  SER105     -0.2180
     51  N          4.6970   19.0660   10.5650 N.3   157  ARG157     -0.1245
     52  CA         3.3630   19.6360   10.7040 C.3   157  ARG157      0.1563
     53  C          3.3180   20.9810    9.9980 C.2   157  ARG157      0.2260
     54  O          4.2780   21.7410   10.0560 O.2   157  ARG157     -0.2867
     55  CB         3.0220   19.8290   12.2000 C.3   157  ARG157      0.0307
     56  CG         1.6340   20.4690   12.4350 C.3   157  ARG157      0.0489
     57  CD         1.0710   20.2480   13.8600 C.3   157  ARG157      0.2205
     58  NE         0.8760   18.8310   14.1200 N.pl3 157  ARG157     -0.0865
     59  CZ         0.9030   18.2910   15.3270 C.cat 157  ARG157      0.5346
     60  NH1        1.1090   19.0620   16.3930 N.pl3 157  ARG157      0.1354
     61  NH2        0.7150   16.9840   15.4720 N.pl3 157  ARG157      0.1354
     62  N          6.3790   12.4280   18.8490 N.3   263  LEU263     -0.1245
     63  CA         6.5500   13.6200   18.0480 C.3   263  LEU263      0.1561
     64  C          7.9330   14.1830   18.3060 C.2   263  LEU263      0.2260
     65  O          8.3840   14.2670   19.4650 O.2   263  LEU263     -0.2867
     66  CB         5.4820   14.6410   18.4020 C.3   263  LEU263      0.0270
     67  CG         5.4530   15.9870   17.6510 C.3   263  LEU263      0.0019
     68  CD1        4.0340   16.4830   17.4790 C.3   263  LEU263      0.0001
     69  CD2        6.2610   16.9860   18.4310 C.3   263  LEU263      0.0001
     70  N         10.2970   17.3420   18.1930 N.3   265  GLU265     -0.1245
     71  CA        10.2730   18.8000   18.0750 C.3   265  GLU265      0.1567
     72  C         11.6930   19.2960   17.8940 C.2   265  GLU265      0.2260
     73  O         12.5330   19.0670   18.7620 O.2   265  GLU265     -0.2867
     74  CB         9.6650   19.4700   19.3100 C.3   265  GLU265      0.0388
     75  CG         9.8350   21.0140   19.2720 C.3   265  GLU265      0.1160
     76  CD         9.3950   21.7070   20.5640 C.2   265  GLU265      0.3649
     77  OE1        9.8780   22.8360   20.8350 O.co2 265  GLU265     -0.2457
     78  OE2        8.5630   21.1290   21.2990 O.co2 265  GLU265     -0.2457
     79  N          7.6560   20.5780   14.1780 N.3   270  GLU270     -0.1245
     80  CA         7.0900   19.3960   14.8360 C.3   270  GLU270      0.1567
     81  C          6.9950   18.2770   13.8200 C.2   270  GLU270      0.2260
     82  O          6.2860   18.4040   12.8100 O.2   270  GLU270     -0.2867
     83  CB         5.6850   19.7090   15.3470 C.3   270  GLU270      0.0388
     84  CG         5.6610   20.6610   16.5440 C.3   270  GLU270      0.1160
     85  CD         4.2680   20.8150   17.1260 C.2   270  GLU270      0.3649
     86  OE1        3.3510   21.2230   16.3800 O.co2 270  GLU270     -0.2457
     87  OE2        4.1020   20.5400   18.3280 O.co2 270  GLU270     -0.2457
     88  N         15.6440   15.4570   36.6380 N.3   389  ASN389     -0.1225
     89  CA        14.8590   15.3670   35.4290 C.3   389  ASN389      0.1785
     90  C         14.4130   16.7480   35.0310 C.2   389  ASN389      0.2597
     91  O         13.8520   17.4950   35.8250 O.2   389  ASN389     -0.2718
     92  CB        13.6370   14.4510   35.6500 C.3   389  ASN389      0.1169
     93  CG        12.9500   14.0680   34.3550 C.2   389  ASN389      0.2627
     94  OD1       11.7670   13.7350   34.3470 O.2   389  ASN389     -0.2716
     95  ND2       13.6920   14.0610   33.2660 N.am  389  ASN389     -0.0877
     96  N         14.7050   17.1040   33.8040 N.am  390  TYR390     -0.1962
     97  CA        14.2430   18.3620   33.2480 C.3   390  TYR390      0.1771
     98  C         14.1700   18.2110   31.7330 C.2   390  TYR390      0.2619
     99  O         14.6830   17.2400   31.1740 O.2   390  TYR390     -0.2715
    100  CB        15.1720   19.5090   33.6390 C.3   390  TYR390      0.0574
    101  CG        16.6560   19.2490   33.4170 C.ar  390  TYR390     -0.0198
    102  CD1       17.2820   19.5430   32.1820 C.ar  390  TYR390     -0.0009
    103  CD2       17.4360   18.7340   34.4370 C.ar  390  TYR390     -0.0009
    104  CE1       18.6770   19.3160   32.0060 C.ar  390  TYR390      0.0417
    105  CE2       18.8160   18.5080   34.2740 C.ar  390  TYR390      0.0417
    106  CZ        19.4200   18.7820   33.0600 C.ar  390  TYR390      0.1957
    107  OH        20.7710   18.5410   32.9590 O.3   390  TYR390     -0.2866
    108  N         13.5110   19.1670   31.0870 N.am  391  ARG391     -0.1963
    109  CA        13.1950   19.0580   29.6680 C.3   391  ARG391      0.1729
    110  C         14.1130   19.9560   28.7970 C.2   391  ARG391      0.2616
    111  O         14.0550   21.1760   28.8920 O.2   391  ARG391     -0.2715
    112  CB        11.7210   19.4190   29.4250 C.3   391  ARG391      0.0348
    113  CG        11.3760   19.4680   27.9240 C.3   391  ARG391      0.0492
    114  CD         9.9020   19.7100   27.6300 C.3   391  ARG391      0.2205
    115  NE         9.6520   19.5920   26.1930 N.pl3 391  ARG391     -0.0865
    116  CZ         9.6860   20.6040   25.3280 C.cat 391  ARG391      0.5346
    117  NH1        9.9520   21.8250   25.7590 N.pl3 391  ARG391      0.1354
    118  NH2        9.4580   20.3930   24.0250 N.pl3 391  ARG391      0.1354
    119  N         14.9290   19.3360   27.9370 N.am  392  LEU392     -0.1977
    120  CA        15.7420   20.0530   26.9380 C.3   392  LEU392      0.1596
    121  C         15.1590   19.8220   25.5490 C.2   392  LEU392      0.2287
    122  O         14.5940   18.7520   25.2860 O.2   392  LEU392     -0.2864
    123  CB        17.2100   19.5610   26.9590 C.3   392  LEU392      0.0297
    124  CG        18.0130   19.6890   28.2610 C.3   392  LEU392      0.0022
    125  CD1       19.3900   18.9590   28.1790 C.3   392  LEU392      0.0001
    126  CD2       18.1790   21.1460   28.6470 C.3   392  LEU392      0.0001
    127  N         13.5050   17.5170   21.2450 N.3   395  SER395     -0.1202
    128  CA        12.9630   16.5200   22.1620 C.3   395  SER395      0.2020
    129  C         11.9720   15.6030   21.4780 C.2   395  SER395      0.2619
    130  O         11.3950   15.9620   20.4620 O.2   395  SER395     -0.2717
    131  CB        12.2560   17.1930   23.3440 C.3   395  SER395      0.2103
    132  OG        11.1870   17.9930   22.8580 O.3   395  SER395     -0.2182
    133  N         11.7980   14.4200   22.0560 N.am  396  PHE396     -0.1961
    134  CA        10.6670   13.5640   21.7380 C.3   396  PHE396      0.1771
    135  C          9.5250   13.7930   22.7250 C.2   396  PHE396      0.2619
    136  O          9.7530   13.9080   23.9420 O.2   396  PHE396     -0.2715
    137  CB        11.0970   12.0880   21.7410 C.3   396  PHE396      0.0574
    138  CG        12.0540   11.7270   20.6110 C.ar  396  PHE396     -0.0200
    139  CD1       13.4090   11.4710   20.8670 C.ar  396  PHE396     -0.0042
    140  CD2       11.6040   11.6490   19.2910 C.ar  396  PHE396     -0.0042
    141  CE1       14.3060   11.1190   19.8070 C.ar  396  PHE396     -0.0003
    142  CE2       12.4910   11.2980   18.2560 C.ar  396  PHE396     -0.0003
    143  CZ        13.8420   11.0480   18.5140 C.ar  396  PHE396     -0.0000
    144  N          8.2940   13.8260   22.2140 N.am  397  GLU397     -0.1963
    145  CA         7.1410   14.1320   23.0460 C.3   397  GLU397      0.1733
    146  C          6.0040   13.1670   22.7480 C.2   397  GLU397      0.2616
    147  O          5.8800   12.6620   21.6270 O.2   397  GLU397     -0.2715
    148  CB         6.6220   15.5480   22.7780 C.3   397  GLU397      0.0429
    149  CG         7.6270   16.6890   23.0010 C.3   397  GLU397      0.1163
    150  CD         8.0510   16.8500   24.4790 C.2   397  GLU397      0.3649
    151  OE1        7.3610   16.3600   25.4050 O.co2 397  GLU397     -0.2457
    152  OE2        9.0950   17.4730   24.7070 O.co2 397  GLU397     -0.2457
    153  N          5.1610   12.9310   23.7490 N.am  398  TYR398     -0.1960
    154  CA         3.8920   12.2370   23.4990 C.3   398  TYR398      0.1771
    155  C          2.9560   13.0980   22.6740 C.2   398  TYR398      0.2619
    156  O          3.0320   14.3230   22.7220 O.2   398  TYR398     -0.2715
    157  CB         3.2200   11.8890   24.8100 C.3   398  TYR398      0.0574
    158  CG         4.0580   10.9640   25.6530 C.ar  398  TYR398     -0.0198
    159  CD1        4.3680   11.3070   26.9680 C.ar  398  TYR398     -0.0009
    160  CD2        4.5640    9.7610   25.1380 C.ar  398  TYR398     -0.0009
    161  CE1        5.1320   10.4750   27.7660 C.ar  398  TYR398      0.0417
    162  CE2        5.3360    8.9120   25.9340 C.ar  398  TYR398      0.0417
    163  CZ         5.6100    9.2910   27.2510 C.ar  398  TYR398      0.1957
    164  OH         6.3620    8.5160   28.0940 O.3   398  TYR398     -0.2866
    165  N          2.0710   12.4620   21.9130 N.am  399  GLN399     -0.1964
    166  CA         1.0060   13.1840   21.2140 C.3   399  GLN399      0.1718
    167  C         -0.2510   12.3200   21.2850 C.2   399  GLN399      0.2458
    168  O         -0.1550   11.1200   21.5360 O.2   399  GLN399     -0.2730
    169  CB         1.4040   13.4980   19.7460 C.3   399  GLN399      0.0407
    170  CG         1.7720   12.2780   18.9340 C.3   399  GLN399      0.0908
    171  CD         2.3430   12.5880   17.5300 C.2   399  GLN399      0.2608
    172  OE1        2.0620   13.6260   16.9350 O.2   399  GLN399     -0.2717
    173  NE2        3.1240   11.6540   17.0030 N.am  399  GLN399     -0.0878
    174  N         -1.4300   12.9100   21.0480 N.am  400  PRO400     -0.2727
    175  CA        -2.6450   12.0820   21.1630 C.3   400  PRO400      0.1402
    176  C         -2.6710   10.9790   20.1010 C.2   400  PRO400      0.2269
    177  O         -2.1370   11.1700   19.0010 O.2   400  PRO400     -0.2865
    178  CB        -3.7730   13.0970   20.9460 C.3   400  PRO400      0.0296
    179  CG        -3.1610   14.4060   21.4130 C.3   400  PRO400      0.0237
    180  CD        -1.7650   14.3310   20.8280 C.3   400  PRO400      0.0939
@<TRIPOS>BOND
     1    53    54    2
     2    53    52    1
     3    51    52    1
     4    52    55    1
     5    55    56    1
     6    56    57    1
     7    82    81    2
     8    81    80    1
     9    57    58    1
    10    58    59    2
    11    79    80    1
    12    80    83    1
    13    59    61    1
    14    59    60    1
    15    83    84    1
    16    86    85   ar
    17    84    85    1
    18   172   171    2
    19   173   171   am
    20    85    87   ar
    21    68    67    1
    22   171   170    1
    23    67    66    1
    24    67    69    1
    25    72    71    1
    26    72    73    2
    27    63    64    1
    28    63    66    1
    29    63    62    1
    30    71    70    1
    31    71    74    1
    32   142   143   ar
    33   142   140   ar
    34    64    65    2
    35   143   141   ar
    36   170   169    1
    37   177   176    2
    38    75    74    1
    39    75    76    1
    40   140   138   ar
    41   169   166    1
    42   141   139   ar
    43   176   175    1
    44   130   129    2
    45    76    77   ar
    46    76    78   ar
    47   138   139   ar
    48   138   137    1
    49   180   174    1
    50   180   179    1
    51   178   175    1
    52   178   179    1
    53   174   175    1
    54   174   167   am
    55   166   167    1
    56   166   165    1
    57   127   128    1
    58   167   168    2
    59   129   133   am
    60   129   128    1
    61   147   146    2
    62   134   137    1
    63   134   133    1
    64   134   135    1
    65   165   155   am
    66   128   131    1
    67   144   135   am
    68   144   145    1
    69   155   156    2
    70   155   154    1
    71   135   136    2
    72   146   145    1
    73   146   153   am
    74   148   149    1
    75   148   145    1
    76   132   131    1
    77   149   150    1
    78   154   153    1
    79   154   157    1
    80    39    37   am
    81   118   116    1
    82   150   152   ar
    83   150   151   ar
    84    32    33    1
    85    37    36    1
    86    37    38    2
    87   157   158    1
    88    36    33    1
    89   160   158   ar
    90   160   162   ar
    91    44    41    1
    92   122   121    2
    93   116   117    1
    94   116   115    2
    95   121   120    1
    96   158   159   ar
    97    33    34    1
    98    40    41    1
    99    40    34   am
   100   162   163   ar
   101    41    42    1
   102   115   114    1
   103    34    35    2
   104     8     6    1
   105   120   123    1
   106   120   119    1
   107   123   124    1
   108   159   161   ar
   109     6     7    1
   110     6     5    1
   111   163   161   ar
   112   163   164    1
   113    42    43    2
   114    42    45   am
   115   114   113    1
   116   113   112    1
   117   119   110   am
   118   125   124    1
   119     5     2    1
   120   124   126    1
   121    45    46    1
   122    30    31    1
   123    30    29    1
   124   110   111    2
   125   110   109    1
   126     1     2    1
   127     2     3    1
   128    31    25    1
   129   112   109    1
   130    29    26    1
   131   109   108    1
   132    46    47    1
   133    46    49    1
   134    47    48    2
   135     3     9   am
   136     3     4    2
   137    25    26    1
   138    49    50    1
   139    28    27    2
   140    26    27    1
   141     9    10    1
   142    17    15   ar
   143   108    98   am
   144    99    98    2
   145    98    97    1
   146    12    11    2
   147    15    16   ar
   148    15    14    1
   149   104   102   ar
   150   104   106   ar
   151   102   101   ar
   152    10    13    1
   153    10    11    1
   154    13    14    1
   155    11    18   am
   156   107   106    1
   157   106   105   ar
   158    97   100    1
   159    97    96    1
   160    95    93   am
   161   101   100    1
   162   101   103   ar
   163    96    90   am
   164    18    19    1
   165   105   103   ar
   166    94    93    2
   167    93    92    1
   168    19    20    1
   169    19    22    1
   170    20    21    2
   171    90    89    1
   172    90    91    2
   173    24    22    1
   174    89    92    1
   175    89    88    1
   176    22    23    1
