@<TRIPOS>MOLECULE
tmp/4jseA03.pdb
 157 155 0 0 0
SMALL
GASTEIGER

@<TRIPOS>ATOM
      1  N          1.6610    2.1770   17.4790 N.3   169  SER169     -0.1202
      2  CA         2.5150    2.6970   18.5480 C.3   169  SER169      0.2020
      3  C          3.9920    2.2780   18.4000 C.2   169  SER169      0.2618
      4  O          4.8710    3.0470   18.7610 O.2   169  SER169     -0.2717
      5  CB         1.9420    2.3430   19.9240 C.3   169  SER169      0.2103
      6  OG         1.9380    0.9510   20.1150 O.3   169  SER169     -0.2182
      7  N          4.2460    1.0710   17.8730 N.am  170  GLN170     -0.1979
      8  CA         5.5860    0.6310   17.4300 C.3   170  GLN170      0.1601
      9  C          5.4190    0.0500   16.0170 C.2   170  GLN170      0.2287
     10  O          4.3230   -0.4260   15.6840 O.2   170  GLN170     -0.2864
     11  CB         6.1900   -0.4660   18.3230 C.3   170  GLN170      0.0394
     12  CG         6.4860   -0.0500   19.7710 C.3   170  GLN170      0.0908
     13  CD         7.1000   -1.1840   20.6010 C.2   170  GLN170      0.2608
     14  OE1        7.8800   -2.0130   20.1020 O.2   170  GLN170     -0.2717
     15  NE2        6.7510   -1.2190   21.8730 N.am  170  GLN170     -0.0878
     16  N          4.5620   -4.9250   16.3310 N.3   173  ARG173     -0.1245
     17  CA         3.8510   -5.3250   17.5590 C.3   173  ARG173      0.1563
     18  C          2.8660   -6.4520   17.1970 C.2   173  ARG173      0.2260
     19  O          2.5320   -6.6430   16.0380 O.2   173  ARG173     -0.2867
     20  CB         3.0440   -4.1720   18.1640 C.3   173  ARG173      0.0307
     21  CG         3.8270   -3.1420   18.9250 C.3   173  ARG173      0.0489
     22  CD         2.9570   -2.3750   19.8990 C.3   173  ARG173      0.2205
     23  NE         3.1480   -2.8520   21.2640 N.pl3 173  ARG173     -0.0865
     24  CZ         2.6010   -2.2740   22.3370 C.cat 173  ARG173      0.5346
     25  NH1        1.8320   -1.1880   22.2080 N.pl3 173  ARG173      0.1354
     26  NH2        2.8270   -2.7770   23.5430 N.pl3 173  ARG173      0.1354
     27  N         12.9180   -3.1160   18.4270 N.3   257  PRO257     -0.2116
     28  CA        12.0090   -2.1880   19.0790 C.3   257  PRO257      0.1372
     29  C         12.0210   -0.8230   18.3570 C.2   257  PRO257      0.2244
     30  O         13.0770   -0.1910   18.2270 O.2   257  PRO257     -0.2868
     31  CB        12.5760   -2.0880   20.5070 C.3   257  PRO257      0.0268
     32  CG        14.0820   -2.3040   20.3400 C.3   257  PRO257      0.0207
     33  CD        14.2600   -3.1410   19.0580 C.3   257  PRO257      0.0892
     34  N          9.7420    2.6550   18.2070 N.3   259  VAL259     -0.1245
     35  CA         8.6540    3.5170   18.6380 C.3   259  VAL259      0.1561
     36  C          8.1910    4.4170   17.5290 C.2   259  VAL259      0.2260
     37  O          9.0030    5.1260   16.9520 O.2   259  VAL259     -0.2867
     38  CB         9.1090    4.3600   19.8510 C.3   259  VAL259      0.0252
     39  CG1        8.0600    5.4330   20.2160 C.3   259  VAL259      0.0019
     40  CG2        9.3720    3.3870   21.0420 C.3   259  VAL259      0.0019
     41  N          4.9420    6.4090   17.6110 N.3   261  ASN261     -0.1225
     42  CA         3.8450    7.3310   17.9250 C.3   261  ASN261      0.1785
     43  C          4.2620    8.6520   18.5780 C.2   261  ASN261      0.2597
     44  O          3.4240    9.4260   19.0060 O.2   261  ASN261     -0.2718
     45  CB         2.7350    6.6380   18.7520 C.3   261  ASN261      0.1169
     46  CG         3.2010    6.1680   20.1370 C.2   261  ASN261      0.2627
     47  OD1        4.3810    6.3080   20.4610 O.2   261  ASN261     -0.2716
     48  ND2        2.3030    5.6650   20.9530 N.am  261  ASN261     -0.0877
     49  N          5.5540    8.9070   18.6490 N.am  262  MET262     -0.1979
     50  CA         6.0020   10.1210   19.3010 C.3   262  MET262      0.1605
     51  C          6.2230   11.2340   18.3090 C.2   262  MET262      0.2287
     52  O          6.2400   11.0170   17.0910 O.2   262  MET262     -0.2864
     53  CB         7.2430    9.8330   20.1280 C.3   262  MET262      0.0413
     54  CG         6.8690    8.9220   21.3340 C.3   262  MET262      0.0598
     55  SD         8.2200    8.7940   22.4860 S.3   262  MET262     -0.1393
     56  CE         7.9750   10.2350   23.5580 C.3   262  MET262      0.0692
     57  N         11.4830    5.5850   15.3000 N.3   276  PHE276     -0.1227
     58  CA        12.8970    5.4250   15.6420 C.3   276  PHE276      0.1736
     59  C         13.0920    4.0770   16.3060 C.2   276  PHE276      0.2596
     60  O         12.1830    3.5590   16.9120 O.2   276  PHE276     -0.2718
     61  CB        13.3930    6.5610   16.5200 C.3   276  PHE276      0.0547
     62  CG        12.6480    6.7240   17.8360 C.ar  276  PHE276     -0.0202
     63  CD1       12.9780    5.9570   18.9490 C.ar  276  PHE276     -0.0042
     64  CD2       11.6470    7.6930   17.9680 C.ar  276  PHE276     -0.0042
     65  CE1       12.3200    6.1630   20.1870 C.ar  276  PHE276     -0.0003
     66  CE2       10.9940    7.8970   19.1840 C.ar  276  PHE276     -0.0003
     67  CZ        11.3570    7.1320   20.3010 C.ar  276  PHE276     -0.0000
     68  N         14.2580    3.4790   16.1400 N.am  277  SER277     -0.1938
     69  CA        14.4440    2.1290   16.6090 C.3   277  SER277      0.2055
     70  C         15.8360    1.9610   17.2120 C.2   277  SER277      0.2644
     71  O         16.7740    2.6680   16.8150 O.2   277  SER277     -0.2714
     72  CB        14.2440    1.1350   15.4470 C.3   277  SER277      0.2130
     73  OG        15.2200    1.3040   14.4090 O.3   277  SER277     -0.2179
     74  N         15.9880    1.0050   18.1390 N.am  278  GLY278     -0.1939
     75  CA        17.3320    0.6270   18.6050 C.3   278  GLY278      0.2014
     76  C         17.5010   -0.8820   18.7090 C.2   278  GLY278      0.2639
     77  O         17.2550   -1.6210   17.7650 O.2   278  GLY278     -0.2714
     78  N         17.8910   -1.3420   19.8880 N.am  279  TRP279     -0.1959
     79  CA        17.8480   -2.7670   20.1900 C.3   279  TRP279      0.1771
     80  C         17.3720   -2.9060   21.6320 C.2   279  TRP279      0.2620
     81  O         17.4690   -1.9700   22.4260 O.2   279  TRP279     -0.2715
     82  CB        19.2160   -3.4190   20.0240 C.3   279  TRP279      0.0590
     83  CG        20.3160   -2.7430   20.7490 C.ar  279  TRP279      0.0006
     84  CD1       20.6290   -2.8740   22.0910 C.ar  279  TRP279      0.0946
     85  CD2       21.2990   -1.8580   20.1960 C.ar  279  TRP279      0.0152
     86  NE1       21.7250   -2.1130   22.3950 N.ar  279  TRP279     -0.2442
     87  CE2       22.1710   -1.4870   21.2560 C.ar  279  TRP279      0.0810
     88  CE3       21.5290   -1.3320   18.9080 C.ar  279  TRP279      0.0012
     89  CZ2       23.2690   -0.6050   21.0670 C.ar  279  TRP279      0.0191
     90  CZ3       22.6410   -0.4740   18.7130 C.ar  279  TRP279      0.0001
     91  CH2       23.4950   -0.1310   19.7850 C.ar  279  TRP279      0.0015
     92  N         16.8620   -4.0780   21.9560 N.am  280  TYR280     -0.1960
     93  CA        16.2440   -4.2930   23.2650 C.3   280  TYR280      0.1771
     94  C         17.2120   -4.4350   24.4250 C.2   280  TYR280      0.2619
     95  O         18.3260   -4.9360   24.2700 O.2   280  TYR280     -0.2715
     96  CB        15.4280   -5.5740   23.2140 C.3   280  TYR280      0.0574
     97  CG        13.9880   -5.3870   22.8060 C.ar  280  TYR280     -0.0198
     98  CD1       13.4930   -5.9660   21.6340 C.ar  280  TYR280     -0.0009
     99  CD2       13.1140   -4.6750   23.6080 C.ar  280  TYR280     -0.0009
    100  CE1       12.1490   -5.8340   21.2810 C.ar  280  TYR280      0.0417
    101  CE2       11.7820   -4.5440   23.2760 C.ar  280  TYR280      0.0417
    102  CZ        11.3110   -5.1120   22.1010 C.ar  280  TYR280      0.1957
    103  OH         9.9750   -4.9600   21.7930 O.3   280  TYR280     -0.2866
    104  N         16.7520   -3.9950   25.5930 N.am  281  MET281     -0.1977
    105  CA        17.2920   -4.4330   26.8620 C.3   281  MET281      0.1605
    106  C         16.3860   -5.5750   27.2620 C.2   281  MET281      0.2287
    107  O         15.1590   -5.4700   27.1530 O.2   281  MET281     -0.2864
    108  CB        17.2610   -3.2970   27.9100 C.3   281  MET281      0.0413
    109  CG        17.8730   -3.6920   29.3160 C.3   281  MET281      0.0598
    110  SD        18.0800   -2.2290   30.3730 S.3   281  MET281     -0.1393
    111  CE        16.3820   -1.8370   30.7920 C.3   281  MET281      0.0692
    112  N         12.8770   -5.5440   29.0860 N.3   284  GLU284     -0.1245
    113  CA        11.7470   -4.9990   28.3170 C.3   284  GLU284      0.1567
    114  C         10.8790   -6.1280   27.8030 C.2   284  GLU284      0.2260
    115  O          9.6750   -6.0310   27.8650 O.2   284  GLU284     -0.2867
    116  CB        12.1840   -4.1380   27.1190 C.3   284  GLU284      0.0388
    117  CG        12.8990   -2.8360   27.4910 C.3   284  GLU284      0.1160
    118  CD        13.2740   -2.0030   26.2430 C.2   284  GLU284      0.3649
    119  OE1       12.4080   -1.2120   25.7650 O.co2 284  GLU284     -0.2457
    120  OE2       14.4160   -2.1380   25.7600 O.co2 284  GLU284     -0.2457
    121  N          8.5560   -6.8730   31.3150 N.3   288  ARG288     -0.1245
    122  CA         7.3620   -6.0830   30.9510 C.3   288  ARG288      0.1563
    123  C          6.4120   -6.8550   30.0360 C.2   288  ARG288      0.2260
    124  O          5.2420   -7.0650   30.3660 O.2   288  ARG288     -0.2867
    125  CB         7.7590   -4.7640   30.2710 C.3   288  ARG288      0.0307
    126  CG         6.5730   -3.8540   29.8860 C.3   288  ARG288      0.0489
    127  CD         7.0490   -2.6060   29.1230 C.3   288  ARG288      0.2205
    128  NE         5.9490   -1.7240   28.7280 N.pl3 288  ARG288     -0.0865
    129  CZ         5.4420   -1.6510   27.4930 C.cat 288  ARG288      0.5346
    130  NH1        5.9150   -2.4170   26.5090 N.pl3 288  ARG288      0.1354
    131  NH2        4.4640   -0.8000   27.2310 N.pl3 288  ARG288      0.1354
    132  N         11.9840    5.8030   35.3020 N.3   370  TRP370     -0.1241
    133  CA        12.1270    5.0310   34.0630 C.3   370  TRP370      0.1605
    134  C         13.4790    4.3680   33.8170 C.2   370  TRP370      0.2264
    135  O         13.5440    3.3450   33.1340 O.2   370  TRP370     -0.2867
    136  CB        11.8300    5.9420   32.8830 C.3   370  TRP370      0.0550
    137  CG        10.3830    6.0600   32.6970 C.ar  370  TRP370      0.0003
    138  CD1        9.4640    6.5830   33.5860 C.ar  370  TRP370      0.0946
    139  CD2        9.6430    5.6340   31.5470 C.ar  370  TRP370      0.0152
    140  NE1        8.2010    6.5170   33.0330 N.ar  370  TRP370     -0.2442
    141  CE2        8.2840    5.9380   31.7890 C.ar  370  TRP370      0.0810
    142  CE3       10.0040    5.0600   30.3210 C.ar  370  TRP370      0.0012
    143  CZ2        7.2850    5.6770   30.8510 C.ar  370  TRP370      0.0191
    144  CZ3        9.0020    4.7940   29.3760 C.ar  370  TRP370      0.0001
    145  CH2        7.6570    5.0990   29.6560 C.ar  370  TRP370      0.0015
    146  N          5.1610   12.9310   23.7490 N.3   398  TYR398     -0.1241
    147  CA         3.8920   12.2370   23.4990 C.3   398  TYR398      0.1605
    148  C          2.9560   13.0980   22.6740 C.2   398  TYR398      0.2264
    149  O          3.0320   14.3230   22.7220 O.2   398  TYR398     -0.2867
    150  CB         3.2200   11.8890   24.8100 C.3   398  TYR398      0.0534
    151  CG         4.0580   10.9640   25.6530 C.ar  398  TYR398     -0.0201
    152  CD1        4.3680   11.3070   26.9680 C.ar  398  TYR398     -0.0009
    153  CD2        4.5640    9.7610   25.1380 C.ar  398  TYR398     -0.0009
    154  CE1        5.1320   10.4750   27.7660 C.ar  398  TYR398      0.0417
    155  CE2        5.3360    8.9120   25.9340 C.ar  398  TYR398      0.0417
    156  CZ         5.6100    9.2910   27.2510 C.ar  398  TYR398      0.1957
    157  OH         6.3620    8.5160   28.0940 O.3   398  TYR398     -0.2866
@<TRIPOS>BOND
     1    73    72    1
     2    57    58    1
     3    72    69    1
     4    58    59    1
     5    58    61    1
     6    10     9    2
     7     9     8    1
     8    19    18    2
     9    68    59   am
    10    68    69    1
    11    59    60    2
    12    16    17    1
    13    61    62    1
    14    69    70    1
    15    71    70    2
    16    37    36    2
    17    52    51    2
    18    18    17    1
    19    70    74   am
    20     8     7    1
    21     8    11    1
    22     1     2    1
    23    36    35    1
    24    17    20    1
    25    41    42    1
    26    77    76    2
    27    62    64   ar
    28    62    63   ar
    29     7     3   am
    30    42    43    1
    31    42    45    1
    32    64    66   ar
    33    74    75    1
    34    20    21    1
    35    34    35    1
    36    30    29    2
    37    51    50    1
    38    11    12    1
    39    29    28    1
    40     3     2    1
    41     3     4    2
    42    27    33    1
    43    27    28    1
    44     2     5    1
    45    43    49   am
    46    43    44    2
    47    75    76    1
    48    35    38    1
    49    49    50    1
    50    76    78   am
    51    90    88   ar
    52    90    91   ar
    53    45    46    1
    54    88    85   ar
    55    21    22    1
    56    63    65   ar
    57    33    32    1
    58    28    31    1
    59    66    67   ar
    60    50    53    1
    61    12    13    1
    62    91    89   ar
    63    38    39    1
    64    38    40    1
    65    78    79    1
    66    22    23    1
    67     5     6    1
    68    82    79    1
    69    82    83    1
    70    14    13    2
    71    53    54    1
    72    46    47    2
    73    46    48   am
    74    65    67   ar
    75    79    80    1
    76    85    83   ar
    77    85    87   ar
    78    32    31    1
    79    13    15   am
    80    83    84   ar
    81    89    87   ar
    82    87    86   ar
    83    23    24    2
    84   100    98   ar
    85   100   102   ar
    86    54    55    1
    87    80    92   am
    88    80    81    2
    89    98    97   ar
    90   103   102    1
    91    92    93    1
    92    84    86   ar
    93   102   101   ar
    94    25    24    1
    95    24    26    1
    96    55    56    1
    97   148   149    2
    98   148   147    1
    99    97    96    1
   100    97    99   ar
   101    96    93    1
   102    93    94    1
   103   101    99   ar
   104   147   146    1
   105   147   150    1
   106    95    94    2
   107    94   104   am
   108   150   151    1
   109   153   151   ar
   110   153   155   ar
   111   104   105    1
   112   151   152   ar
   113   120   118   ar
   114   119   118   ar
   115   155   156   ar
   116   118   117    1
   117   130   129    1
   118   105   106    1
   119   105   108    1
   120   152   154   ar
   121   116   117    1
   122   116   113    1
   123   107   106    2
   124   131   129    1
   125   156   154   ar
   126   156   157    1
   127   129   128    2
   128   114   115    2
   129   114   113    1
   130   108   109    1
   131   113   112    1
   132   128   127    1
   133   127   126    1
   134   109   110    1
   135   144   145   ar
   136   144   142   ar
   137   145   143   ar
   138   126   125    1
   139   123   124    2
   140   123   122    1
   141   125   122    1
   142   142   139   ar
   143   110   111    1
   144   143   141   ar
   145   122   121    1
   146   139   141   ar
   147   139   137   ar
   148   141   140   ar
   149   137   136    1
   150   137   138   ar
   151   136   133    1
   152   140   138   ar
   153   135   134    2
   154   134   133    1
   155   133   132    1
