@<TRIPOS>MOLECULE
tmp/4jsfB03.pdb
 112 113 0 0 0
SMALL
GASTEIGER

@<TRIPOS>ATOM
      1  N          7.0650    5.5100   53.3700 N.3   108  CYS108     -0.1235
      2  CA         6.8110    4.2830   54.1590 C.3   108  CYS108      0.1677
      3  C          5.7380    3.3940   53.5780 C.2   108  CYS108      0.2270
      4  O          4.5690    3.7530   53.4900 O.2   108  CYS108     -0.2867
      5  CB         6.5050    4.6010   55.6290 C.3   108  CYS108      0.0956
      6  SG         6.1830    3.1410   56.6510 S.3   108  CYS108     -0.0801
      7  N         20.0510    3.9560   64.1510 N.3   171  GLN171     -0.1245
      8  CA        19.0140    3.0070   64.5240 C.3   171  GLN171      0.1566
      9  C         19.4260    2.4930   65.8980 C.2   171  GLN171      0.2260
     10  O         20.6320    2.4630   66.2070 O.2   171  GLN171     -0.2867
     11  CB        18.9530    1.8120   63.5500 C.3   171  GLN171      0.0367
     12  CG        18.3900    2.1030   62.1550 C.3   171  GLN171      0.0905
     13  CD        18.3540    0.8470   61.2400 C.2   171  GLN171      0.2608
     14  OE1       17.9510   -0.2690   61.6560 O.2   171  GLN171     -0.2717
     15  NE2       18.7240    1.0410   59.9860 N.am  171  GLN171     -0.0878
     16  N         13.8070   -3.3330   63.5580 N.3   258  PRO258     -0.2102
     17  CA        14.2820   -2.1460   62.8930 C.3   258  PRO258      0.1504
     18  C         13.7300   -0.9170   63.6490 C.2   258  PRO258      0.2576
     19  O         12.5010   -0.8000   63.8730 O.2   258  PRO258     -0.2718
     20  CB        13.6900   -2.2700   61.4850 C.3   258  PRO258      0.0282
     21  CG        12.3000   -2.9830   61.7430 C.3   258  PRO258      0.0208
     22  CD        12.5710   -3.8880   62.9480 C.3   258  PRO258      0.0893
     23  N         14.6200   -0.0120   64.0300 N.am  259  ALA259     -0.1966
     24  CA        14.2480    1.0670   64.9540 C.3   259  ALA259      0.1728
     25  C         14.9880    2.3620   64.6300 C.2   259  ALA259      0.2616
     26  O         16.1580    2.5550   65.0400 O.2   259  ALA259     -0.2715
     27  CB        14.4960    0.6350   66.3960 C.3   259  ALA259      0.0334
     28  N         14.3220    3.2600   63.9150 N.am  260  VAL260     -0.1977
     29  CA        14.9790    4.4940   63.4320 C.3   260  VAL260      0.1596
     30  C         15.0850    5.4920   64.5720 C.2   260  VAL260      0.2287
     31  O         14.0820    5.8160   65.2070 O.2   260  VAL260     -0.2864
     32  CB        14.2240    5.0980   62.2540 C.3   260  VAL260      0.0276
     33  CG1       14.7350    6.5200   61.9390 C.3   260  VAL260      0.0022
     34  CG2       14.4150    4.1780   61.0070 C.3   260  VAL260      0.0022
     35  N         11.5760    5.1730   66.7950 N.3   277  PHE277     -0.1227
     36  CA        10.3910    4.3970   66.4670 C.3   277  PHE277      0.1736
     37  C         10.8070    3.0810   65.7910 C.2   277  PHE277      0.2596
     38  O         11.8400    2.9820   65.1720 O.2   277  PHE277     -0.2718
     39  CB         9.4070    5.2330   65.6090 C.3   277  PHE277      0.0547
     40  CG        10.0190    5.8140   64.3370 C.ar  277  PHE277     -0.0202
     41  CD1       10.0560    5.0810   63.1620 C.ar  277  PHE277     -0.0042
     42  CD2       10.5010    7.1330   64.3010 C.ar  277  PHE277     -0.0042
     43  CE1       10.6030    5.6300   61.9850 C.ar  277  PHE277     -0.0003
     44  CE2       11.0440    7.6810   63.1150 C.ar  277  PHE277     -0.0003
     45  CZ        11.0930    6.9130   61.9610 C.ar  277  PHE277     -0.0000
     46  N          9.9830    2.0660   65.9200 N.am  278  SER278     -0.1938
     47  CA        10.3090    0.7630   65.4220 C.3   278  SER278      0.2055
     48  C          9.0430    0.0870   64.9170 C.2   278  SER278      0.2644
     49  O          7.9580    0.4260   65.3490 O.2   278  SER278     -0.2714
     50  CB        11.0040   -0.0950   66.5170 C.3   278  SER278      0.2130
     51  OG        10.1500   -0.3310   67.6170 O.3   278  SER278     -0.2179
     52  N          9.2020   -0.8240   63.9500 N.am  279  GLY279     -0.1939
     53  CA         8.1190   -1.6860   63.4860 C.3   279  GLY279      0.2014
     54  C          8.6840   -3.1110   63.3160 C.2   279  GLY279      0.2639
     55  O          9.1860   -3.7110   64.2680 O.2   279  GLY279     -0.2714
     56  N          8.5650   -3.6680   62.1200 N.am  280  TRP280     -0.1959
     57  CA         9.1890   -4.9450   61.7940 C.3   280  TRP280      0.1771
     58  C          9.6810   -4.8460   60.3430 C.2   280  TRP280      0.2620
     59  O          9.2600   -3.9600   59.5960 O.2   280  TRP280     -0.2715
     60  CB         8.2260   -6.1470   61.9690 C.3   280  TRP280      0.0590
     61  CG         6.8750   -5.9850   61.2700 C.ar  280  TRP280      0.0006
     62  CD1        6.6030   -6.1960   59.9410 C.ar  280  TRP280      0.0946
     63  CD2        5.6330   -5.5840   61.8720 C.ar  280  TRP280      0.0152
     64  NE1        5.2680   -5.9290   59.6800 N.ar  280  TRP280     -0.2442
     65  CE2        4.6540   -5.5590   60.8470 C.ar  280  TRP280      0.0810
     66  CE3        5.2540   -5.2300   63.1840 C.ar  280  TRP280      0.0012
     67  CZ2        3.3010   -5.2160   61.0930 C.ar  280  TRP280      0.0191
     68  CZ3        3.9110   -4.8850   63.4360 C.ar  280  TRP280      0.0001
     69  CH2        2.9500   -4.8930   62.3870 C.ar  280  TRP280      0.0015
     70  N         10.5620   -5.7480   59.9430 N.am  281  TYR281     -0.1960
     71  CA        11.1740   -5.6350   58.6410 C.3   281  TYR281      0.1771
     72  C         10.3250   -6.1090   57.4830 C.2   281  TYR281      0.2619
     73  O          9.5500   -7.0560   57.6010 O.2   281  TYR281     -0.2715
     74  CB        12.4700   -6.4480   58.6050 C.3   281  TYR281      0.0574
     75  CG        13.7170   -5.7270   59.0690 C.ar  281  TYR281     -0.0198
     76  CD1       14.3940   -6.1090   60.2410 C.ar  281  TYR281     -0.0009
     77  CD2       14.2520   -4.7060   58.3190 C.ar  281  TYR281     -0.0009
     78  CE1       15.5740   -5.4450   60.6540 C.ar  281  TYR281      0.0417
     79  CE2       15.4470   -4.0580   58.7140 C.ar  281  TYR281      0.0417
     80  CZ        16.0900   -4.4420   59.8770 C.ar  281  TYR281      0.1957
     81  OH        17.2520   -3.7870   60.2030 O.3   281  TYR281     -0.2866
     82  N         10.5240   -5.4710   56.3420 N.am  282  MET282     -0.1977
     83  CA        10.2360   -6.1240   55.0610 C.3   282  MET282      0.1605
     84  C         11.5290   -6.8290   54.6640 C.2   282  MET282      0.2287
     85  O         12.6390   -6.2540   54.8210 O.2   282  MET282     -0.2864
     86  CB         9.8430   -5.0600   54.0250 C.3   282  MET282      0.0413
     87  CG         9.4960   -5.6080   52.5840 C.3   282  MET282      0.0598
     88  SD         8.5850   -4.3250   51.6290 S.3   282  MET282     -0.1393
     89  CE         9.9510   -3.3950   50.9080 C.3   282  MET282      0.0692
     90  N         14.7590   -5.2880   52.9170 N.3   285  GLU285     -0.1245
     91  CA        15.6270   -4.3240   53.5980 C.3   285  GLU285      0.1567
     92  C         16.9130   -5.0360   54.0460 C.2   285  GLU285      0.2260
     93  O         17.9990   -4.4640   53.9590 O.2   285  GLU285     -0.2867
     94  CB        14.9330   -3.7220   54.8040 C.3   285  GLU285      0.0388
     95  CG        13.6130   -2.9610   54.4490 C.3   285  GLU285      0.1160
     96  CD        12.9300   -2.4270   55.6990 C.2   285  GLU285      0.3649
     97  OE1       13.4370   -1.4140   56.1970 O.co2 285  GLU285     -0.2457
     98  OE2       11.8990   -2.9940   56.1770 O.co2 285  GLU285     -0.2457
     99  N         10.8540    5.4200   46.7290 N.3   371  TRP371     -0.1241
    100  CA        11.0960    4.6710   47.9330 C.3   371  TRP371      0.1605
    101  C         10.1260    3.5250   48.1600 C.2   371  TRP371      0.2264
    102  O         10.4870    2.5530   48.7960 O.2   371  TRP371     -0.2867
    103  CB        10.9960    5.6330   49.1370 C.3   371  TRP371      0.0550
    104  CG        12.2700    6.3930   49.3380 C.ar  371  TRP371      0.0003
    105  CD1       12.8460    7.2980   48.4800 C.ar  371  TRP371      0.0946
    106  CD2       13.1200    6.3140   50.4750 C.ar  371  TRP371      0.0152
    107  NE1       14.0170    7.7810   49.0260 N.ar  371  TRP371     -0.2442
    108  CE2       14.2030    7.1970   50.2510 C.ar  371  TRP371      0.0810
    109  CE3       13.0710    5.5880   51.6780 C.ar  371  TRP371      0.0012
    110  CZ2       15.2410    7.3520   51.1780 C.ar  371  TRP371      0.0191
    111  CZ3       14.1020    5.7510   52.6090 C.ar  371  TRP371      0.0001
    112  CH2       15.1640    6.6330   52.3510 C.ar  371  TRP371      0.0015
@<TRIPOS>BOND
     1    99   100    1
     2   100   101    1
     3   100   103    1
     4   101   102    2
     5   105   107   ar
     6   105   104   ar
     7   107   108   ar
     8   103   104    1
     9   104   106   ar
    10   108   106   ar
    11   108   110   ar
    12   106   109   ar
    13    89    88    1
    14   110   112   ar
    15    88    87    1
    16   109   111   ar
    17   112   111   ar
    18    87    86    1
    19    90    91    1
    20     1     2    1
    21     4     3    2
    22     3     2    1
    23    91    92    1
    24    91    94    1
    25    93    92    2
    26    86    83    1
    27     2     5    1
    28    95    94    1
    29    95    96    1
    30    84    85    2
    31    84    83    1
    32    83    82    1
    33     5     6    1
    34    96    98   ar
    35    96    97   ar
    36    82    72   am
    37    72    73    2
    38    72    71    1
    39    77    79   ar
    40    77    75   ar
    41    74    71    1
    42    74    75    1
    43    71    70    1
    44    79    80   ar
    45    75    76   ar
    46    59    58    2
    47    64    62   ar
    48    64    65   ar
    49    80    81    1
    50    80    78   ar
    51    62    61   ar
    52    70    58   am
    53    15    13   am
    54    76    78   ar
    55    58    57    1
    56    65    67   ar
    57    65    63   ar
    58    34    32    1
    59    67    69   ar
    60    13    14    2
    61    13    12    1
    62    61    63   ar
    63    61    60    1
    64    20    21    1
    65    20    17    1
    66    21    22    1
    67    57    60    1
    68    57    56    1
    69    63    66   ar
    70    33    32    1
    71    45    43   ar
    72    45    44   ar
    73    43    41   ar
    74    56    54   am
    75    12    11    1
    76    32    29    1
    77    69    68   ar
    78    17    16    1
    79    17    18    1
    80    22    16    1
    81    44    42   ar
    82    41    40   ar
    83    66    68   ar
    84    54    53    1
    85    54    55    2
    86    29    28    1
    87    29    30    1
    88    53    52    1
    89    11     8    1
    90    18    19    2
    91    18    23   am
    92    28    25   am
    93    52    48   am
    94    23    24    1
    95     7     8    1
    96    42    40   ar
    97    40    39    1
    98     8     9    1
    99    30    31    2
   100    25    24    1
   101    25    26    2
   102    48    49    2
   103    48    47    1
   104    24    27    1
   105    38    37    2
   106    47    46    1
   107    47    50    1
   108    39    36    1
   109    37    46   am
   110    37    36    1
   111     9    10    2
   112    36    35    1
   113    50    51    1
