@<TRIPOS>MOLECULE
tmp/4jsgA02.pdb
 151 150 0 0 0
SMALL
GASTEIGER

@<TRIPOS>ATOM
      1  N          2.8370    8.9050   34.6350 N.3    38  MET38      -0.1230
      2  CA         3.2620    8.5130   33.2810 C.3    38  MET38       0.1702
      3  C          3.1780    9.6420   32.2370 C.2    38  MET38       0.2592
      4  O          4.1530    9.8910   31.5170 O.2    38  MET38      -0.2718
      5  CB         2.4990    7.2730   32.8040 C.3    38  MET38       0.0401
      6  CG         3.0570    5.9670   33.3640 C.3    38  MET38       0.0596
      7  SD         2.8740    4.5410   32.2660 S.3    38  MET38      -0.1393
      8  CE         3.8040    5.1020   30.8430 C.3    38  MET38       0.0692
      9  N          2.0380   10.3400   32.1840 N.am   39  LEU39      -0.1980
     10  CA         1.8170   11.4000   31.1920 C.3    39  LEU39       0.1596
     11  C          1.4280   12.7390   31.8450 C.2    39  LEU39       0.2287
     12  O          0.2440   13.0300   32.0010 O.2    39  LEU39      -0.2864
     13  CB         0.7340   10.9590   30.1890 C.3    39  LEU39       0.0297
     14  CG         0.8010    9.5340   29.6220 C.3    39  LEU39       0.0022
     15  CD1       -0.5020    9.1060   28.9560 C.3    39  LEU39       0.0001
     16  CD2        1.9770    9.3410   28.6750 C.3    39  LEU39       0.0001
     17  N          1.7140    2.0810   17.5770 N.3   168  SER168     -0.1202
     18  CA         2.5110    2.5530   18.6990 C.3   168  SER168      0.2020
     19  C          4.0000    2.1480   18.5470 C.2   168  SER168      0.2618
     20  O          4.8790    2.9270   18.8770 O.2   168  SER168     -0.2717
     21  CB         1.9340    2.0200   20.0100 C.3   168  SER168      0.2103
     22  OG         2.0080    0.6080   20.0270 O.3   168  SER168     -0.2182
     23  N          4.2590    0.9380   18.0560 N.am  169  GLN169     -0.1979
     24  CA         5.6170    0.4850   17.6680 C.3   169  GLN169      0.1601
     25  C          5.4800   -0.1080   16.2610 C.2   169  GLN169      0.2287
     26  O          4.4000   -0.5760   15.9070 O.2   169  GLN169     -0.2864
     27  CB         6.1600   -0.6030   18.6180 C.3   169  GLN169      0.0394
     28  CG         6.4570   -0.2080   20.0740 C.3   169  GLN169      0.0908
     29  CD         7.0360   -1.3730   20.9140 C.2   169  GLN169      0.2608
     30  OE1        7.7230   -2.2500   20.3920 O.2   169  GLN169     -0.2717
     31  NE2        6.7410   -1.3830   22.2120 N.am  169  GLN169     -0.0878
     32  N         13.0270   -3.2190   18.5730 N.3   256  PRO256     -0.2116
     33  CA        12.1410   -2.2940   19.2750 C.3   256  PRO256      0.1372
     34  C         12.0700   -0.9490   18.5300 C.2   256  PRO256      0.2244
     35  O         13.0950   -0.2890   18.3410 O.2   256  PRO256     -0.2868
     36  CB        12.8080   -2.1520   20.6430 C.3   256  PRO256      0.0268
     37  CG        14.2750   -2.3100   20.3600 C.3   256  PRO256      0.0207
     38  CD        14.3760   -3.2760   19.1930 C.3   256  PRO256      0.0892
     39  N          9.7690    2.5320   18.2620 N.3   258  VAL258     -0.1245
     40  CA         8.6640    3.3650   18.7500 C.3   258  VAL258      0.1561
     41  C          8.1660    4.2650   17.6590 C.2   258  VAL258      0.2260
     42  O          8.9570    5.0000   17.0840 O.2   258  VAL258     -0.2867
     43  CB         9.1370    4.2360   19.9380 C.3   258  VAL258      0.0252
     44  CG1        8.0590    5.2500   20.3570 C.3   258  VAL258      0.0019
     45  CG2        9.5510    3.3190   21.0900 C.3   258  VAL258      0.0019
     46  N          4.9420    6.3080   17.7770 N.3   260  ASN260     -0.1225
     47  CA         3.8060    7.1560   18.1180 C.3   260  ASN260      0.1785
     48  C          4.1860    8.4970   18.7210 C.2   260  ASN260      0.2597
     49  O          3.3060    9.2710   19.1060 O.2   260  ASN260     -0.2718
     50  CB         2.7850    6.4110   19.0250 C.3   260  ASN260      0.1169
     51  CG         3.4010    5.9030   20.3350 C.2   260  ASN260      0.2627
     52  OD1        2.7480    5.1670   21.0750 O.2   260  ASN260     -0.2716
     53  ND2        4.6520    6.2840   20.6260 N.am  260  ASN260     -0.0877
     54  N          5.4850    8.7830   18.7860 N.am  261  MET261     -0.1979
     55  CA         5.9430   10.0240   19.4040 C.3   261  MET261      0.1605
     56  C          6.1370   11.1690   18.4100 C.2   261  MET261      0.2287
     57  O          6.1160   10.9630   17.1980 O.2   261  MET261     -0.2864
     58  CB         7.2120    9.7610   20.2270 C.3   261  MET261      0.0413
     59  CG         6.9680    8.7530   21.3510 C.3   261  MET261      0.0598
     60  SD         8.3200    8.6390   22.5400 S.3   261  MET261     -0.1393
     61  CE         8.0420   10.0800   23.5800 C.3   261  MET261      0.0692
     62  N         11.4580    5.4990   15.4120 N.3   275  PHE275     -0.1227
     63  CA        12.8560    5.3100   15.7850 C.3   275  PHE275      0.1736
     64  C         13.0830    3.9540   16.4690 C.2   275  PHE275      0.2596
     65  O         12.1670    3.4030   17.0940 O.2   275  PHE275     -0.2718
     66  CB        13.3630    6.4740   16.6430 C.3   275  PHE275      0.0547
     67  CG        12.6420    6.6640   17.9460 C.ar  275  PHE275     -0.0202
     68  CD1       12.9620    5.9000   19.0710 C.ar  275  PHE275     -0.0042
     69  CD2       11.6730    7.6480   18.0660 C.ar  275  PHE275     -0.0042
     70  CE1       12.3070    6.1080   20.2840 C.ar  275  PHE275     -0.0003
     71  CE2       11.0180    7.8680   19.2720 C.ar  275  PHE275     -0.0003
     72  CZ        11.3290    7.0950   20.3780 C.ar  275  PHE275     -0.0000
     73  N         14.2950    3.4110   16.3460 N.am  276  SER276     -0.1938
     74  CA        14.5520    2.0640   16.8250 C.3   276  SER276      0.2055
     75  C         15.9920    1.9220   17.3360 C.2   276  SER276      0.2644
     76  O         16.8890    2.6440   16.8960 O.2   276  SER276     -0.2714
     77  CB        14.2860    1.0440   15.7060 C.3   276  SER276      0.2130
     78  OG        15.2150    1.1340   14.6160 O.3   276  SER276     -0.2179
     79  N         16.2070    0.9690   18.2480 N.am  277  GLY277     -0.1939
     80  CA        17.5720    0.6370   18.7010 C.3   277  GLY277      0.2014
     81  C         17.6210   -0.8710   18.8500 C.2   277  GLY277      0.2639
     82  O         17.3210   -1.6140   17.9200 O.2   277  GLY277     -0.2714
     83  N         17.9820   -1.3180   20.0370 N.am  278  TRP278     -0.1959
     84  CA        17.9150   -2.7480   20.3790 C.3   278  TRP278      0.1771
     85  C         17.4060   -2.8800   21.8000 C.2   278  TRP278      0.2620
     86  O         17.3950   -1.9160   22.5820 O.2   278  TRP278     -0.2715
     87  CB        19.2860   -3.4130   20.2180 C.3   278  TRP278      0.0590
     88  CG        20.4000   -2.7570   20.9840 C.ar  278  TRP278      0.0006
     89  CD1       20.6760   -2.8950   22.3200 C.ar  278  TRP278      0.0946
     90  CD2       21.4010   -1.8680   20.4590 C.ar  278  TRP278      0.0152
     91  NE1       21.7660   -2.1380   22.6550 N.ar  278  TRP278     -0.2442
     92  CE2       22.2420   -1.5070   21.5350 C.ar  278  TRP278      0.0810
     93  CE3       21.6650   -1.3450   19.1810 C.ar  278  TRP278      0.0012
     94  CZ2       23.3520   -0.6470   21.3760 C.ar  278  TRP278      0.0191
     95  CZ3       22.7600   -0.4810   19.0190 C.ar  278  TRP278      0.0001
     96  CH2       23.5870   -0.1440   20.1120 C.ar  278  TRP278      0.0015
     97  N         16.9410   -4.0690   22.1370 N.am  279  TYR279     -0.1960
     98  CA        16.2810   -4.2750   23.4240 C.3   279  TYR279      0.1771
     99  C         17.2290   -4.3740   24.5960 C.2   279  TYR279      0.2619
    100  O         18.3730   -4.8420   24.4640 O.2   279  TYR279     -0.2715
    101  CB        15.4840   -5.5710   23.3710 C.3   279  TYR279      0.0574
    102  CG        14.0280   -5.4020   22.9970 C.ar  279  TYR279     -0.0198
    103  CD1       13.5110   -6.0280   21.8720 C.ar  279  TYR279     -0.0009
    104  CD2       13.1640   -4.6520   23.7980 C.ar  279  TYR279     -0.0009
    105  CE1       12.1790   -5.9240   21.5470 C.ar  279  TYR279      0.0417
    106  CE2       11.8150   -4.5430   23.4870 C.ar  279  TYR279      0.0417
    107  CZ        11.3350   -5.1800   22.3600 C.ar  279  TYR279      0.1957
    108  OH        10.0190   -5.0660   22.0200 O.3   279  TYR279     -0.2866
    109  N         16.7550   -3.9290   25.7500 N.am  280  MET280     -0.1977
    110  CA        17.3210   -4.3760   27.0180 C.3   280  MET280      0.1605
    111  C         16.4340   -5.5520   27.4190 C.2   280  MET280      0.2287
    112  O         15.1950   -5.4640   27.2660 O.2   280  MET280     -0.2864
    113  CB        17.2780   -3.2450   28.0640 C.3   280  MET280      0.0413
    114  CG        17.9100   -3.6260   29.4170 C.3   280  MET280      0.0598
    115  SD        18.0690   -2.2100   30.5230 S.3   280  MET280     -0.1393
    116  CE        16.3550   -1.8530   30.9620 C.3   280  MET280      0.0692
    117  N         12.9060   -5.4770   29.2250 N.3   283  GLU283     -0.1245
    118  CA        11.7700   -4.9710   28.4720 C.3   283  GLU283      0.1567
    119  C         10.8800   -6.1040   27.9740 C.2   283  GLU283      0.2260
    120  O          9.6610   -5.9920   28.0340 O.2   283  GLU283     -0.2867
    121  CB        12.2150   -4.1050   27.2990 C.3   283  GLU283      0.0388
    122  CG        12.8410   -2.7890   27.7120 C.3   283  GLU283      0.1160
    123  CD        13.2770   -1.9750   26.4910 C.2   283  GLU283      0.3649
    124  OE1       12.4780   -1.1020   26.0520 O.co2 283  GLU283     -0.2457
    125  OE2       14.3880   -2.2070   25.9660 O.co2 283  GLU283     -0.2457
    126  N         11.9690    5.6940   35.4850 N.3   369  TRP369     -0.1241
    127  CA        12.1180    4.9300   34.2450 C.3   369  TRP369      0.1605
    128  C         13.5160    4.3130   34.0070 C.2   369  TRP369      0.2264
    129  O         13.6420    3.2730   33.3710 O.2   369  TRP369     -0.2867
    130  CB        11.7650    5.8330   33.0650 C.3   369  TRP369      0.0550
    131  CG        10.2930    5.9200   32.8280 C.ar  369  TRP369      0.0003
    132  CD1        9.3230    6.4380   33.6740 C.ar  369  TRP369      0.0946
    133  CD2        9.6170    5.5080   31.6340 C.ar  369  TRP369      0.0152
    134  NE1        8.0810    6.3400   33.0630 N.ar  369  TRP369     -0.2442
    135  CE2        8.2360    5.7810   31.8160 C.ar  369  TRP369      0.0810
    136  CE3       10.0470    4.9390   30.4270 C.ar  369  TRP369      0.0012
    137  CZ2        7.2800    5.4940   30.8320 C.ar  369  TRP369      0.0191
    138  CZ3        9.0900    4.6400   29.4430 C.ar  369  TRP369      0.0001
    139  CH2        7.7180    4.9240   29.6620 C.ar  369  TRP369      0.0015
    140  N          5.2060   12.8190   23.8270 N.3   397  TYR397     -0.1241
    141  CA         3.9720   12.0910   23.5780 C.3   397  TYR397      0.1605
    142  C          2.9820   12.9760   22.8160 C.2   397  TYR397      0.2264
    143  O          3.1240   14.1880   22.7890 O.2   397  TYR397     -0.2867
    144  CB         3.3520   11.6750   24.8980 C.3   397  TYR397      0.0534
    145  CG         4.1980   10.7090   25.6850 C.ar  397  TYR397     -0.0201
    146  CD1        4.8520   11.1180   26.8490 C.ar  397  TYR397     -0.0009
    147  CD2        4.3310    9.3840   25.2830 C.ar  397  TYR397     -0.0009
    148  CE1        5.6130   10.2270   27.5860 C.ar  397  TYR397      0.0417
    149  CE2        5.0950    8.4880   26.0160 C.ar  397  TYR397      0.0417
    150  CZ         5.7230    8.9180   27.1600 C.ar  397  TYR397      0.1957
    151  OH         6.4700    8.0280   27.8880 O.3   397  TYR397     -0.2866
@<TRIPOS>BOND
     1    78    77    1
     2    62    63    1
     3    77    74    1
     4    63    64    1
     5    63    66    1
     6    26    25    2
     7    25    24    1
     8    73    64   am
     9    73    74    1
    10    64    65    2
    11    66    67    1
    12    74    75    1
    13    76    75    2
    14    42    41    2
    15    57    56    2
    16    75    79   am
    17    17    18    1
    18    41    40    1
    19    24    23    1
    20    24    27    1
    21    46    47    1
    22    82    81    2
    23    67    69   ar
    24    67    68   ar
    25    23    19   am
    26    69    71   ar
    27    47    48    1
    28    47    50    1
    29    79    80    1
    30    39    40    1
    31    35    34    2
    32    56    55    1
    33    34    33    1
    34    19    18    1
    35    19    20    2
    36    32    38    1
    37    32    33    1
    38    27    28    1
    39    18    21    1
    40    80    81    1
    41    48    54   am
    42    48    49    2
    43    40    43    1
    44    54    55    1
    45    81    83   am
    46    95    93   ar
    47    95    96   ar
    48    50    51    1
    49    68    70   ar
    50    93    90   ar
    51    38    37    1
    52    71    72   ar
    53    33    36    1
    54    55    58    1
    55    43    44    1
    56    43    45    1
    57    21    22    1
    58    83    84    1
    59    28    29    1
    60    96    94   ar
    61    87    84    1
    62    87    88    1
    63    58    59    1
    64    70    72   ar
    65    51    53   am
    66    51    52    2
    67    37    36    1
    68    84    85    1
    69    30    29    2
    70    90    88   ar
    71    90    92   ar
    72    29    31   am
    73    88    89   ar
    74    59    60    1
    75    94    92   ar
    76    92    91   ar
    77   105   103   ar
    78   105   107   ar
    79    85    97   am
    80    85    86    2
    81   103   102   ar
    82   108   107    1
    83    97    98    1
    84    89    91   ar
    85   107   106   ar
    86    60    61    1
    87   143   142    2
    88   142   141    1
    89   102   101    1
    90   102   104   ar
    91   101    98    1
    92    98    99    1
    93   106   104   ar
    94   141   140    1
    95   141   144    1
    96   100    99    2
    97    99   109   am
    98   144   145    1
    99   147   145   ar
   100   147   149   ar
   101   145   146   ar
   102   109   110    1
   103   125   123   ar
   104   149   150   ar
   105   124   123   ar
   106   123   122    1
   107   146   148   ar
   108   110   111    1
   109   110   113    1
   110   150   148   ar
   111   150   151    1
   112   112   111    2
   113   121   122    1
   114   121   118    1
   115   119   120    2
   116   119   118    1
   117   113   114    1
   118   118   117    1
   119    16    14    1
   120    15    14    1
   121   114   115    1
   122   138   139   ar
   123   138   136   ar
   124    14    13    1
   125   139   137   ar
   126    13    10    1
   127   136   133   ar
   128   115   116    1
   129   137   135   ar
   130     8     7    1
   131    10    11    1
   132    10     9    1
   133     4     3    2
   134   133   135   ar
   135   133   131   ar
   136   135   134   ar
   137    11    12    2
   138     9     3   am
   139     3     2    1
   140     7     6    1
   141     5     2    1
   142     5     6    1
   143   131   130    1
   144   131   132   ar
   145   134   132   ar
   146   130   127    1
   147     2     1    1
   148   129   128    2
   149   128   127    1
   150   127   126    1
