@<TRIPOS>MOLECULE
tmp/4jshB03.pdb
 176 171 0 0 0
SMALL
GASTEIGER

@<TRIPOS>ATOM
      1  N         17.8270   12.2800   47.4200 N.3    38  MET38      -0.1245
      2  CA        17.6960   11.5730   48.6960 C.3    38  MET38       0.1570
      3  C         17.3490   12.4550   49.9030 C.2    38  MET38       0.2261
      4  O         16.3930   12.1550   50.6210 O.2    38  MET38      -0.2867
      5  CB        18.9650   10.7570   48.9760 C.3    38  MET38       0.0387
      6  CG        18.9060   10.0140   50.2960 C.3    38  MET38       0.0595
      7  SD        19.8660    8.4930   50.3480 S.3    38  MET38      -0.1393
      8  CE        20.2960    8.5300   52.0940 C.3    38  MET38       0.0692
      9  N          7.2680    5.5560   53.3190 N.3   117  CYS117     -0.1235
     10  CA         7.0670    4.3400   54.1430 C.3   117  CYS117      0.1677
     11  C          5.9610    3.4700   53.5840 C.2   117  CYS117      0.2270
     12  O          4.7690    3.8930   53.4900 O.2   117  CYS117     -0.2867
     13  CB         6.7180    4.6920   55.5930 C.3   117  CYS117      0.0956
     14  SG         6.5670    3.2420   56.6780 S.3   117  CYS117     -0.0801
     15  N         20.3100    3.7590   64.0530 N.3   180  GLN180     -0.1245
     16  CA        19.3030    2.7880   64.5070 C.3   180  GLN180      0.1566
     17  C         19.7040    2.3650   65.9200 C.2   180  GLN180      0.2260
     18  O         20.8610    2.5590   66.2820 O.2   180  GLN180     -0.2867
     19  CB        19.2250    1.5750   63.5750 C.3   180  GLN180      0.0367
     20  CG        18.7260    1.8510   62.1630 C.3   180  GLN180      0.0905
     21  CD        18.8770    0.6320   61.2170 C.2   180  GLN180      0.2608
     22  OE1       18.6670   -0.5230   61.6050 O.2   180  GLN180     -0.2717
     23  NE2       19.2380    0.9000   59.9700 N.am  180  GLN180     -0.0878
     24  N         22.5790   -2.0680   65.7090 N.3   183  ARG183     -0.1245
     25  CA        23.4030   -2.0240   64.5160 C.3   183  ARG183      0.1563
     26  C         24.7930   -2.6340   64.7420 C.2   183  ARG183      0.2260
     27  O         25.3940   -2.5110   65.8220 O.2   183  ARG183     -0.2867
     28  CB        23.6090   -0.5900   64.0490 C.3   183  ARG183      0.0307
     29  CG        22.4790   -0.0040   63.2400 C.3   183  ARG183      0.0489
     30  CD        22.8890    1.1060   62.2870 C.3   183  ARG183      0.2205
     31  NE        22.8430    0.5920   60.9210 N.pl3 183  ARG183     -0.0865
     32  CZ        22.9580    1.3270   59.8180 C.cat 183  ARG183      0.5346
     33  NH1       23.1500    2.6240   59.8830 N.pl3 183  ARG183      0.1354
     34  NH2       22.9170    0.7530   58.6280 N.pl3 183  ARG183      0.1354
     35  N         14.0500   -3.5310   63.5590 N.3   267  PRO267     -0.2116
     36  CA        14.4200   -2.3100   62.9000 C.3   267  PRO267      0.1372
     37  C         13.9240   -1.1170   63.7380 C.2   267  PRO267      0.2244
     38  O         12.7120   -1.0000   63.9720 O.2   267  PRO267     -0.2868
     39  CB        13.6580   -2.3920   61.5710 C.3   267  PRO267      0.0268
     40  CG        12.4380   -3.2080   61.8630 C.3   267  PRO267      0.0207
     41  CD        12.8220   -4.1270   62.9900 C.3   267  PRO267      0.0892
     42  N         14.6370    3.0360   64.1160 N.3   269  VAL269     -0.1245
     43  CA        15.3140    4.2250   63.5990 C.3   269  VAL269      0.1561
     44  C         15.3840    5.2980   64.6380 C.2   269  VAL269      0.2260
     45  O         14.3770    5.6220   65.2720 O.2   269  VAL269     -0.2867
     46  CB        14.6510    4.7440   62.3210 C.3   269  VAL269      0.0252
     47  CG1       15.2620    6.0840   61.9090 C.3   269  VAL269      0.0019
     48  CG2       14.7840    3.6870   61.2190 C.3   269  VAL269      0.0019
     49  N         17.5490    8.4220   64.4350 N.3   271  ASN271     -0.1225
     50  CA        18.1310    9.7260   64.0900 C.3   271  ASN271      0.1785
     51  C         17.1670   10.7560   63.5090 C.2   271  ASN271      0.2597
     52  O         17.5590   11.8510   63.1320 O.2   271  ASN271     -0.2718
     53  CB        19.3730    9.5830   63.1850 C.3   271  ASN271      0.1169
     54  CG        19.1150    8.7710   61.9300 C.2   271  ASN271      0.2627
     55  OD1       17.9930    8.5820   61.4920 O.2   271  ASN271     -0.2716
     56  ND2       20.1910    8.2920   61.3360 N.am  271  ASN271     -0.0877
     57  N         15.8950   10.4280   63.4360 N.am  272  MET272     -0.1979
     58  CA        15.0050   11.3960   62.8120 C.3   272  MET272      0.1605
     59  C         14.4020   12.3850   63.8040 C.2   272  MET272      0.2287
     60  O         14.5050   12.1990   65.0190 O.2   272  MET272     -0.2864
     61  CB        14.0210   10.7000   61.8780 C.3   272  MET272      0.0413
     62  CG        14.7370   10.1130   60.6540 C.3   272  MET272      0.0598
     63  SD        13.4800    9.4690   59.5530 S.3   272  MET272     -0.1393
     64  CE        13.0880   10.9200   58.5510 C.3   272  MET272      0.0692
     65  N         11.7920    5.2240   66.7850 N.3   286  PHE286     -0.1227
     66  CA        10.5960    4.4160   66.4990 C.3   286  PHE286      0.1736
     67  C         11.0350    3.1060   65.8630 C.2   286  PHE286      0.2596
     68  O         12.1430    3.0150   65.3110 O.2   286  PHE286     -0.2718
     69  CB         9.6380    5.1590   65.5710 C.3   286  PHE286      0.0547
     70  CG        10.2920    5.7100   64.3200 C.ar  286  PHE286     -0.0202
     71  CD1       10.3120    4.9710   63.1400 C.ar  286  PHE286     -0.0042
     72  CD2       10.8610    6.9830   64.3170 C.ar  286  PHE286     -0.0042
     73  CE1       10.8650    5.4860   61.9770 C.ar  286  PHE286     -0.0003
     74  CE2       11.4450    7.4860   63.1730 C.ar  286  PHE286     -0.0003
     75  CZ        11.4420    6.7330   61.9990 C.ar  286  PHE286     -0.0000
     76  N         10.1830    2.0900   65.9610 N.am  287  SER287     -0.1938
     77  CA        10.5520    0.7490   65.5440 C.3   287  SER287      0.2055
     78  C          9.3190    0.0310   65.0160 C.2   287  SER287      0.2644
     79  O          8.1970    0.3940   65.3540 O.2   287  SER287     -0.2714
     80  CB        11.1740   -0.0540   66.7150 C.3   287  SER287      0.2130
     81  OG        10.1700   -0.6310   67.5710 O.3   287  SER287     -0.2179
     82  N          9.5560   -1.0020   64.2040 N.am  288  GLY288     -0.1939
     83  CA         8.5060   -1.7370   63.5300 C.3   288  GLY288      0.2014
     84  C          8.9120   -3.1910   63.3700 C.2   288  GLY288      0.2639
     85  O          9.2940   -3.8240   64.3340 O.2   288  GLY288     -0.2714
     86  N          8.7600   -3.7420   62.1720 N.am  289  TRP289     -0.1959
     87  CA         9.3350   -5.0240   61.8200 C.3   289  TRP289      0.1771
     88  C          9.8190   -4.9420   60.3620 C.2   289  TRP289      0.2620
     89  O          9.3800   -4.0610   59.6000 O.2   289  TRP289     -0.2715
     90  CB         8.3510   -6.1550   61.9930 C.3   289  TRP289      0.0590
     91  CG         7.0760   -5.9390   61.2870 C.ar  289  TRP289      0.0006
     92  CD1        6.8330   -6.0980   59.9310 C.ar  289  TRP289      0.0946
     93  CD2        5.8470   -5.5210   61.8630 C.ar  289  TRP289      0.0152
     94  NE1        5.5290   -5.8080   59.6500 N.ar  289  TRP289     -0.2442
     95  CE2        4.8940   -5.4590   60.8170 C.ar  289  TRP289      0.0810
     96  CE3        5.4310   -5.2380   63.1730 C.ar  289  TRP289      0.0012
     97  CZ2        3.5580   -5.1000   61.0460 C.ar  289  TRP289      0.0191
     98  CZ3        4.0890   -4.8860   63.3950 C.ar  289  TRP289      0.0001
     99  CH2        3.1800   -4.8240   62.3390 C.ar  289  TRP289      0.0015
    100  N         10.7320   -5.8410   59.9900 N.am  290  TYR290     -0.1960
    101  CA        11.4360   -5.7210   58.7270 C.3   290  TYR290      0.1771
    102  C         10.6260   -6.2800   57.5710 C.2   290  TYR290      0.2619
    103  O          9.9380   -7.3100   57.7110 O.2   290  TYR290     -0.2715
    104  CB        12.7410   -6.4990   58.7790 C.3   290  TYR290      0.0574
    105  CG        13.9730   -5.7230   59.1590 C.ar  290  TYR290     -0.0198
    106  CD1       14.6810   -6.0270   60.3190 C.ar  290  TYR290     -0.0009
    107  CD2       14.4780   -4.7380   58.3210 C.ar  290  TYR290     -0.0009
    108  CE1       15.8440   -5.3610   60.6410 C.ar  290  TYR290      0.0417
    109  CE2       15.6510   -4.0740   58.6270 C.ar  290  TYR290      0.0417
    110  CZ        16.3220   -4.3800   59.7920 C.ar  290  TYR290      0.1957
    111  OH        17.4770   -3.6980   60.0830 O.3   290  TYR290     -0.2866
    112  N         10.7360   -5.5890   56.4360 N.am  291  MET291     -0.1977
    113  CA        10.5170   -6.1590   55.1120 C.3   291  MET291      0.1605
    114  C         11.8190   -6.8380   54.6960 C.2   291  MET291      0.2287
    115  O         12.8880   -6.2550   54.8180 O.2   291  MET291     -0.2864
    116  CB        10.1430   -5.0570   54.1200 C.3   291  MET291      0.0413
    117  CG         9.9120   -5.5580   52.6960 C.3   291  MET291      0.0598
    118  SD         8.9490   -4.4410   51.6530 S.3   291  MET291     -0.1393
    119  CE        10.2370   -3.2340   51.2840 C.3   291  MET291      0.0692
    120  N         15.0080   -5.2820   53.0280 N.3   294  GLU294     -0.1245
    121  CA        15.7740   -4.2700   53.7160 C.3   294  GLU294      0.1567
    122  C         17.0960   -4.8750   54.2300 C.2   294  GLU294      0.2260
    123  O         18.0850   -4.1780   54.3240 O.2   294  GLU294     -0.2867
    124  CB        14.9850   -3.6510   54.8600 C.3   294  GLU294      0.0388
    125  CG        13.7550   -2.8140   54.4690 C.3   294  GLU294      0.1160
    126  CD        13.0090   -2.2850   55.7130 C.2   294  GLU294      0.3649
    127  OE1       13.2130   -1.1220   56.0830 O.co2 294  GLU294     -0.2457
    128  OE2       12.2590   -3.0370   56.3660 O.co2 294  GLU294     -0.2457
    129  N         19.5830   -4.7850   50.5240 N.3   298  ARG298     -0.1245
    130  CA        20.3690   -3.5960   50.8980 C.3   298  ARG298      0.1563
    131  C         21.5050   -3.9440   51.8840 C.2   298  ARG298      0.2260
    132  O         22.7090   -3.6990   51.5900 O.2   298  ARG298     -0.2867
    133  CB        19.4530   -2.4850   51.4910 C.3   298  ARG298      0.0307
    134  CG        18.1360   -2.1800   50.7150 C.3   298  ARG298      0.0489
    135  CD        18.3220   -1.8020   49.2370 C.3   298  ARG298      0.2205
    136  NE        19.4140   -0.8480   49.0820 N.pl3 298  ARG298     -0.0865
    137  CZ        19.3450    0.4380   49.4220 C.cat 298  ARG298      0.5346
    138  NH1       18.2010    0.9620   49.8770 N.pl3 298  ARG298      0.1354
    139  NH2       20.4210    1.2090   49.2910 N.pl3 298  ARG298      0.1354
    140  N         27.9300   -2.2610   51.3670 N.3   305  ARG305     -0.1245
    141  CA        27.5580   -2.9610   52.6280 C.3   305  ARG305      0.1563
    142  C         28.2850   -4.3390   52.7970 C.2   305  ARG305      0.2260
    143  O         29.4470   -4.4610   52.4130 O.2   305  ARG305     -0.2867
    144  CB        26.0250   -3.0360   52.7490 C.3   305  ARG305      0.0307
    145  CG        25.3140   -1.6950   52.5170 C.3   305  ARG305      0.0489
    146  CD        25.3740   -0.6670   53.6630 C.3   305  ARG305      0.2205
    147  NE        25.0580   -1.1560   55.0400 N.pl3 305  ARG305     -0.0865
    148  CZ        23.8390   -1.5040   55.5030 C.cat 305  ARG305      0.5346
    149  NH1       22.7720   -1.4660   54.7050 N.pl3 305  ARG305      0.1354
    150  NH2       23.6830   -1.9220   56.7730 N.pl3 305  ARG305      0.1354
    151  N         10.9320    5.4920   46.6690 N.3   380  TRP380     -0.1241
    152  CA        11.1390    4.7340   47.9040 C.3   380  TRP380      0.1605
    153  C         10.1710    3.5920   48.1550 C.2   380  TRP380      0.2264
    154  O         10.5890    2.5330   48.6450 O.2   380  TRP380     -0.2867
    155  CB        11.1270    5.6770   49.0940 C.3   380  TRP380      0.0550
    156  CG        12.4210    6.3950   49.2740 C.ar  380  TRP380      0.0003
    157  CD1       13.0310    7.3020   48.3910 C.ar  380  TRP380      0.0946
    158  CD2       13.2930    6.2680   50.3960 C.ar  380  TRP380      0.0152
    159  NE1       14.2080    7.7260   48.9280 N.ar  380  TRP380     -0.2442
    160  CE2       14.3980    7.1180   50.1580 C.ar  380  TRP380      0.0810
    161  CE3       13.2400    5.5320   51.6000 C.ar  380  TRP380      0.0012
    162  CZ2       15.4490    7.2480   51.0840 C.ar  380  TRP380      0.0191
    163  CZ3       14.3100    5.6510   52.5240 C.ar  380  TRP380      0.0001
    164  CH2       15.3810    6.5070   52.2550 C.ar  380  TRP380      0.0015
    165  N         14.6220   14.6270   58.5470 N.3   408  TYR408     -0.1241
    166  CA        16.0100   14.3080   58.7520 C.3   408  TYR408      0.1605
    167  C         16.5870   15.4720   59.5110 C.2   408  TYR408      0.2264
    168  O         16.0050   16.5520   59.5340 O.2   408  TYR408     -0.2867
    169  CB        16.7380   14.0780   57.4310 C.3   408  TYR408      0.0534
    170  CG        16.4610   12.7250   56.8010 C.ar  408  TYR408     -0.0201
    171  CD1       15.5860   12.6060   55.7150 C.ar  408  TYR408     -0.0009
    172  CD2       17.0670   11.5630   57.2880 C.ar  408  TYR408     -0.0009
    173  CE1       15.3350   11.3740   55.1220 C.ar  408  TYR408      0.0417
    174  CE2       16.8260   10.3320   56.7040 C.ar  408  TYR408      0.0417
    175  CZ        15.9580   10.2410   55.6150 C.ar  408  TYR408      0.1957
    176  OH        15.7150    9.0090   55.0150 O.3   408  TYR408     -0.2866
@<TRIPOS>BOND
     1   151   152    1
     2     1     2    1
     3   152   153    1
     4   152   155    1
     5   153   154    2
     6   157   159   ar
     7   157   156   ar
     8     2     5    1
     9     2     3    1
    10   159   160   ar
    11     5     6    1
    12   136   135    1
    13   136   137    2
    14   155   156    1
    15   135   134    1
    16   156   158   ar
    17   139   137    1
    18   137   138    1
    19     3     4    2
    20   160   158   ar
    21   160   162   ar
    22     6     7    1
    23     7     8    1
    24   158   161   ar
    25   129   130    1
    26   134   133    1
    27   130   133    1
    28   130   131    1
    29   162   164   ar
    30   119   118    1
    31   140   141    1
    32   132   131    2
    33   161   163   ar
    34   118   117    1
    35   164   163   ar
    36   143   142    2
    37   145   144    1
    38   145   146    1
    39   141   144    1
    40   141   142    1
    41   117   116    1
    42   120   121    1
    43     9    10    1
    44    12    11    2
    45    11    10    1
    46   146   147    1
    47   121   122    1
    48   121   124    1
    49   116   113    1
    50    10    13    1
    51   122   123    2
    52   125   124    1
    53   125   126    1
    54   114   115    2
    55   114   113    1
    56   149   148    1
    57   176   175    1
    58   147   148    2
    59   113   112    1
    60   173   175   ar
    61   173   171   ar
    62   148   150    1
    63    13    14    1
    64   175   174   ar
    65   126   127   ar
    66   126   128   ar
    67   171   170   ar
    68   112   102   am
    69   174   172   ar
    70   170   172   ar
    71   170   169    1
    72   169   166    1
    73   102   103    2
    74   102   101    1
    75   107   109   ar
    76   107   105   ar
    77   165   166    1
    78    64    63    1
    79   109   110   ar
    80    34    32    1
    81   101   104    1
    82   101   100    1
    83   166   167    1
    84   104   105    1
    85   105   106   ar
    86   167   168    2
    87    63    62    1
    88    89    88    2
    89    94    92   ar
    90    94    95   ar
    91   110   111    1
    92   110   108   ar
    93    32    33    1
    94    32    31    2
    95    92    91   ar
    96    23    21   am
    97   100    88   am
    98   106   108   ar
    99    88    87    1
   100    62    61    1
   101    95    97   ar
   102    95    93   ar
   103    31    30    1
   104    97    99   ar
   105    21    22    2
   106    21    20    1
   107    48    46    1
   108    91    93   ar
   109    91    90    1
   110    56    54   am
   111    55    54    2
   112    39    40    1
   113    39    36    1
   114    87    90    1
   115    87    86    1
   116    40    41    1
   117    93    96   ar
   118    61    58    1
   119    47    46    1
   120    54    53    1
   121    73    75   ar
   122    73    71   ar
   123    75    74   ar
   124    20    19    1
   125    86    84   am
   126    30    29    1
   127    46    43    1
   128    99    98   ar
   129    58    57    1
   130    58    59    1
   131    36    35    1
   132    36    37    1
   133    41    35    1
   134    52    51    2
   135    71    70   ar
   136    96    98   ar
   137    74    72   ar
   138    53    50    1
   139    29    28    1
   140    84    83    1
   141    84    85    2
   142    57    51   am
   143    51    50    1
   144    83    82    1
   145    19    16    1
   146    43    42    1
   147    43    44    1
   148    37    38    2
   149    59    60    2
   150    28    25    1
   151    15    16    1
   152    50    49    1
   153    82    78   am
   154    72    70   ar
   155    70    69    1
   156    16    17    1
   157    25    26    1
   158    25    24    1
   159    44    45    2
   160    26    27    2
   161    78    79    2
   162    78    77    1
   163    68    67    2
   164    77    76    1
   165    77    80    1
   166    69    66    1
   167    67    76   am
   168    67    66    1
   169    17    18    2
   170    66    65    1
   171    80    81    1
