@<TRIPOS>MOLECULE
tmp/4jsjA02.pdb
 173 170 0 0 0
SMALL
GASTEIGER

@<TRIPOS>ATOM
      1  N          2.7640    9.0760   34.8090 N.3    38  MET38      -0.1230
      2  CA         3.1630    8.7650   33.4190 C.3    38  MET38       0.1702
      3  C          3.1360    9.9930   32.4660 C.2    38  MET38       0.2592
      4  O          4.1300   10.2320   31.7650 O.2    38  MET38      -0.2718
      5  CB         2.3510    7.5960   32.8610 C.3    38  MET38       0.0401
      6  CG         2.5170    6.3550   33.7230 C.3    38  MET38       0.0596
      7  SD         2.4950    4.7750   32.8390 S.3    38  MET38      -0.1393
      8  CE         4.0940    4.8710   32.0410 C.3    38  MET38       0.0692
      9  N          2.0510   10.7690   32.4840 N.am   39  LEU39      -0.1980
     10  CA         2.0230   12.0990   31.8310 C.3    39  LEU39       0.1596
     11  C          1.4290   13.2000   32.7140 C.2    39  LEU39       0.2287
     12  O          0.2050   13.2900   32.8570 O.2    39  LEU39      -0.2864
     13  CB         1.3030   12.0700   30.4800 C.3    39  LEU39       0.0297
     14  CG         1.5140   13.2540   29.4830 C.3    39  LEU39       0.0022
     15  CD1        0.5620   14.3860   29.7820 C.3    39  LEU39       0.0001
     16  CD2        2.9840   13.7890   29.3760 C.3    39  LEU39       0.0001
     17  N          1.7730    1.7400   17.7850 N.3   168  SER168     -0.1202
     18  CA         2.5470    2.2700   18.9000 C.3   168  SER168      0.2020
     19  C          4.0020    1.8960   18.7040 C.2   168  SER168      0.2618
     20  O          4.8730    2.7100   19.0020 O.2   168  SER168     -0.2717
     21  CB         2.0060    1.7560   20.2450 C.3   168  SER168      0.2103
     22  OG         2.0130    0.3390   20.2710 O.3   168  SER168     -0.2182
     23  N          4.2740    0.7000   18.1610 N.am  169  GLN169     -0.1979
     24  CA         5.6780    0.3300   17.7150 C.3   169  GLN169      0.1601
     25  C          5.4810   -0.2650   16.3330 C.2   169  GLN169      0.2287
     26  O          4.3690   -0.7230   16.0400 O.2   169  GLN169     -0.2864
     27  CB         6.3160   -0.7320   18.6090 C.3   169  GLN169      0.0394
     28  CG         6.6820   -0.2760   20.0050 C.3   169  GLN169      0.0908
     29  CD         7.0930   -1.4580   20.9070 C.2   169  GLN169      0.2608
     30  OE1        7.8710   -2.3350   20.4950 O.2   169  GLN169     -0.2717
     31  NE2        6.5370   -1.4950   22.1340 N.am  169  GLN169     -0.0878
     32  N          4.6520   -5.1360   16.6410 N.3   172  ARG172     -0.1245
     33  CA         3.9580   -5.5780   17.8700 C.3   172  ARG172      0.1563
     34  C          3.0110   -6.7350   17.5290 C.2   172  ARG172      0.2260
     35  O          2.7190   -6.9650   16.3540 O.2   172  ARG172     -0.2867
     36  CB         3.1400   -4.4460   18.5220 C.3   172  ARG172      0.0307
     37  CG         3.9650   -3.4060   19.2490 C.3   172  ARG172      0.0489
     38  CD         3.1450   -2.5720   20.2410 C.3   172  ARG172      0.2205
     39  NE         3.2160   -3.1140   21.5890 N.pl3 172  ARG172     -0.0865
     40  CZ         2.6990   -2.5180   22.6650 C.cat 172  ARG172      0.5346
     41  NH1        2.0900   -1.3420   22.5510 N.pl3 172  ARG172      0.1354
     42  NH2        2.8030   -3.0900   23.8660 N.pl3 172  ARG172      0.1354
     43  N         13.0440   -3.1060   18.6670 N.3   256  PRO256     -0.2116
     44  CA        12.1100   -2.2260   19.3760 C.3   256  PRO256      0.1372
     45  C         12.0240   -0.8760   18.6360 C.2   256  PRO256      0.2244
     46  O         13.0330   -0.2050   18.4480 O.2   256  PRO256     -0.2868
     47  CB        12.7280   -2.0900   20.7840 C.3   256  PRO256      0.0268
     48  CG        14.2500   -2.2500   20.5380 C.3   256  PRO256      0.0207
     49  CD        14.3800   -3.1790   19.3060 C.3   256  PRO256      0.0892
     50  N          9.7200    2.5030   18.3680 N.3   258  VAL258     -0.1245
     51  CA         8.6490    3.3490   18.8160 C.3   258  VAL258      0.1561
     52  C          8.1810    4.1960   17.6650 C.2   258  VAL258      0.2260
     53  O          8.9660    4.9040   17.0620 O.2   258  VAL258     -0.2867
     54  CB         9.1060    4.2580   19.9910 C.3   258  VAL258      0.0252
     55  CG1        8.0360    5.2950   20.3220 C.3   258  VAL258      0.0019
     56  CG2        9.3880    3.4160   21.2170 C.3   258  VAL258      0.0019
     57  N          4.8510    6.1170   17.7660 N.3   260  ASN260     -0.1225
     58  CA         3.7060    7.0160   18.0190 C.3   260  ASN260      0.1785
     59  C          4.0700    8.3440   18.6900 C.2   260  ASN260      0.2597
     60  O          3.1870    9.0780   19.1120 O.2   260  ASN260     -0.2718
     61  CB         2.5820    6.3120   18.8210 C.3   260  ASN260      0.1169
     62  CG         3.0470    5.8150   20.2000 C.2   260  ASN260      0.2627
     63  OD1        2.2730    5.2160   20.9510 O.2   260  ASN260     -0.2716
     64  ND2        4.3140    6.0320   20.5230 N.am  260  ASN260     -0.0877
     65  N          5.3610    8.6380   18.7970 N.am  261  MET261     -0.1979
     66  CA         5.8100    9.8780   19.4440 C.3   261  MET261      0.1605
     67  C          5.9960   11.0310   18.4590 C.2   261  MET261      0.2287
     68  O          5.9390   10.8300   17.2470 O.2   261  MET261     -0.2864
     69  CB         7.0830    9.5920   20.2630 C.3   261  MET261      0.0413
     70  CG         6.7340    8.7580   21.5390 C.3   261  MET261      0.0598
     71  SD         8.0860    8.6290   22.6580 S.3   261  MET261     -0.1393
     72  CE         7.8880   10.0930   23.6830 C.3   261  MET261      0.0692
     73  N         11.3770    5.4720   15.4790 N.3   275  PHE275     -0.1227
     74  CA        12.7890    5.3140   15.8070 C.3   275  PHE275      0.1736
     75  C         13.0530    3.9800   16.5460 C.2   275  PHE275      0.2596
     76  O         12.2080    3.4870   17.2500 O.2   275  PHE275     -0.2718
     77  CB        13.2570    6.5350   16.6050 C.3   275  PHE275      0.0547
     78  CG        12.5080    6.7690   17.9030 C.ar  275  PHE275     -0.0202
     79  CD1       12.8100    6.0240   19.0450 C.ar  275  PHE275     -0.0042
     80  CD2       11.5190    7.7490   17.9930 C.ar  275  PHE275     -0.0042
     81  CE1       12.1400    6.2720   20.2660 C.ar  275  PHE275     -0.0003
     82  CE2       10.8510    7.9940   19.2150 C.ar  275  PHE275     -0.0003
     83  CZ        11.1620    7.2610   20.3440 C.ar  275  PHE275     -0.0000
     84  N         14.2590    3.4170   16.4140 N.am  276  SER276     -0.1938
     85  CA        14.4980    2.0960   16.8900 C.3   276  SER276      0.2055
     86  C         15.9350    2.0130   17.3930 C.2   276  SER276      0.2644
     87  O         16.8050    2.7200   16.9100 O.2   276  SER276     -0.2714
     88  CB        14.2940    1.0520   15.7520 C.3   276  SER276      0.2130
     89  OG        15.1470    1.2800   14.6080 O.3   276  SER276     -0.2179
     90  N         16.1520    1.1490   18.3820 N.am  277  GLY277     -0.1939
     91  CA        17.5210    0.8630   18.8490 C.3   277  GLY277      0.2014
     92  C         17.6000   -0.6430   18.9730 C.2   277  GLY277      0.2639
     93  O         17.3840   -1.3520   18.0100 O.2   277  GLY277     -0.2714
     94  N         17.9330   -1.1260   20.1640 N.am  278  TRP278     -0.1959
     95  CA        17.8690   -2.5590   20.4870 C.3   278  TRP278      0.1771
     96  C         17.3990   -2.7330   21.9480 C.2   278  TRP278      0.2620
     97  O         17.3940   -1.7840   22.7370 O.2   278  TRP278     -0.2715
     98  CB        19.2180   -3.2130   20.2970 C.3   278  TRP278      0.0590
     99  CG        20.3900   -2.5600   21.0190 C.ar  278  TRP278      0.0006
    100  CD1       20.7280   -2.6960   22.3480 C.ar  278  TRP278      0.0946
    101  CD2       21.3720   -1.7080   20.4430 C.ar  278  TRP278      0.0152
    102  NE1       21.8450   -1.9670   22.6280 N.ar  278  TRP278     -0.2442
    103  CE2       22.2820   -1.3610   21.4770 C.ar  278  TRP278      0.0810
    104  CE3       21.5930   -1.2150   19.1450 C.ar  278  TRP278      0.0012
    105  CZ2       23.3930   -0.5310   21.2550 C.ar  278  TRP278      0.0191
    106  CZ3       22.6940   -0.3940   18.9210 C.ar  278  TRP278      0.0001
    107  CH2       23.5960   -0.0720   19.9710 C.ar  278  TRP278      0.0015
    108  N         17.0120   -3.9480   22.2970 N.am  279  TYR279     -0.1960
    109  CA        16.3470   -4.2140   23.5790 C.3   279  TYR279      0.1771
    110  C         17.3030   -4.3220   24.7410 C.2   279  TYR279      0.2619
    111  O         18.4260   -4.8330   24.6110 O.2   279  TYR279     -0.2715
    112  CB        15.5590   -5.5230   23.5010 C.3   279  TYR279      0.0574
    113  CG        14.0990   -5.3620   23.1200 C.ar  279  TYR279     -0.0198
    114  CD1       13.5930   -5.9600   21.9630 C.ar  279  TYR279     -0.0009
    115  CD2       13.2250   -4.6420   23.9270 C.ar  279  TYR279     -0.0009
    116  CE1       12.2540   -5.8320   21.6160 C.ar  279  TYR279      0.0417
    117  CE2       11.8630   -4.5360   23.6060 C.ar  279  TYR279      0.0417
    118  CZ        11.3990   -5.1300   22.4360 C.ar  279  TYR279      0.1957
    119  OH        10.0650   -5.0170   22.1040 O.3   279  TYR279     -0.2866
    120  N         16.8550   -3.8330   25.8930 N.am  280  MET280     -0.1977
    121  CA        17.4590   -4.2590   27.1590 C.3   280  MET280      0.1605
    122  C         16.6020   -5.4490   27.5570 C.2   280  MET280      0.2287
    123  O         15.3890   -5.3690   27.4220 O.2   280  MET280     -0.2864
    124  CB        17.3890   -3.1020   28.1700 C.3   280  MET280      0.0413
    125  CG        17.9800   -3.4650   29.5700 C.3   280  MET280      0.0598
    126  SD        18.2530   -2.0280   30.6250 S.3   280  MET280     -0.1393
    127  CE        16.5480   -1.5760   30.9380 C.3   280  MET280      0.0692
    128  N         12.9710   -5.4120   29.3530 N.3   283  GLU283     -0.1245
    129  CA        11.7640   -4.9290   28.6650 C.3   283  GLU283      0.1567
    130  C         10.8610   -6.0760   28.2150 C.2   283  GLU283      0.2260
    131  O          9.6440   -6.0080   28.4050 O.2   283  GLU283     -0.2867
    132  CB        12.0780   -4.0240   27.4620 C.3   283  GLU283      0.0388
    133  CG        12.9220   -2.7880   27.7930 C.3   283  GLU283      0.1160
    134  CD        13.2840   -2.0090   26.5350 C.2   283  GLU283      0.3649
    135  OE1       12.3890   -1.2750   26.0050 O.co2 283  GLU283     -0.2457
    136  OE2       14.4370   -2.1570   26.0530 O.co2 283  GLU283     -0.2457
    137  N         -0.0920   -7.7740   30.6820 N.3   294  ARG294     -0.1245
    138  CA         0.5510   -8.1570   29.4180 C.3   294  ARG294      0.1563
    139  C          0.4610   -9.6850   29.2520 C.2   294  ARG294      0.2260
    140  O         -0.6190  -10.2330   29.4800 O.2   294  ARG294     -0.2867
    141  CB         1.9740   -7.6060   29.3140 C.3   294  ARG294      0.0307
    142  CG         2.0360   -6.0950   29.4380 C.3   294  ARG294      0.0489
    143  CD         1.5330   -5.3300   28.2040 C.3   294  ARG294      0.2205
    144  NE         2.2010   -5.7030   26.9560 N.pl3 294  ARG294     -0.0865
    145  CZ         3.4730   -5.4380   26.6480 C.cat 294  ARG294      0.5346
    146  NH1        4.2560   -4.7720   27.4910 N.pl3 294  ARG294      0.1354
    147  NH2        3.9590   -5.8360   25.4680 N.pl3 294  ARG294      0.1354
    148  N         11.9600    5.8520   35.5560 N.3   369  TRP369     -0.1241
    149  CA        12.1690    5.1100   34.2900 C.3   369  TRP369      0.1605
    150  C         13.5190    4.4510   34.0760 C.2   369  TRP369      0.2264
    151  O         13.6080    3.3610   33.5070 O.2   369  TRP369     -0.2867
    152  CB        11.8920    6.0610   33.1280 C.3   369  TRP369      0.0550
    153  CG        10.3950    6.0210   32.8420 C.ar  369  TRP369      0.0003
    154  CD1        9.3620    6.4850   33.6440 C.ar  369  TRP369      0.0946
    155  CD2        9.7890    5.4740   31.6660 C.ar  369  TRP369      0.0152
    156  NE1        8.1450    6.2520   33.0050 N.ar  369  TRP369     -0.2442
    157  CE2        8.3900    5.6370   31.7940 C.ar  369  TRP369      0.0810
    158  CE3       10.3050    4.8780   30.4970 C.ar  369  TRP369      0.0012
    159  CZ2        7.4880    5.2100   30.7990 C.ar  369  TRP369      0.0191
    160  CZ3        9.3990    4.4400   29.5020 C.ar  369  TRP369      0.0001
    161  CH2        8.0080    4.6130   29.6700 C.ar  369  TRP369      0.0015
    162  N          5.0260   12.6460   23.9170 N.3   397  TYR397     -0.1241
    163  CA         3.8060   11.8980   23.6350 C.3   397  TYR397      0.1605
    164  C          2.8020   12.7550   22.8680 C.2   397  TYR397      0.2264
    165  O          2.8610   13.9750   22.8840 O.2   397  TYR397     -0.2867
    166  CB         3.1420   11.4080   24.9220 C.3   397  TYR397      0.0534
    167  CG         4.0530   10.5840   25.7980 C.ar  397  TYR397     -0.0201
    168  CD1        4.2890   10.9730   27.1190 C.ar  397  TYR397     -0.0009
    169  CD2        4.6750    9.4150   25.3220 C.ar  397  TYR397     -0.0009
    170  CE1        5.1230   10.2320   27.9570 C.ar  397  TYR397      0.0417
    171  CE2        5.5310    8.6610   26.1600 C.ar  397  TYR397      0.0417
    172  CZ         5.7370    9.0960   27.4840 C.ar  397  TYR397      0.1957
    173  OH         6.5480    8.4150   28.3670 O.3   397  TYR397     -0.2866
@<TRIPOS>BOND
     1    89    88    1
     2    73    74    1
     3    88    85    1
     4    74    75    1
     5    74    77    1
     6    26    25    2
     7    25    24    1
     8    35    34    2
     9    84    75   am
    10    84    85    1
    11    75    76    2
    12    77    78    1
    13    32    33    1
    14    85    86    1
    15    87    86    2
    16    53    52    2
    17    68    67    2
    18    86    90   am
    19    34    33    1
    20    52    51    1
    21    24    23    1
    22    24    27    1
    23    57    58    1
    24    17    18    1
    25    33    36    1
    26    78    80   ar
    27    78    79   ar
    28    80    82   ar
    29    93    92    2
    30    58    59    1
    31    58    61    1
    32    23    19   am
    33    50    51    1
    34    90    91    1
    35    46    45    2
    36    67    66    1
    37    36    37    1
    38    27    28    1
    39    45    44    1
    40    43    49    1
    41    43    44    1
    42    59    65   am
    43    59    60    2
    44    19    18    1
    45    19    20    2
    46    65    66    1
    47    51    54    1
    48    61    62    1
    49    91    92    1
    50    18    21    1
    51   106   104   ar
    52   106   107   ar
    53    92    94   am
    54    79    81   ar
    55   104   101   ar
    56    82    83   ar
    57    37    38    1
    58    49    48    1
    59    44    47    1
    60    66    69    1
    61   107   105   ar
    62    54    55    1
    63    54    56    1
    64    28    29    1
    65    94    95    1
    66    62    64   am
    67    62    63    2
    68    38    39    1
    69    21    22    1
    70    69    70    1
    71    81    83   ar
    72    98    95    1
    73    98    99    1
    74   101    99   ar
    75   101   103   ar
    76    95    96    1
    77    30    29    2
    78    48    47    1
    79    29    31   am
    80    99   100   ar
    81   105   103   ar
    82   103   102   ar
    83    70    71    1
    84    39    40    2
    85   116   114   ar
    86   116   118   ar
    87    96   108   am
    88    96    97    2
    89   114   113   ar
    90   119   118    1
    91   108   109    1
    92   100   102   ar
    93   118   117   ar
    94    41    40    1
    95    71    72    1
    96    40    42    1
    97   164   165    2
    98   164   163    1
    99   113   112    1
   100   113   115   ar
   101   112   109    1
   102   109   110    1
   103   117   115   ar
   104   163   162    1
   105   163   166    1
   106   111   110    2
   107   110   120   am
   108   166   167    1
   109   169   167   ar
   110   169   171   ar
   111   147   145    1
   112   167   168   ar
   113   120   121    1
   114   135   134   ar
   115   136   134   ar
   116   171   172   ar
   117   134   133    1
   118   145   144    2
   119   145   146    1
   120   144   143    1
   121   168   170   ar
   122   121   122    1
   123   121   124    1
   124   123   122    2
   125   132   133    1
   126   132   129    1
   127   172   170   ar
   128   172   173    1
   129   124   125    1
   130   143   142    1
   131   130   131    2
   132   130   129    1
   133   129   128    1
   134   139   138    1
   135   139   140    2
   136   141   138    1
   137   141   142    1
   138    16    14    1
   139   138   137    1
   140    14    15    1
   141    14    13    1
   142   160   161   ar
   143   160   158   ar
   144   125   126    1
   145   161   159   ar
   146    13    10    1
   147   158   155   ar
   148   126   127    1
   149   159   157   ar
   150   155   157   ar
   151   155   153   ar
   152     4     3    2
   153   157   156   ar
   154    10     9    1
   155    10    11    1
   156     8     7    1
   157     3     9   am
   158     3     2    1
   159    11    12    2
   160     7     6    1
   161   153   152    1
   162   153   154   ar
   163     5     2    1
   164     5     6    1
   165   156   154   ar
   166   152   149    1
   167     2     1    1
   168   151   150    2
   169   150   149    1
   170   149   148    1
