@<TRIPOS>MOLECULE
tmp/4jskA02.pdb
 156 154 0 0 0
SMALL
GASTEIGER

@<TRIPOS>ATOM
      1  N         17.1520   11.3520   45.4800 N.3    40  VAL40      -0.1231
      2  CA        16.9140   11.5720   44.0510 C.3    40  VAL40       0.1692
      3  C         18.0240   11.0070   43.1420 C.2    40  VAL40       0.2591
      4  O         17.7150   10.3470   42.1300 O.2    40  VAL40      -0.2718
      5  CB        16.7550   13.0490   43.7780 C.3    40  VAL40       0.0266
      6  CG1       16.4410   13.3300   42.2750 C.3    40  VAL40       0.0020
      7  CG2       15.7300   13.6360   44.7110 C.3    40  VAL40       0.0020
      8  N         19.2970   11.2470   43.5310 N.am   41  LEU41      -0.1980
      9  CA        20.4730   10.7630   42.8110 C.3    41  LEU41       0.1596
     10  C         21.5230   10.0230   43.6560 C.2    41  LEU41       0.2287
     11  O         21.9770   10.5540   44.6590 O.2    41  LEU41      -0.2864
     12  CB        21.2520   11.9430   42.2110 C.3    41  LEU41       0.0297
     13  CG        20.5640   13.0700   41.4420 C.3    41  LEU41       0.0022
     14  CD1       21.4790   14.3010   41.4790 C.3    41  LEU41       0.0001
     15  CD2       20.2000   12.6650   40.0140 C.3    41  LEU41       0.0001
     16  N          8.7360    5.2820   36.8630 N.3   108  CYS108     -0.1235
     17  CA         7.6710    5.5120   35.9320 C.3   108  CYS108      0.1677
     18  C          6.3500    4.7690   36.2380 C.2   108  CYS108      0.2270
     19  O          6.2980    3.5410   36.2090 O.2   108  CYS108     -0.2867
     20  CB         8.1020    5.0490   34.5690 C.3   108  CYS108      0.0956
     21  SG         6.7880    5.4010   33.3420 S.3   108  CYS108     -0.0801
     22  N         17.1560   19.5820   29.2210 N.3   170  SER170     -0.1202
     23  CA        16.6620   18.4450   29.9740 C.3   170  SER170      0.2020
     24  C         15.3890   17.8570   29.3320 C.2   170  SER170      0.2618
     25  O         15.1530   16.6460   29.4060 O.2   170  SER170     -0.2717
     26  CB        16.4180   18.8360   31.4350 C.3   170  SER170      0.2103
     27  OG        15.2010   19.5630   31.5750 O.3   170  SER170     -0.2182
     28  N         14.5820   18.7070   28.7030 N.am  171  GLN171     -0.1979
     29  CA        13.4150   18.2280   27.9770 C.3   171  GLN171      0.1601
     30  C         13.4130   18.9180   26.6360 C.2   171  GLN171      0.2287
     31  O         14.0360   20.0020   26.4830 O.2   171  GLN171     -0.2864
     32  CB        12.1060   18.5470   28.7250 C.3   171  GLN171      0.0394
     33  CG        11.7800   17.6370   29.8890 C.3   171  GLN171      0.0908
     34  CD        10.3920   17.9030   30.5070 C.2   171  GLN171      0.2608
     35  OE1        9.3700   17.9150   29.8120 O.2   171  GLN171     -0.2717
     36  NE2       10.3600   18.0730   31.8300 N.am  171  GLN171     -0.0878
     37  N          5.6240   15.6640   27.0400 N.3   258  PRO258     -0.2116
     38  CA         6.6930   15.4590   27.9950 C.3   258  PRO258      0.1372
     39  C          7.7350   14.5740   27.3680 C.2   258  PRO258      0.2244
     40  O          7.4780   13.3890   27.1210 O.2   258  PRO258     -0.2868
     41  CB         6.0200   14.7440   29.1650 C.3   258  PRO258      0.0268
     42  CG         4.8150   14.0860   28.5630 C.3   258  PRO258      0.0207
     43  CD         4.4050   14.9080   27.3720 C.3   258  PRO258      0.0892
     44  N         11.8380   13.5960   27.5800 N.3   260  VAL260     -0.1245
     45  CA        13.0600   13.7180   28.3750 C.3   260  VAL260      0.1561
     46  C         14.3060   13.5660   27.4880 C.2   260  VAL260      0.2260
     47  O         14.4990   12.5540   26.8220 O.2   260  VAL260     -0.2867
     48  CB        13.1040   12.6560   29.5670 C.3   260  VAL260      0.0252
     49  CG1       14.4340   12.6960   30.3120 C.3   260  VAL260      0.0019
     50  CG2       11.9730   12.8630   30.5410 C.3   260  VAL260      0.0019
     51  N         17.7140   14.2600   28.3840 N.3   262  ASN262     -0.1225
     52  CA        19.0050   14.3110   29.0100 C.3   262  ASN262      0.1785
     53  C         19.4460   12.9750   29.5930 C.2   262  ASN262      0.2597
     54  O         20.5580   12.8900   30.1530 O.2   262  ASN262     -0.2718
     55  CB        19.0750   15.4590   30.0430 C.3   262  ASN262      0.1169
     56  CG        18.2370   15.1970   31.3090 C.2   262  ASN262      0.2627
     57  OD1       17.1740   14.5210   31.2900 O.2   262  ASN262     -0.2716
     58  ND2       18.6960   15.7740   32.4220 N.am  262  ASN262     -0.0877
     59  N         18.5890   11.9440   29.4820 N.am  263  MET263     -0.1979
     60  CA        18.9920   10.6220   29.9750 C.3   263  MET263      0.1605
     61  C         19.8510    9.7970   29.0060 C.2   263  MET263      0.2287
     62  O         19.8340   10.0210   27.7900 O.2   263  MET263     -0.2864
     63  CB        17.8090    9.8390   30.5090 C.3   263  MET263      0.0413
     64  CG        17.1360   10.6330   31.6340 C.3   263  MET263      0.0598
     65  SD        15.9700    9.8580   32.7270 S.3   263  MET263     -0.1393
     66  CE        16.8420    8.5540   33.5390 C.3   263  MET263      0.0692
     67  N         12.9640   10.6310   24.6610 N.3   277  PHE277     -0.1227
     68  CA        11.7310    9.8180   24.6540 C.3   277  PHE277      0.1736
     69  C         10.5580   10.5960   25.2530 C.2   277  PHE277      0.2596
     70  O         10.7650   11.5090   26.0500 O.2   277  PHE277     -0.2718
     71  CB        11.9680    8.5500   25.4640 C.3   277  PHE277      0.0547
     72  CG        12.3870    8.8070   26.9140 C.ar  277  PHE277     -0.0202
     73  CD1       11.4370    8.9840   27.9100 C.ar  277  PHE277     -0.0042
     74  CD2       13.7370    8.8850   27.2700 C.ar  277  PHE277     -0.0042
     75  CE1       11.8060    9.2030   29.2420 C.ar  277  PHE277     -0.0003
     76  CE2       14.1090    9.1090   28.5870 C.ar  277  PHE277     -0.0003
     77  CZ        13.1330    9.2710   29.5730 C.ar  277  PHE277     -0.0000
     78  N          9.3290   10.2190   24.9120 N.am  278  SER278     -0.1938
     79  CA         8.1670   11.0280   25.2640 C.3   278  SER278      0.2055
     80  C          6.9280   10.1480   25.3920 C.2   278  SER278      0.2644
     81  O          6.7910    9.1090   24.6900 O.2   278  SER278     -0.2714
     82  CB         7.9230   12.0830   24.1760 C.3   278  SER278      0.2130
     83  OG         7.7360   11.4680   22.9040 O.3   278  SER278     -0.2179
     84  N          6.0260   10.5560   26.2830 N.am  279  GLY279     -0.1939
     85  CA         4.7480    9.8930   26.4350 C.3   279  GLY279      0.2014
     86  C          3.6340   10.9040   26.4680 C.2   279  GLY279      0.2639
     87  O          3.4390   11.6640   25.5390 O.2   279  GLY279     -0.2714
     88  N          2.8850   10.8900   27.5530 N.am  280  TRP280     -0.1959
     89  CA         1.9030   11.9260   27.8330 C.3   280  TRP280      0.1771
     90  C          1.9200   12.1790   29.3420 C.2   280  TRP280      0.2620
     91  O          2.4310   11.3460   30.1110 O.2   280  TRP280     -0.2715
     92  CB         0.5180   11.5580   27.2940 C.3   280  TRP280      0.0590
     93  CG        -0.0170   10.2290   27.7140 C.ar  280  TRP280      0.0006
     94  CD1       -0.5970    9.9050   28.9340 C.ar  280  TRP280      0.0946
     95  CD2       -0.0920    9.0300   26.9060 C.ar  280  TRP280      0.0152
     96  NE1       -1.0040    8.5850   28.9180 N.ar  280  TRP280     -0.2442
     97  CE2       -0.6910    8.0240   27.7030 C.ar  280  TRP280      0.0810
     98  CE3        0.2760    8.7180   25.5890 C.ar  280  TRP280      0.0012
     99  CZ2       -0.9130    6.7120   27.2230 C.ar  280  TRP280      0.0191
    100  CZ3        0.0700    7.4080   25.1190 C.ar  280  TRP280      0.0001
    101  CH2       -0.5140    6.4240   25.9350 C.ar  280  TRP280      0.0015
    102  N          1.4160   13.3430   29.7580 N.am  281  TYR281     -0.1960
    103  CA         1.5120   13.7790   31.1630 C.3   281  TYR281      0.1771
    104  C          0.5070   13.0420   32.0590 C.2   281  TYR281      0.2619
    105  O         -0.5510   12.6820   31.6000 O.2   281  TYR281     -0.2715
    106  CB         1.2330   15.2820   31.2520 C.3   281  TYR281      0.0574
    107  CG         2.4540   16.1410   31.2260 C.ar  281  TYR281     -0.0198
    108  CD1        3.3920   16.0940   32.2800 C.ar  281  TYR281     -0.0009
    109  CD2        2.7060   17.0100   30.1520 C.ar  281  TYR281     -0.0009
    110  CE1        4.5340   16.8670   32.2470 C.ar  281  TYR281      0.0417
    111  CE2        3.8520   17.7930   30.1240 C.ar  281  TYR281      0.0417
    112  CZ         4.7620   17.7090   31.1760 C.ar  281  TYR281      0.1957
    113  OH         5.8960   18.4790   31.1850 O.3   281  TYR281     -0.2866
    114  N          0.8440   12.8670   33.3360 N.am  282  MET282     -0.1977
    115  CA        -0.1610   12.6780   34.3540 C.3   282  MET282      0.1605
    116  C         -0.4490   14.0450   34.9130 C.2   282  MET282      0.2287
    117  O          0.4590   14.8030   35.1720 O.2   282  MET282     -0.2864
    118  CB         0.3460   11.7850   35.4760 C.3   282  MET282      0.0413
    119  CG        -0.7040   11.3890   36.5190 C.3   282  MET282      0.0598
    120  SD        -0.0380   10.1460   37.6490 S.3   282  MET282     -0.1393
    121  CE         1.2720   11.0290   38.4630 C.3   282  MET282      0.0692
    122  N          1.7520   16.0720   37.3980 N.3   285  GLU285     -0.1245
    123  CA         3.0620   16.5930   37.0190 C.3   285  GLU285      0.1567
    124  C          2.9360   18.0820   36.7630 C.2   285  GLU285      0.2260
    125  O          3.7740   18.8850   37.1760 O.2   285  GLU285     -0.2867
    126  CB         3.5940   15.8830   35.7670 C.3   285  GLU285      0.0388
    127  CG         4.1980   14.5050   36.0060 C.3   285  GLU285      0.1160
    128  CD         4.4580   13.7470   34.7150 C.2   285  GLU285      0.3649
    129  OE1        5.6390   13.6720   34.3110 O.co2 285  GLU285     -0.2457
    130  OE2        3.4870   13.2510   34.0850 O.co2 285  GLU285     -0.2457
    131  N          8.2120    7.9450   44.1790 N.3   370  TRP370     -0.1241
    132  CA         7.9230    8.4720   42.8870 C.3   370  TRP370      0.1605
    133  C          6.6240    7.8970   42.2980 C.2   370  TRP370      0.2264
    134  O          5.9260    8.5870   41.5490 O.2   370  TRP370     -0.2867
    135  CB         9.0970    8.1600   41.9730 C.3   370  TRP370      0.0550
    136  CG        10.2720    9.0550   42.2260 C.ar  370  TRP370      0.0003
    137  CD1       11.0400    9.1040   43.3450 C.ar  370  TRP370      0.0946
    138  CD2       10.7800   10.0480   41.3350 C.ar  370  TRP370      0.0152
    139  NE1       12.0810   10.0470   43.1820 N.ar  370  TRP370     -0.2442
    140  CE2       11.9260   10.6310   41.9490 C.ar  370  TRP370      0.0810
    141  CE3       10.4380   10.4400   40.0400 C.ar  370  TRP370      0.0012
    142  CZ2       12.6490   11.6280   41.3490 C.ar  370  TRP370      0.0191
    143  CZ3       11.1590   11.4480   39.4340 C.ar  370  TRP370      0.0001
    144  CH2       12.2640   12.0230   40.0790 C.ar  370  TRP370      0.0015
    145  N         20.7640    8.4910   34.6450 N.3   398  TYR398     -0.1241
    146  CA        21.1670    9.8880   34.6830 C.3   398  TYR398      0.1605
    147  C         22.6030    9.9880   34.2320 C.2   398  TYR398      0.2264
    148  O         23.3700    9.0340   34.3510 O.2   398  TYR398     -0.2867
    149  CB        21.0150   10.4810   36.1000 C.3   398  TYR398      0.0534
    150  CG        19.6200   10.4210   36.6710 C.ar  398  TYR398     -0.0201
    151  CD1       18.5370   10.9550   35.9720 C.ar  398  TYR398     -0.0009
    152  CD2       19.3790    9.8300   37.9090 C.ar  398  TYR398     -0.0009
    153  CE1       17.2610   10.8940   36.4830 C.ar  398  TYR398      0.0417
    154  CE2       18.0980    9.7830   38.4380 C.ar  398  TYR398      0.0417
    155  CZ        17.0440   10.3120   37.7130 C.ar  398  TYR398      0.1957
    156  OH        15.7600   10.2620   38.2190 O.3   398  TYR398     -0.2866
@<TRIPOS>BOND
     1    83    82    1
     2    82    79    1
     3    68    67    1
     4    68    69    1
     5    68    71    1
     6    81    80    2
     7    78    69   am
     8    78    79    1
     9   100    98   ar
    10   100   101   ar
    11    69    70    2
    12    79    80    1
    13    80    84   am
    14    71    72    1
    15    87    86    2
    16    98    95   ar
    17   101    99   ar
    18    84    85    1
    19    85    86    1
    20    86    88   am
    21    31    30    2
    22    30    29    1
    23    47    46    2
    24    95    97   ar
    25    95    93   ar
    26    72    74   ar
    27    72    73   ar
    28    37    43    1
    29    37    38    1
    30    40    39    2
    31    99    97   ar
    32    74    76   ar
    33    92    93    1
    34    92    89    1
    35    39    38    1
    36    43    42    1
    37    46    45    1
    38    88    89    1
    39    44    45    1
    40    97    96   ar
    41    93    94   ar
    42    62    61    2
    43    89    90    1
    44    73    75   ar
    45    29    28    1
    46    29    32    1
    47    38    41    1
    48    45    48    1
    49    51    52    1
    50    42    41    1
    51    76    77   ar
    52    28    24   am
    53    32    33    1
    54    96    94   ar
    55    61    60    1
    56    52    53    1
    57    52    55    1
    58    22    23    1
    59    75    77   ar
    60    24    25    2
    61    24    23    1
    62    90   102   am
    63    90    91    2
    64    59    53   am
    65    59    60    1
    66    48    49    1
    67    48    50    1
    68    53    54    2
    69   102   103    1
    70    35    34    2
    71    33    34    1
    72    23    26    1
    73    60    63    1
    74    55    56    1
    75   111   109   ar
    76   111   112   ar
    77   109   107   ar
    78    34    36   am
    79    63    64    1
    80   103   106    1
    81   103   104    1
    82   112   113    1
    83   112   110   ar
    84   107   106    1
    85   107   108   ar
    86    57    56    2
    87    56    58   am
    88    26    27    1
    89   105   104    2
    90    64    65    1
    91   104   114   am
    92   110   108   ar
    93    65    66    1
    94   114   115    1
    95    21    20    1
    96   130   128   ar
    97   147   148    2
    98   147   146    1
    99   129   128   ar
   100   115   116    1
   101   115   118    1
   102    20    17    1
   103   145   146    1
   104   146   149    1
   105   128   127    1
   106   116   117    2
   107   118   119    1
   108   126   127    1
   109   126   123    1
   110    17    18    1
   111    17    16    1
   112   151   153   ar
   113   151   150   ar
   114   149   150    1
   115    19    18    2
   116   153   155   ar
   117   119   120    1
   118   150   152   ar
   119   124   123    1
   120   124   125    2
   121   123   122    1
   122   120   121    1
   123   155   156    1
   124   155   154   ar
   125   152   154   ar
   126   143   141   ar
   127   143   144   ar
   128    15    13    1
   129   141   138   ar
   130   144   142   ar
   131   138   140   ar
   132   138   136   ar
   133   142   140   ar
   134    13    14    1
   135    13    12    1
   136   134   133    2
   137   140   139   ar
   138   135   136    1
   139   135   132    1
   140     4     3    2
   141    12     9    1
   142   136   137   ar
   143     6     5    1
   144   133   132    1
   145     9     8    1
   146     9    10    1
   147   132   131    1
   148     3     8   am
   149     3     2    1
   150   139   137   ar
   151    10    11    2
   152     5     2    1
   153     5     7    1
   154     2     1    1
