@<TRIPOS>MOLECULE
tmp/4jslA02.pdb
 167 165 0 0 0
SMALL
GASTEIGER

@<TRIPOS>ATOM
      1  N         17.5670   11.3410   45.8100 N.3    40  VAL40      -0.1231
      2  CA        17.2710   11.5180   44.3890 C.3    40  VAL40       0.1692
      3  C         18.3710   10.9930   43.4920 C.2    40  VAL40       0.2591
      4  O         18.1050   10.2800   42.5260 O.2    40  VAL40      -0.2718
      5  CB        17.0320   13.0110   44.0760 C.3    40  VAL40       0.0266
      6  CG1       16.7860   13.2480   42.5500 C.3    40  VAL40       0.0020
      7  CG2       15.8510   13.5140   44.8970 C.3    40  VAL40       0.0020
      8  N         19.6020   11.3490   43.8350 N.am   41  LEU41      -0.1980
      9  CA        20.7920   10.9790   43.1010 C.3    41  LEU41       0.1596
     10  C         21.7410   10.3960   44.1150 C.2    41  LEU41       0.2287
     11  O         22.4080   11.1410   44.8150 O.2    41  LEU41      -0.2864
     12  CB        21.4690   12.2370   42.5560 C.3    41  LEU41       0.0297
     13  CG        21.5050   12.5530   41.0680 C.3    41  LEU41       0.0022
     14  CD1       22.5730   13.6510   40.8450 C.3    41  LEU41       0.0001
     15  CD2       21.8290   11.2800   40.2480 C.3    41  LEU41       0.0001
     16  N         10.9880    4.4990   38.6400 N.3   108  ARG108     -0.1231
     17  CA        10.3200    5.7390   39.0040 C.3   108  ARG108      0.1694
     18  C          9.1450    6.0900   38.1100 C.2   108  ARG108      0.2592
     19  O          8.4730    7.1220   38.3470 O.2   108  ARG108     -0.2718
     20  CB        11.3190    6.9040   39.0100 C.3   108  ARG108      0.0321
     21  CG        12.3640    6.7800   40.1120 C.3   108  ARG108      0.0489
     22  CD        13.3480    7.9560   40.2340 C.3   108  ARG108      0.2205
     23  NE        14.0650    7.8850   41.5210 N.pl3 108  ARG108     -0.0865
     24  CZ        15.1980    8.5410   41.7980 C.cat 108  ARG108      0.5346
     25  NH1       15.7490    9.3330   40.8970 N.pl3 108  ARG108      0.1354
     26  NH2       15.8050    8.3930   42.9740 N.pl3 108  ARG108      0.1354
     27  N          8.9190    5.2790   37.0680 N.am  109  CYS109     -0.1970
     28  CA         7.8660    5.5610   36.1200 C.3   109  CYS109      0.1712
     29  C          6.5620    4.8440   36.4220 C.2   109  CYS109      0.2296
     30  O          6.4800    3.6090   36.3530 O.2   109  CYS109     -0.2864
     31  CB         8.2950    5.1910   34.7050 C.3   109  CYS109      0.0983
     32  SG         7.0620    5.5910   33.4800 S.3   109  CYS109     -0.0798
     33  N         17.4810   19.4840   29.3920 N.3   171  SER171     -0.1202
     34  CA        16.9770   18.3330   30.1360 C.3   171  SER171      0.2020
     35  C         15.6710   17.7870   29.5320 C.2   171  SER171      0.2618
     36  O         15.3790   16.5920   29.6750 O.2   171  SER171     -0.2717
     37  CB        16.7870   18.6820   31.6240 C.3   171  SER171      0.2103
     38  OG        15.6690   19.5510   31.7600 O.3   171  SER171     -0.2182
     39  N         14.8820   18.6520   28.8920 N.am  172  GLN172     -0.1979
     40  CA        13.6970   18.1960   28.1250 C.3   172  GLN172      0.1601
     41  C         13.6720   18.9100   26.7650 C.2   172  GLN172      0.2287
     42  O         14.2450   19.9960   26.6320 O.2   172  GLN172     -0.2864
     43  CB        12.3950   18.5140   28.8750 C.3   172  GLN172      0.0394
     44  CG        12.1530   17.7120   30.1350 C.3   172  GLN172      0.0908
     45  CD        10.7440   17.9430   30.6950 C.2   172  GLN172      0.2608
     46  OE1        9.7800   18.1000   29.9380 O.2   172  GLN172     -0.2717
     47  NE2       10.6330   17.9770   32.0350 N.am  172  GLN172     -0.0878
     48  N          5.9240   15.7650   27.2450 N.3   259  PRO259     -0.2116
     49  CA         7.0030   15.5980   28.1890 C.3   259  PRO259      0.1372
     50  C          8.0610   14.7200   27.5450 C.2   259  PRO259      0.2244
     51  O          7.8200   13.5380   27.3110 O.2   259  PRO259     -0.2868
     52  CB         6.3200   14.8990   29.3910 C.3   259  PRO259      0.0268
     53  CG         5.1290   14.1630   28.7830 C.3   259  PRO259      0.0207
     54  CD         4.9120   14.7030   27.3560 C.3   259  PRO259      0.0892
     55  N         12.0330   13.7070   27.7800 N.3   261  VAL261     -0.1245
     56  CA        13.2960   13.7360   28.5060 C.3   261  VAL261      0.1561
     57  C         14.4690   13.5660   27.5580 C.2   261  VAL261      0.2260
     58  O         14.4940   12.6060   26.7890 O.2   261  VAL261     -0.2867
     59  CB        13.3470   12.6000   29.5660 C.3   261  VAL261      0.0252
     60  CG1       14.6840   12.5660   30.2630 C.3   261  VAL261      0.0019
     61  CG2       12.2350   12.7880   30.5760 C.3   261  VAL261      0.0019
     62  N         18.1390   14.3000   28.4880 N.3   263  ASN263     -0.1225
     63  CA        19.4770   14.3110   29.0790 C.3   263  ASN263      0.1785
     64  C         19.8660   12.9870   29.7390 C.2   263  ASN263      0.2597
     65  O         20.9120   12.8820   30.3600 O.2   263  ASN263     -0.2718
     66  CB        19.6370   15.4780   30.0890 C.3   263  ASN263      0.1169
     67  CG        18.7360   15.3560   31.3430 C.2   263  ASN263      0.2627
     68  OD1       18.9420   16.1000   32.3070 O.2   263  ASN263     -0.2716
     69  ND2       17.7320   14.4800   31.3300 N.am  263  ASN263     -0.0877
     70  N         19.0330   11.9730   29.5920 N.am  264  MET264     -0.1979
     71  CA        19.3410   10.6550   30.1660 C.3   264  MET264      0.1605
     72  C         20.1150    9.7200   29.2440 C.2   264  MET264      0.2287
     73  O         20.0180    9.7870   28.0080 O.2   264  MET264     -0.2864
     74  CB        18.0640    9.9780   30.6550 C.3   264  MET264      0.0413
     75  CG        17.5330   10.6610   31.9200 C.3   264  MET264      0.0598
     76  SD        16.1640    9.7780   32.6430 S.3   264  MET264     -0.1393
     77  CE        16.9280    8.7750   33.9090 C.3   264  MET264      0.0692
     78  N         13.3810   10.5260   24.9110 N.3   278  PHE278     -0.1227
     79  CA        12.1470    9.7450   24.8870 C.3   278  PHE278      0.1736
     80  C         10.9850   10.5700   25.4220 C.2   278  PHE278      0.2596
     81  O         11.1930   11.4800   26.2260 O.2   278  PHE278     -0.2718
     82  CB        12.3260    8.4760   25.7230 C.3   278  PHE278      0.0547
     83  CG        12.6880    8.7490   27.1760 C.ar  278  PHE278     -0.0202
     84  CD1       11.6790    8.9470   28.1190 C.ar  278  PHE278     -0.0042
     85  CD2       14.0320    8.7830   27.5990 C.ar  278  PHE278     -0.0042
     86  CE1       11.9990    9.2010   29.4900 C.ar  278  PHE278     -0.0003
     87  CE2       14.3550    9.0150   28.9590 C.ar  278  PHE278     -0.0003
     88  CZ        13.3260    9.2310   29.8850 C.ar  278  PHE278     -0.0000
     89  N          9.7630   10.2070   25.0570 N.am  279  SER279     -0.1938
     90  CA         8.6190   11.0450   25.4120 C.3   279  SER279      0.2055
     91  C          7.3670   10.1980   25.5670 C.2   279  SER279      0.2644
     92  O          7.2490    9.1060   24.9700 O.2   279  SER279     -0.2714
     93  CB         8.4040   12.1440   24.3330 C.3   279  SER279      0.2130
     94  OG         7.9440   11.5920   23.1120 O.3   279  SER279     -0.2179
     95  N          6.4230   10.6880   26.3720 N.am  280  GLY280     -0.1939
     96  CA         5.1670    9.9640   26.6020 C.3   280  GLY280      0.2014
     97  C          4.0230   10.9500   26.5690 C.2   280  GLY280      0.2639
     98  O          3.9120   11.7120   25.6320 O.2   280  GLY280     -0.2714
     99  N          3.1740   10.9200   27.6010 N.am  281  TRP281     -0.1959
    100  CA         2.2100   11.9870   27.8780 C.3   281  TRP281      0.1771
    101  C          2.2090   12.2310   29.3800 C.2   281  TRP281      0.2620
    102  O          2.6870   11.3850   30.1510 O.2   281  TRP281     -0.2715
    103  CB         0.8030   11.6580   27.3340 C.3   281  TRP281      0.0590
    104  CG         0.2150   10.3710   27.8080 C.ar  281  TRP281      0.0006
    105  CD1       -0.3730   10.1080   29.0490 C.ar  281  TRP281      0.0946
    106  CD2        0.1250    9.1390   27.0550 C.ar  281  TRP281      0.0152
    107  NE1       -0.7940    8.7830   29.0950 N.ar  281  TRP281     -0.2442
    108  CE2       -0.5230    8.1760   27.8890 C.ar  281  TRP281      0.0810
    109  CE3        0.5440    8.7520   25.7690 C.ar  281  TRP281      0.0012
    110  CZ2       -0.7440    6.8450   27.4740 C.ar  281  TRP281      0.0191
    111  CZ3        0.3200    7.4170   25.3540 C.ar  281  TRP281      0.0001
    112  CH2       -0.3360    6.4900   26.1990 C.ar  281  TRP281      0.0015
    113  N          1.6740   13.3780   29.7980 N.am  282  TYR282     -0.1960
    114  CA         1.7480   13.8010   31.1870 C.3   282  TYR282      0.1771
    115  C          0.7400   13.1440   32.1030 C.2   282  TYR282      0.2619
    116  O         -0.3570   12.7890   31.6960 O.2   282  TYR282     -0.2715
    117  CB         1.5330   15.3170   31.2780 C.3   282  TYR282      0.0574
    118  CG         2.7860   16.1480   31.2960 C.ar  282  TYR282     -0.0198
    119  CD1        3.7340   15.9900   32.3050 C.ar  282  TYR282     -0.0009
    120  CD2        3.0260   17.1200   30.2910 C.ar  282  TYR282     -0.0009
    121  CE1        4.9130   16.7700   32.3290 C.ar  282  TYR282      0.0417
    122  CE2        4.1960   17.9090   30.3020 C.ar  282  TYR282      0.0417
    123  CZ         5.1160   17.7420   31.3270 C.ar  282  TYR282      0.1957
    124  OH         6.2450   18.5260   31.3690 O.3   282  TYR282     -0.2866
    125  N          1.1290   12.9830   33.3600 N.am  283  MET283     -0.1977
    126  CA         0.1380   12.7850   34.4070 C.3   283  MET283      0.1605
    127  C         -0.0830   14.1670   34.9980 C.2   283  MET283      0.2287
    128  O          0.8830   14.9250   35.2150 O.2   283  MET283     -0.2864
    129  CB         0.6330   11.8010   35.4660 C.3   283  MET283      0.0413
    130  CG        -0.3470   11.5940   36.6230 C.3   283  MET283      0.0598
    131  SD         0.1630   10.1850   37.6610 S.3   283  MET283     -0.1393
    132  CE         1.5130   10.9710   38.5240 C.3   283  MET283      0.0692
    133  N          1.9150   16.1930   37.5400 N.3   286  GLU286     -0.1245
    134  CA         3.2830   16.6860   37.2700 C.3   286  GLU286      0.1567
    135  C          3.1990   18.1800   36.9490 C.2   286  GLU286      0.2260
    136  O          4.1040   18.9640   37.3170 O.2   286  GLU286     -0.2867
    137  CB         3.8930   15.9940   36.0630 C.3   286  GLU286      0.0388
    138  CG         4.1540   14.5390   36.2400 C.3   286  GLU286      0.1160
    139  CD         4.5990   13.9350   34.9150 C.2   286  GLU286      0.3649
    140  OE1        5.8150   14.0310   34.5880 O.co2 286  GLU286     -0.2457
    141  OE2        3.7190   13.3940   34.2050 O.co2 286  GLU286     -0.2457
    142  N          8.4040    7.9010   44.3330 N.3   371  TRP371     -0.1241
    143  CA         8.1910    8.5040   43.0240 C.3   371  TRP371      0.1605
    144  C          6.8690    8.0640   42.4410 C.2   371  TRP371      0.2264
    145  O          6.2660    8.8010   41.6730 O.2   371  TRP371     -0.2867
    146  CB         9.3190    8.1480   42.0610 C.3   371  TRP371      0.0550
    147  CG        10.5180    9.0870   42.2450 C.ar  371  TRP371      0.0003
    148  CD1       11.3190    9.1850   43.3290 C.ar  371  TRP371      0.0946
    149  CD2       10.9870   10.0690   41.3050 C.ar  371  TRP371      0.0152
    150  NE1       12.2690   10.1680   43.1400 N.ar  371  TRP371     -0.2442
    151  CE2       12.0950   10.7170   41.8970 C.ar  371  TRP371      0.0810
    152  CE3       10.5850   10.4480   40.0040 C.ar  371  TRP371      0.0012
    153  CZ2       12.8080   11.7560   41.2520 C.ar  371  TRP371      0.0191
    154  CZ3       11.2970   11.4960   39.3440 C.ar  371  TRP371      0.0001
    155  CH2       12.4040   12.1230   39.9740 C.ar  371  TRP371      0.0015
    156  N         20.7880    8.5870   34.9470 N.3   399  TYR399     -0.1241
    157  CA        21.1460    9.9910   35.0180 C.3   399  TYR399      0.1605
    158  C         22.6140   10.0930   34.5600 C.2   399  TYR399      0.2264
    159  O         23.3930    9.1730   34.7440 O.2   399  TYR399     -0.2867
    160  CB        20.9440   10.4990   36.4650 C.3   399  TYR399      0.0534
    161  CG        21.4770   11.9100   36.7160 C.ar  399  TYR399     -0.0201
    162  CD1       20.6280   13.0280   36.6170 C.ar  399  TYR399     -0.0009
    163  CD2       22.8360   12.1240   37.0180 C.ar  399  TYR399     -0.0009
    164  CE1       21.1120   14.3110   36.8340 C.ar  399  TYR399      0.0417
    165  CE2       23.3260   13.4060   37.2260 C.ar  399  TYR399      0.0417
    166  CZ        22.4630   14.4890   37.1260 C.ar  399  TYR399      0.1957
    167  OH        22.9530   15.7600   37.3490 O.3   399  TYR399     -0.2866
@<TRIPOS>BOND
     1    94    93    1
     2    93    90    1
     3    79    78    1
     4    79    80    1
     5    79    82    1
     6    92    91    2
     7    89    90    1
     8    89    80   am
     9   111   109   ar
    10   111   112   ar
    11    90    91    1
    12    80    81    2
    13    91    95   am
    14    98    97    2
    15    82    83    1
    16   109   106   ar
    17   112   110   ar
    18    95    96    1
    19    97    96    1
    20    97    99   am
    21    42    41    2
    22    41    40    1
    23    58    57    2
    24   106   104   ar
    25   106   108   ar
    26    83    85   ar
    27    83    84   ar
    28    48    54    1
    29    48    49    1
    30    51    50    2
    31   103   104    1
    32   103   100    1
    33    54    53    1
    34   110   108   ar
    35    50    49    1
    36    57    56    1
    37    85    87   ar
    38    99   100    1
    39    55    56    1
    40   104   105   ar
    41   100   101    1
    42   108   107   ar
    43    73    72    2
    44    84    86   ar
    45    40    43    1
    46    40    39    1
    47    49    52    1
    48    62    63    1
    49    56    59    1
    50    53    52    1
    51    43    44    1
    52    39    35   am
    53    87    88   ar
    54   105   107   ar
    55    63    64    1
    56    63    66    1
    57    72    71    1
    58   101   113   am
    59   101   102    2
    60    33    34    1
    61    86    88   ar
    62    35    36    2
    63    35    34    1
    64    59    60    1
    65    59    61    1
    66    70    64   am
    67    70    71    1
    68    64    65    2
    69   113   114    1
    70    46    45    2
    71    66    67    1
    72    44    45    1
    73    34    37    1
    74    71    74    1
    75   120   122   ar
    76   120   118   ar
    77   122   123   ar
    78    74    75    1
    79    45    47   am
    80   114   117    1
    81   114   115    1
    82   117   118    1
    83   118   119   ar
    84   123   124    1
    85   123   121   ar
    86    69    67   am
    87    67    68    2
    88    37    38    1
    89   116   115    2
    90    75    76    1
    91   115   125   am
    92   119   121   ar
    93    76    77    1
    94   125   126    1
    95    32    31    1
    96   141   139   ar
    97   126   127    1
    98   126   129    1
    99   158   159    2
   100   158   157    1
   101   140   139   ar
   102    31    28    1
   103   139   138    1
   104   156   157    1
   105   127   128    2
   106   157   160    1
   107   129   130    1
   108   137   138    1
   109   137   134    1
   110    28    29    1
   111    28    27    1
   112    30    29    2
   113   160   161    1
   114   162   161   ar
   115   162   164   ar
   116   130   131    1
   117   161   163   ar
   118   164   166   ar
   119   135   134    1
   120   135   136    2
   121   163   165   ar
   122    27    18   am
   123   166   165   ar
   124   166   167    1
   125   134   133    1
   126   131   132    1
   127    18    19    2
   128    18    17    1
   129    16    17    1
   130    17    20    1
   131    20    21    1
   132   154   155   ar
   133   154   152   ar
   134   155   153   ar
   135   152   149   ar
   136    21    22    1
   137    22    23    1
   138    15    13    1
   139    14    13    1
   140    25    24    1
   141    13    12    1
   142   153   151   ar
   143   149   151   ar
   144   149   147   ar
   145    23    24    2
   146   145   144    2
   147    24    26    1
   148   151   150   ar
   149   146   147    1
   150   146   143    1
   151   147   148   ar
   152   144   143    1
   153     4     3    2
   154     6     5    1
   155    12     9    1
   156   143   142    1
   157     9     8    1
   158     9    10    1
   159   150   148   ar
   160     3     8   am
   161     3     2    1
   162     5     2    1
   163     5     7    1
   164    10    11    2
   165     2     1    1
