@<TRIPOS>MOLECULE
tmp/4jsmB03.pdb
 200 196 0 0 0
SMALL
GASTEIGER

@<TRIPOS>ATOM
      1  N          6.3180   -2.0320   55.3730 N.3    38  VAL38      -0.1231
      2  CA         5.8440   -1.7390   56.7150 C.3    38  VAL38       0.1692
      3  C          6.5720   -2.5430   57.8010 C.2    38  VAL38       0.2591
      4  O          7.0110   -1.9990   58.8060 O.2    38  VAL38      -0.2718
      5  CB         4.3110   -1.9930   56.8520 C.3    38  VAL38       0.0266
      6  CG1        3.8720   -1.7340   58.2720 C.3    38  VAL38       0.0020
      7  CG2        3.5260   -1.1030   55.9120 C.3    38  VAL38       0.0020
      8  N          6.6840   -3.8450   57.6040 N.am   39  LEU39      -0.1980
      9  CA         7.2540   -4.7110   58.6280 C.3    39  LEU39       0.1596
     10  C          8.5380   -5.3590   58.1940 C.2    39  LEU39       0.2287
     11  O          8.7740   -5.5420   56.9840 O.2    39  LEU39      -0.2864
     12  CB         6.2790   -5.8200   59.0090 C.3    39  LEU39       0.0297
     13  CG         5.1750   -5.3650   59.9460 C.3    39  LEU39       0.0022
     14  CD1        3.9130   -6.1770   59.7070 C.3    39  LEU39       0.0001
     15  CD2        5.6620   -5.5200   61.3720 C.3    39  LEU39       0.0001
     16  N         11.6160    7.7870   71.6630 N.3   103  TRP103     -0.1241
     17  CA        10.8400    8.7190   70.8210 C.3   103  TRP103      0.1605
     18  C         11.7710    9.5140   69.8850 C.2   103  TRP103      0.2264
     19  O         11.6070    9.4840   68.6570 O.2   103  TRP103     -0.2867
     20  CB        10.0710    9.6830   71.7100 C.3   103  TRP103      0.0550
     21  CG         9.0290   10.5710   71.0110 C.ar  103  TRP103      0.0003
     22  CD1        8.5700   10.4800   69.6990 C.ar  103  TRP103      0.0946
     23  CD2        8.2840   11.6170   71.6190 C.ar  103  TRP103      0.0152
     24  NE1        7.6010   11.4360   69.4770 N.ar  103  TRP103     -0.2442
     25  CE2        7.4510   12.1810   70.6230 C.ar  103  TRP103      0.0810
     26  CE3        8.2680   12.1700   72.9040 C.ar  103  TRP103      0.0012
     27  CZ2        6.5740   13.2590   70.8970 C.ar  103  TRP103      0.0191
     28  CZ3        7.4200   13.2440   73.1690 C.ar  103  TRP103      0.0001
     29  CH2        6.5580   13.7540   72.1760 C.ar  103  TRP103      0.0015
     30  N          8.0150    8.8580   63.1090 N.3   109  CYS109     -0.1235
     31  CA         7.2640    9.8760   63.8980 C.3   109  CYS109      0.1677
     32  C          7.5700   11.2990   63.4150 C.2   109  CYS109      0.2270
     33  O          8.7130   11.7530   63.4870 O.2   109  CYS109     -0.2867
     34  CB         7.5560    9.7810   65.4260 C.3   109  CYS109      0.0956
     35  SG         6.5550   10.9480   66.4470 S.3   109  CYS109     -0.0801
     36  N         -4.3320   -2.5850   70.2410 N.3   171  SER171     -0.1202
     37  CA        -3.2440   -1.8800   69.5790 C.3   171  SER171      0.2020
     38  C         -3.2060   -0.4100   70.0010 C.2   171  SER171      0.2618
     39  O         -2.1640    0.2230   69.9750 O.2   171  SER171     -0.2717
     40  CB        -3.2860   -2.0590   68.0630 C.3   171  SER171      0.2103
     41  OG        -4.3900   -1.3760   67.5420 O.3   171  SER171     -0.2182
     42  N         -4.3440    0.1110   70.4390 N.am  172  GLN172     -0.1979
     43  CA        -4.4240    1.4700   70.9910 C.3   172  GLN172      0.1601
     44  C         -5.2880    1.4470   72.2170 C.2   172  GLN172      0.2287
     45  O         -6.1640    0.5710   72.3360 O.2   172  GLN172     -0.2864
     46  CB        -5.0110    2.4600   69.9610 C.3   172  GLN172      0.0394
     47  CG        -4.0250    2.7920   68.8180 C.3   172  GLN172      0.0908
     48  CD        -4.5810    3.8410   67.8390 C.2   172  GLN172      0.2608
     49  OE1       -5.0830    4.9090   68.2520 O.2   172  GLN172     -0.2717
     50  NE2       -4.4900    3.5380   66.5260 N.am  172  GLN172     -0.0878
     51  N         -9.8760    2.4420   70.7920 N.3   175  ARG175     -0.1245
     52  CA       -10.1130    1.8930   69.4490 C.3   175  ARG175      0.1563
     53  C        -11.6470    1.6610   69.3010 C.2   175  ARG175      0.2260
     54  O        -12.2910    1.3000   70.2910 O.2   175  ARG175     -0.2867
     55  CB        -9.4990    0.5000   69.3430 C.3   175  ARG175      0.0307
     56  CG        -7.9990    0.3860   69.4250 C.3   175  ARG175      0.0489
     57  CD        -7.4370    0.2610   68.0370 C.3   175  ARG175      0.2205
     58  NE        -7.4590    1.5590   67.4000 N.pl3 175  ARG175     -0.0865
     59  CZ        -7.2150    1.7700   66.1150 C.cat 175  ARG175      0.5346
     60  NH1       -6.9370    0.7560   65.2910 N.pl3 175  ARG175      0.1354
     61  NH2       -7.2580    3.0190   65.6700 N.pl3 175  ARG175      0.1354
     62  N         -4.4900    9.6110   70.9240 N.3   259  PRO259     -0.2116
     63  CA        -3.8960    8.5280   70.1820 C.3   259  PRO259      0.1372
     64  C         -2.8500    7.8680   71.0260 C.2   259  PRO259      0.2244
     65  O         -1.8130    8.4350   71.2260 O.2   259  PRO259     -0.2868
     66  CB        -3.2850    9.2480   68.9840 C.3   259  PRO259      0.0268
     67  CG        -2.9450   10.6110   69.5080 C.3   259  PRO259      0.0207
     68  CD        -3.9280   10.9250   70.5580 C.3   259  PRO259      0.0892
     69  N         -0.6840    4.4230   71.6110 N.3   261  VAL261     -0.1245
     70  CA        -0.2550    3.1230   71.1030 C.3   261  VAL261      0.1561
     71  C          0.0830    2.2230   72.2840 C.2   261  VAL261      0.2260
     72  O          0.6650    2.6890   73.2490 O.2   261  VAL261     -0.2867
     73  CB         0.9230    3.2820   70.0810 C.3   261  VAL261      0.0252
     74  CG1        1.5810    1.9390   69.7420 C.3   261  VAL261      0.0019
     75  CG2        0.3570    3.9280   68.7840 C.3   261  VAL261      0.0019
     76  N          0.6150   -1.5780   71.8820 N.3   263  ASN263     -0.1225
     77  CA         1.0920   -2.8920   71.4680 C.3   263  ASN263      0.1785
     78  C          2.5290   -2.9090   70.9400 C.2   263  ASN263      0.2597
     79  O          2.9250   -3.8910   70.3210 O.2   263  ASN263     -0.2718
     80  CB         0.1430   -3.5100   70.4380 C.3   263  ASN263      0.1169
     81  CG         0.2040   -2.8160   69.0530 C.2   263  ASN263      0.2627
     82  OD1       -0.3520   -3.3440   68.0850 O.2   263  ASN263     -0.2716
     83  ND2        0.8840   -1.6710   68.9430 N.am  263  ASN263     -0.0877
     84  N          3.2860   -1.8360   71.1530 N.am  264  MET264     -0.1979
     85  CA         4.6980   -1.7780   70.6790 C.3   264  MET264      0.1605
     86  C          5.6480   -2.0430   71.8090 C.2   264  MET264      0.2287
     87  O          5.3140   -1.8380   72.9760 O.2   264  MET264     -0.2864
     88  CB         5.0320   -0.4210   70.0050 C.3   264  MET264      0.0413
     89  CG         4.6440   -0.3020   68.5000 C.3   264  MET264      0.0598
     90  SD         5.2490    1.2230   67.6940 S.3   264  MET264     -0.1393
     91  CE         7.0070    0.7810   67.5090 C.3   264  MET264      0.0692
     92  N          2.0540    4.5690   74.9410 N.3   278  PHE278     -0.1227
     93  CA         2.4570    5.9660   74.7990 C.3   278  PHE278      0.1736
     94  C          1.4540    6.7530   73.9630 C.2   278  PHE278      0.2596
     95  O          0.7300    6.1910   73.1360 O.2   278  PHE278     -0.2718
     96  CB         3.8850    6.0920   74.2550 C.3   278  PHE278      0.0547
     97  CG         4.1070    5.3810   72.9290 C.ar  278  PHE278     -0.0202
     98  CD1        3.9190    6.0460   71.7320 C.ar  278  PHE278     -0.0042
     99  CD2        4.5060    4.0580   72.8910 C.ar  278  PHE278     -0.0042
    100  CE1        4.1390    5.4100   70.5050 C.ar  278  PHE278     -0.0003
    101  CE2        4.7020    3.4110   71.6790 C.ar  278  PHE278     -0.0003
    102  CZ         4.5290    4.0950   70.4780 C.ar  278  PHE278     -0.0000
    103  N          1.3880    8.0490   74.2220 N.am  279  SER279     -0.1938
    104  CA         0.4200    8.9180   73.5690 C.3   279  SER279      0.2055
    105  C          0.9170   10.3650   73.4550 C.2   279  SER279      0.2644
    106  O          1.6740   10.8570   74.3210 O.2   279  SER279     -0.2714
    107  CB        -0.8980    8.9120   74.3420 C.3   279  SER279      0.2130
    108  OG        -0.6720    9.3570   75.6560 O.3   279  SER279     -0.2179
    109  N          0.4610   11.0430   72.3920 N.am  280  GLY280     -0.1939
    110  CA         0.6280   12.4750   72.2530 C.3   280  GLY280      0.2014
    111  C         -0.6940   13.0760   71.8460 C.2   280  GLY280      0.2639
    112  O         -1.7000   12.8920   72.5080 O.2   280  GLY280     -0.2714
    113  N         -0.6830   13.7770   70.7170 N.am  281  TRP281     -0.1959
    114  CA        -1.8730   14.2950   70.0880 C.3   281  TRP281      0.1771
    115  C         -1.8530   13.9800   68.5890 C.2   281  TRP281      0.2620
    116  O         -0.8010   13.7210   67.9920 O.2   281  TRP281     -0.2715
    117  CB        -2.0610   15.8040   70.3720 C.3   281  TRP281      0.0590
    118  CG        -0.9080   16.6720   69.9580 C.ar  281  TRP281      0.0006
    119  CD1       -0.6200   17.1120   68.6850 C.ar  281  TRP281      0.0946
    120  CD2        0.1010   17.2240   70.8070 C.ar  281  TRP281      0.0152
    121  NE1        0.5000   17.8900   68.6950 N.ar  281  TRP281     -0.2442
    122  CE2        0.9700   17.9800   69.9820 C.ar  281  TRP281      0.0810
    123  CE3        0.3540   17.1590   72.1930 C.ar  281  TRP281      0.0012
    124  CZ2        2.0840   18.6790   70.4960 C.ar  281  TRP281      0.0191
    125  CZ3        1.4410   17.8220   72.7010 C.ar  281  TRP281      0.0001
    126  CH2        2.3140   18.5800   71.8470 C.ar  281  TRP281      0.0015
    127  N         -3.0320   14.0210   68.0060 N.am  282  TYR282     -0.1960
    128  CA        -3.2520   13.6740   66.6140 C.3   282  TYR282      0.1771
    129  C         -2.8100   14.7550   65.6500 C.2   282  TYR282      0.2619
    130  O         -2.8990   15.9490   65.9260 O.2   282  TYR282     -0.2715
    131  CB        -4.7560   13.4770   66.3850 C.3   282  TYR282      0.0574
    132  CG        -5.1950   12.0500   66.4550 C.ar  282  TYR282     -0.0198
    133  CD1       -4.6770   11.1110   65.5600 C.ar  282  TYR282     -0.0009
    134  CD2       -6.1030   11.6290   67.4140 C.ar  282  TYR282     -0.0009
    135  CE1       -5.0650    9.7920   65.6090 C.ar  282  TYR282      0.0417
    136  CE2       -6.5450   10.2970   67.4550 C.ar  282  TYR282      0.0417
    137  CZ        -6.0220    9.3880   66.5520 C.ar  282  TYR282      0.1957
    138  OH        -6.3930    8.0740   66.5940 O.3   282  TYR282     -0.2866
    139  N         -2.3350   14.3060   64.5010 N.am  283  MET283     -0.1977
    140  CA        -2.1930   15.1640   63.3350 C.3   283  MET283      0.1605
    141  C         -3.4600   14.8640   62.5490 C.2   283  MET283      0.2287
    142  O         -3.8020   13.7100   62.3560 O.2   283  MET283     -0.2864
    143  CB        -0.9100   14.8360   62.5740 C.3   283  MET283      0.0413
    144  CG        -0.7380   15.6110   61.2450 C.3   283  MET283      0.0598
    145  SD         0.9290   15.3770   60.5900 S.3   283  MET283     -0.1393
    146  CE         0.7390   13.8670   59.6340 C.3   283  MET283      0.0692
    147  N         -4.2210   11.9190   60.0490 N.3   286  GLU286     -0.1245
    148  CA        -4.3330   10.5490   60.5730 C.3   286  GLU286      0.1567
    149  C         -5.8070   10.1470   60.6520 C.2   286  GLU286      0.2260
    150  O         -6.1430    9.0290   60.3150 O.2   286  GLU286     -0.2867
    151  CB        -3.7040   10.4060   61.9420 C.3   286  GLU286      0.0388
    152  CG        -2.2070   10.6950   62.0150 C.3   286  GLU286      0.1160
    153  CD        -1.7180   10.5760   63.4540 C.2   286  GLU286      0.3649
    154  OE1       -1.6870    9.4130   63.9280 O.co2 286  GLU286     -0.2457
    155  OE2       -1.4130   11.6230   64.1040 O.co2 286  GLU286     -0.2457
    156  N        -10.5220    1.1060   55.8540 N.3   297  ARG297     -0.1245
    157  CA       -10.9930    1.7050   57.1250 C.3   297  ARG297      0.1563
    158  C        -12.4670    2.1470   56.9740 C.2   297  ARG297      0.2260
    159  O        -13.2180    1.3960   56.3870 O.2   297  ARG297     -0.2867
    160  CB       -10.0480    2.7940   57.5940 C.3   297  ARG297      0.0307
    161  CG        -8.6110    2.3040   57.6760 C.3   297  ARG297      0.0489
    162  CD        -8.3690    1.3370   58.8430 C.3   297  ARG297      0.2205
    163  NE        -8.8420    1.8820   60.1150 N.pl3 297  ARG297     -0.0865
    164  CZ        -8.1960    2.8190   60.8070 C.cat 297  ARG297      0.5346
    165  NH1       -7.0300    3.3040   60.3730 N.pl3 297  ARG297      0.1354
    166  NH2       -8.7160    3.2610   61.9480 N.pl3 297  ARG297      0.1354
    167  N          6.6230    7.5410   55.6070 N.3   371  TRP371     -0.1241
    168  CA         5.7860    7.7270   56.8040 C.3   371  TRP371      0.1605
    169  C          5.7540    9.1880   57.2230 C.2   371  TRP371      0.2264
    170  O          4.7670    9.6560   57.7320 O.2   371  TRP371     -0.2867
    171  CB         6.2920    6.8700   57.9750 C.3   371  TRP371      0.0550
    172  CG         5.7240    5.4970   57.9310 C.ar  371  TRP371      0.0003
    173  CD1        5.9660    4.5650   56.9900 C.ar  371  TRP371      0.0946
    174  CD2        4.8100    4.9100   58.8610 C.ar  371  TRP371      0.0152
    175  NE1        5.2290    3.4390   57.2400 N.ar  371  TRP371     -0.2442
    176  CE2        4.5300    3.6090   58.4010 C.ar  371  TRP371      0.0810
    177  CE3        4.2010    5.3530   60.0470 C.ar  371  TRP371      0.0012
    178  CZ2        3.6650    2.7260   59.0790 C.ar  371  TRP371      0.0191
    179  CZ3        3.3240    4.4700   60.7270 C.ar  371  TRP371      0.0001
    180  CH2        3.0770    3.1680   60.2340 C.ar  371  TRP371      0.0015
    181  N          8.0880   -3.0580   66.7910 N.3   399  TYR399     -0.1241
    182  CA         6.9310   -3.9220   66.7350 C.3   399  TYR399      0.1605
    183  C          7.2080   -5.2760   67.3990 C.2   399  TYR399      0.2264
    184  O          8.3740   -5.7260   67.4890 O.2   399  TYR399     -0.2867
    185  CB         6.5500   -4.2040   65.2970 C.3   399  TYR399      0.0534
    186  CG         6.2480   -3.0070   64.4660 C.ar  399  TYR399     -0.0201
    187  CD1        5.4350   -1.9820   64.9180 C.ar  399  TYR399     -0.0009
    188  CD2        6.7780   -2.9140   63.2000 C.ar  399  TYR399     -0.0009
    189  CE1        5.1870   -0.8680   64.1160 C.ar  399  TYR399      0.0417
    190  CE2        6.5210   -1.8360   62.3790 C.ar  399  TYR399      0.0417
    191  CZ         5.7310   -0.8220   62.8270 C.ar  399  TYR399      0.1957
    192  OH         5.5360    0.2150   61.9510 O.3   399  TYR399     -0.2866
    193  N          1.5930  -10.1760   68.0080 N.3   402  ASP402     -0.1239
    194  CA         0.3480  -10.1740   68.8020 C.3   402  ASP402      0.1674
    195  C          0.3060  -11.3790   69.7480 C.2   402  ASP402      0.2266
    196  O          0.6460  -12.4870   69.3470 O.2   402  ASP402     -0.2867
    197  CB        -0.8990  -10.1770   67.9030 C.3   402  ASP402      0.1410
    198  CG        -0.9770   -8.9650   67.0020 C.2   402  ASP402      0.3668
    199  OD1       -0.7820   -7.8230   67.4660 O.co2 402  ASP402     -0.2456
    200  OD2       -1.2590   -9.1570   65.8050 O.co2 402  ASP402     -0.2456
@<TRIPOS>BOND
     1     1     2    1
     2   167   168    1
     3   156   157    1
     4     7     5    1
     5   159   158    2
     6     2     5    1
     7     2     3    1
     8   168   169    1
     9   168   171    1
    10     5     6    1
    11   158   157    1
    12    11    10    2
    13   173   175   ar
    14   173   172   ar
    15   157   160    1
    16   169   170    2
    17   175   176   ar
    18   160   161    1
    19     8     3   am
    20     8     9    1
    21   161   162    1
    22     3     4    2
    23   172   171    1
    24   172   174   ar
    25    10     9    1
    26   176   174   ar
    27   176   178   ar
    28     9    12    1
    29   162   163    1
    30   174   177   ar
    31    12    13    1
    32   178   180   ar
    33   146   145    1
    34    14    13    1
    35    13    15    1
    36   177   179   ar
    37   147   148    1
    38   163   164    2
    39   180   179   ar
    40   150   149    2
    41   165   164    1
    42   148   149    1
    43   148   151    1
    44   145   144    1
    45   164   166    1
    46   144   143    1
    47   151   152    1
    48   192   191    1
    49   152   153    1
    50   142   141    2
    51   190   191   ar
    52   190   188   ar
    53   141   140    1
    54   143   140    1
    55   191   189   ar
    56    30    31    1
    57   188   186   ar
    58   140   139    1
    59    32    33    2
    60    32    31    1
    61   153   154   ar
    62   153   155   ar
    63    31    34    1
    64   189   187   ar
    65   186   187   ar
    66   186   185    1
    67   139   129   am
    68    60    59    1
    69   185   182    1
    70    34    35    1
    71   133   135   ar
    72   133   132   ar
    73   135   137   ar
    74   129   130    2
    75   129   128    1
    76    61    59    1
    77   200   198   ar
    78    59    58    2
    79   131   132    1
    80   131   128    1
    81   132   134   ar
    82    50    48   am
    83   137   138    1
    84   137   136   ar
    85   128   127    1
    86   182   181    1
    87   182   183    1
    88   198   199   ar
    89   198   197    1
    90   183   184    2
    91    58    57    1
    92   134   136   ar
    93    91    90    1
    94    41    40    1
    95    90    89    1
    96    48    49    2
    97    48    47    1
    98   197   194    1
    99   116   115    2
   100   127   115   am
   101   193   194    1
   102    57    56    1
   103    40    37    1
   104    82    81    2
   105    89    88    1
   106   115   114    1
   107    19    18    2
   108   119   121   ar
   109   119   118   ar
   110   121   122   ar
   111    75    73    1
   112   194   195    1
   113    47    46    1
   114    83    81   am
   115    66    67    1
   116    66    63    1
   117    81    80    1
   118    53    52    1
   119    53    54    2
   120    55    56    1
   121    55    52    1
   122   196   195    2
   123    52    51    1
   124    24    22   ar
   125    24    25   ar
   126    67    68    1
   127    37    38    1
   128    37    36    1
   129    22    21   ar
   130    74    73    1
   131    18    17    1
   132   118   117    1
   133   118   120   ar
   134    46    43    1
   135    39    38    2
   136   122   124   ar
   137   122   120   ar
   138    38    42   am
   139    88    85    1
   140    73    70    1
   141   114   117    1
   142   114   113    1
   143    63    62    1
   144    63    64    1
   145    79    78    2
   146    80    77    1
   147    42    43    1
   148   102   100   ar
   149   102   101   ar
   150   124   126   ar
   151   100    98   ar
   152    68    62    1
   153    25    27   ar
   154    25    23   ar
   155    85    84    1
   156    85    86    1
   157   113   111   am
   158   120   123   ar
   159    17    16    1
   160    17    20    1
   161    27    29   ar
   162    78    84   am
   163    78    77    1
   164    43    44    1
   165    21    23   ar
   166    21    20    1
   167    64    65    2
   168    70    69    1
   169    70    71    1
   170    77    76    1
   171    23    26   ar
   172   101    99   ar
   173    98    97   ar
   174    86    87    2
   175   111   110    1
   176   111   112    2
   177   126   125   ar
   178    29    28   ar
   179   123   125   ar
   180    44    45    2
   181   110   109    1
   182    71    72    2
   183   109   105   am
   184    99    97   ar
   185    26    28   ar
   186    97    96    1
   187    95    94    2
   188   105   104    1
   189   105   106    2
   190   104   103    1
   191   104   107    1
   192    94   103   am
   193    94    93    1
   194    96    93    1
   195   107   108    1
   196    93    92    1
