@<TRIPOS>MOLECULE
tmp/4jsrA00.pdb
 222 222 0 0 0
SMALL
GASTEIGER

@<TRIPOS>ATOM
      1  N         18.9520   43.1460    6.0290 N.3    26  ALA26      -0.1245
      2  CA        19.7730   41.9790    6.4920 C.3    26  ALA26       0.1562
      3  C         19.4640   41.3460    7.8390 C.2    26  ALA26       0.2260
      4  O         19.6020   40.1280    8.0330 O.2    26  ALA26      -0.2867
      5  CB        21.3090   42.3610    6.4970 C.3    26  ALA26       0.0290
      6  N         17.4910   38.0330    8.1930 N.3    29  SER29      -0.1217
      7  CA        17.9370   36.6930    7.6860 C.3    29  SER29       0.1889
      8  C         19.1670   36.1750    8.4250 C.2    29  SER29       0.2288
      9  O         19.5370   35.0310    8.2450 O.2    29  SER29      -0.2866
     10  CB        18.2630   36.6930    6.1650 C.3    29  SER29       0.2089
     11  OG        17.0710   37.0020    5.4300 O.3    29  SER29      -0.2183
     12  N         22.5160   33.4960    7.6200 N.3    34  ILE34      -0.1231
     13  CA        23.2500   34.4160    6.7700 C.3    34  ILE34       0.1678
     14  C         23.6240   35.6540    7.5060 C.2    34  ILE34       0.2434
     15  O         22.8080   36.5690    7.7680 O.2    34  ILE34      -0.2733
     16  CB        22.3470   34.8760    5.5520 C.3    34  ILE34       0.0265
     17  CG1       21.7270   33.6400    4.8780 C.3    34  ILE34       0.0019
     18  CG2       23.1830   35.7930    4.6340 C.3    34  ILE34       0.0020
     19  CD1       20.6950   33.9130    3.6790 C.3    34  ILE34       0.0001
     20  N         24.8570   35.7640    7.9330 N.am   35  PRO35      -0.2718
     21  CA        25.2560   37.0080    8.5830 C.3    35  PRO35       0.1535
     22  C         25.1880   38.2440    7.6970 C.2    35  PRO35       0.2599
     23  O         25.4260   38.1640    6.4600 O.2    35  PRO35      -0.2715
     24  CB        26.7820   36.7180    8.9420 C.3    35  PRO35       0.0310
     25  CG        26.9120   35.3390    8.8950 C.3    35  PRO35       0.0237
     26  CD        25.9770   34.7950    7.8180 C.3    35  PRO35       0.0939
     27  N         24.9520   39.4180    8.2700 N.am   36  ASP36      -0.1958
     28  CA        25.1350   40.6150    7.5100 C.3    36  ASP36       0.1840
     29  C         26.5860   40.5660    6.8750 C.2    36  ASP36       0.2622
     30  O         27.5000   40.0650    7.5440 O.2    36  ASP36      -0.2715
     31  CB        25.0780   41.8050    8.4920 C.3    36  ASP36       0.1450
     32  CG        25.1050   43.1330    7.8400 C.2    36  ASP36       0.3671
     33  OD1       26.1020   43.5500    7.2040 O.co2  36  ASP36      -0.2456
     34  OD2       24.1130   43.9030    8.0050 O.co2  36  ASP36      -0.2456
     35  N         26.7000   40.9760    5.6070 N.am   37  PHE37      -0.1960
     36  CA        28.0070   40.9110    4.8600 C.3    37  PHE37       0.1771
     37  C         29.0350   41.7300    5.6420 C.2    37  PHE37       0.2619
     38  O         30.2760   41.4320    5.5260 O.2    37  PHE37      -0.2715
     39  CB        27.8280   41.5340    3.4860 C.3    37  PHE37       0.0574
     40  CG        26.8720   40.7900    2.5830 C.ar   37  PHE37      -0.0200
     41  CD1       26.3980   39.5280    2.9220 C.ar   37  PHE37      -0.0042
     42  CD2       26.5050   41.3950    1.3920 C.ar   37  PHE37      -0.0042
     43  CE1       25.5430   38.7400    2.0420 C.ar   37  PHE37      -0.0003
     44  CE2       25.6170   40.6830    0.5390 C.ar   37  PHE37      -0.0003
     45  CZ        25.1330   39.3690    0.8720 C.ar   37  PHE37      -0.0000
     46  N         28.5910   42.7470    6.3870 N.am   38  ARG38      -0.1977
     47  CA        29.5090   43.6500    7.1380 C.3    38  ARG38       0.1597
     48  C         29.8620   43.0840    8.5390 C.2    38  ARG38       0.2287
     49  O         30.6000   43.7560    9.2790 O.2    38  ARG38      -0.2864
     50  CB        28.9030   45.0310    7.3220 C.3    38  ARG38       0.0334
     51  CG        28.6350   45.7920    5.9810 C.3    38  ARG38       0.0492
     52  CD        27.6170   46.8810    6.1030 C.3    38  ARG38       0.2205
     53  NE        26.2910   46.3050    6.4010 N.pl3  38  ARG38      -0.0865
     54  CZ        25.1920   47.0450    6.4650 C.cat  38  ARG38       0.5346
     55  NH1       24.0250   46.4990    6.7230 N.pl3  38  ARG38       0.1354
     56  NH2       25.2620   48.3510    6.2130 N.pl3  38  ARG38       0.1354
     57  N         32.2080   40.1930    3.6970 N.3    45  TYR45      -0.1241
     58  CA        33.1990   41.1540    3.3030 C.3    45  TYR45       0.1605
     59  C         34.4530   40.9340    4.1610 C.2    45  TYR45       0.2264
     60  O         35.4970   41.5250    3.8490 O.2    45  TYR45      -0.2867
     61  CB        32.6790   42.5660    3.5210 C.3    45  TYR45       0.0534
     62  CG        31.5260   43.0130    2.6150 C.ar   45  TYR45      -0.0201
     63  CD1       30.6460   43.9880    3.0230 C.ar   45  TYR45      -0.0009
     64  CD2       31.3910   42.5190    1.3070 C.ar   45  TYR45      -0.0009
     65  CE1       29.6870   44.4870    2.1990 C.ar   45  TYR45       0.0417
     66  CE2       30.3680   42.9360    0.5090 C.ar   45  TYR45       0.0417
     67  CZ        29.5330   43.9380    0.9330 C.ar   45  TYR45       0.1957
     68  OH        28.5310   44.4370    0.1210 O.3    45  TYR45      -0.2866
     69  N         30.7250   42.5740   -6.0760 N.3    60  PHE60      -0.1241
     70  CA        29.5740   43.1460   -6.8000 C.3    60  PHE60       0.1605
     71  C         29.9860   44.2390   -7.7050 C.2    60  PHE60       0.2264
     72  O         29.2380   45.1930   -7.9240 O.2    60  PHE60      -0.2867
     73  CB        28.5140   43.6790   -5.7680 C.3    60  PHE60       0.0534
     74  CG        28.0880   42.6620   -4.7930 C.ar   60  PHE60      -0.0203
     75  CD1       27.4720   41.4520   -5.2180 C.ar   60  PHE60      -0.0042
     76  CD2       28.1600   42.9180   -3.3900 C.ar   60  PHE60      -0.0042
     77  CE1       27.1060   40.4580   -4.3460 C.ar   60  PHE60      -0.0003
     78  CE2       27.6900   41.9220   -2.4520 C.ar   60  PHE60      -0.0003
     79  CZ        27.1870   40.6940   -2.9010 C.ar   60  PHE60      -0.0000
     80  N         24.0050   31.0370   -2.0570 N.3    79  LEU79      -0.1245
     81  CA        22.7080   31.7400   -1.8530 C.3    79  LEU79       0.1561
     82  C         21.5930   31.2230   -2.7450 C.2    79  LEU79       0.2260
     83  O         20.4820   31.6080   -2.5620 O.2    79  LEU79      -0.2867
     84  CB        22.8730   33.2150   -2.0970 C.3    79  LEU79       0.0270
     85  CG        23.7140   33.9210   -1.0160 C.3    79  LEU79       0.0019
     86  CD1       23.8570   35.4300   -1.2980 C.3    79  LEU79       0.0001
     87  CD2       23.1560   33.7180    0.4330 C.3    79  LEU79       0.0001
     88  N         15.8670   44.6020    0.7150 N.3   108  GLN108     -0.1231
     89  CA        17.2070   44.9440    0.3420 C.3   108  GLN108      0.1698
     90  C         18.0030   43.6090    0.2500 C.2   108  GLN108      0.2592
     91  O         19.1660   43.7130   -0.2020 O.2   108  GLN108     -0.2718
     92  CB        17.8110   45.7810    1.4170 C.3   108  GLN108      0.0381
     93  CG        17.0060   47.1980    1.4750 C.3   108  GLN108      0.0905
     94  CD        17.4430   47.9890    2.6800 C.2   108  GLN108      0.2608
     95  OE1       18.0370   49.0140    2.5370 O.2   108  GLN108     -0.2717
     96  NE2       17.3760   47.3630    3.8370 N.am  108  GLN108     -0.0878
     97  N         17.4360   42.4910    0.6960 N.am  109  ASN109     -0.1960
     98  CA        18.1950   41.2080    0.7690 C.3   109  ASN109      0.1819
     99  C         18.2980   40.6250   -0.6440 C.2   109  ASN109      0.2621
    100  O         17.4150   40.8340   -1.4970 O.2   109  ASN109     -0.2715
    101  CB        17.5890   40.1720    1.6810 C.3   109  ASN109      0.1195
    102  CG        17.6950   40.6660    3.1270 C.2   109  ASN109      0.2630
    103  OD1       18.5040   41.6190    3.4420 O.2   109  ASN109     -0.2716
    104  ND2       16.9180   40.0010    4.0130 N.am  109  ASN109     -0.0877
    105  N         19.3830   39.8830   -0.8790 N.am  110  ILE110     -0.1963
    106  CA        19.4560   39.0660   -2.1170 C.3   110  ILE110      0.1727
    107  C         19.3810   37.5720   -1.8910 C.2   110  ILE110      0.2616
    108  O         19.5140   36.7760   -2.7880 O.2   110  ILE110     -0.2715
    109  CB        20.7710   39.4110   -2.9000 C.3   110  ILE110      0.0290
    110  CG1       21.9360   39.0930   -2.0320 C.3   110  ILE110      0.0022
    111  CG2       20.8130   40.8470   -3.4320 C.3   110  ILE110      0.0023
    112  CD1       23.3210   39.1990   -2.8350 C.3   110  ILE110      0.0001
    113  N         19.0440   37.1200   -0.6780 N.am  111  ASP111     -0.1971
    114  CA        18.9290   35.7340   -0.4060 C.3   111  ASP111      0.1709
    115  C         17.6840   35.0630   -0.9460 C.2   111  ASP111      0.2293
    116  O         17.5470   33.8280   -0.9060 O.2   111  ASP111     -0.2864
    117  CB        19.0910   35.5070    1.1460 C.3   111  ASP111      0.1436
    118  CG        17.9480   36.2230    1.9900 C.2   111  ASP111      0.3671
    119  OD1       16.7640   36.3470    1.5270 O.co2 111  ASP111     -0.2456
    120  OD2       18.2780   36.7250    3.1300 O.co2 111  ASP111     -0.2456
    121  N         17.6460   44.9190   -4.7640 N.3   128  HIS128     -0.1241
    122  CA        19.0710   44.7000   -5.1740 C.3   128  HIS128      0.1621
    123  C         19.1130   43.4720   -6.0690 C.2   128  HIS128      0.2264
    124  O         20.2250   42.8930   -6.2730 O.2   128  HIS128     -0.2867
    125  CB        19.9760   44.4610   -3.9490 C.3   128  HIS128      0.0745
    126  CG        20.1390   45.6540   -3.0520 C.ar  128  HIS128      0.0817
    127  ND1       20.5270   46.9170   -3.4740 N.ar  128  HIS128     -0.2268
    128  CD2       19.9390   45.7580   -1.7190 C.ar  128  HIS128      0.1154
    129  CE1       20.6350   47.7210   -2.4190 C.ar  128  HIS128      0.1986
    130  NE2       20.2040   47.0550   -1.3630 N.ar  128  HIS128     -0.2212
    131  N         21.5420   39.9690   -9.8420 N.3   171  ILE171     -0.1231
    132  CA        21.9070   40.8270   -8.7210 C.3   171  ILE171      0.1692
    133  C         22.3780   42.1960   -9.2230 C.2   171  ILE171      0.2592
    134  O         23.0630   42.2880  -10.2860 O.2   171  ILE171     -0.2718
    135  CB        23.0720   40.1730   -7.9910 C.3   171  ILE171      0.0266
    136  CG1       22.6950   38.7750   -7.4820 C.3   171  ILE171      0.0019
    137  CG2       23.4810   41.0950   -6.8350 C.3   171  ILE171      0.0020
    138  CD1       21.3180   38.6850   -6.6130 C.3   171  ILE171      0.0001
    139  N         21.8670   43.2850   -8.6140 N.am  172  VAL172     -0.1966
    140  CA        22.2250   44.5950   -9.1030 C.3   172  VAL172      0.1727
    141  C         23.6150   44.9290   -8.5620 C.2   172  VAL172      0.2616
    142  O         23.8480   44.9230   -7.3780 O.2   172  VAL172     -0.2715
    143  CB        21.2560   45.6020   -8.5450 C.3   172  VAL172      0.0290
    144  CG1       21.6980   47.0160   -8.9230 C.3   172  VAL172      0.0023
    145  CG2       19.7720   45.2410   -8.9930 C.3   172  VAL172      0.0023
    146  N         24.5500   45.1630   -9.4540 N.am  173  PHE173     -0.1960
    147  CA        25.9130   45.4080   -8.9120 C.3   173  PHE173      0.1771
    148  C         26.1380   46.9100   -8.6110 C.2   173  PHE173      0.2620
    149  O         25.3520   47.8100   -9.0630 O.2   173  PHE173     -0.2715
    150  CB        26.9320   44.9540  -10.0020 C.3   173  PHE173      0.0574
    151  CG        27.2640   43.5100   -9.9140 C.ar  173  PHE173     -0.0200
    152  CD1       26.4460   42.5990   -9.2340 C.ar  173  PHE173     -0.0042
    153  CD2       28.4860   43.0490  -10.4460 C.ar  173  PHE173     -0.0042
    154  CE1       26.7710   41.2230   -9.0950 C.ar  173  PHE173     -0.0003
    155  CE2       28.8460   41.6620  -10.3330 C.ar  173  PHE173     -0.0003
    156  CZ        28.0440   40.7090   -9.6480 C.ar  173  PHE173     -0.0000
    157  N         27.2450   47.1770   -7.9100 N.am  174  PHE174     -0.1960
    158  CA        27.5430   48.6040   -7.5930 C.3   174  PHE174      0.1771
    159  C         27.5230   49.5720   -8.7880 C.2   174  PHE174      0.2620
    160  O         27.9910   49.2460   -9.8610 O.2   174  PHE174     -0.2715
    161  CB        28.8640   48.7240   -6.8200 C.3   174  PHE174      0.0574
    162  CG        28.8690   48.0270   -5.4690 C.ar  174  PHE174     -0.0200
    163  CD1       27.9020   48.2580   -4.4620 C.ar  174  PHE174     -0.0042
    164  CD2       29.8890   47.1590   -5.1850 C.ar  174  PHE174     -0.0042
    165  CE1       27.9470   47.6220   -3.2690 C.ar  174  PHE174     -0.0003
    166  CE2       29.9490   46.5130   -4.0020 C.ar  174  PHE174     -0.0003
    167  CZ        29.0080   46.7280   -2.9870 C.ar  174  PHE174     -0.0000
    168  N         26.9710   50.7900   -8.5820 N.am  175  GLY175     -0.1940
    169  CA        26.8260   51.7460   -9.6890 C.3   175  GLY175      0.2014
    170  C         25.7200   51.5130  -10.7440 C.2   175  GLY175      0.2639
    171  O         25.4870   52.3960  -11.5860 O.2   175  GLY175     -0.2714
    172  N         25.0110   50.3790  -10.7490 N.am  176  GLU176     -0.1963
    173  CA        23.9450   50.1340  -11.6900 C.3   176  GLU176      0.1718
    174  C         22.6490   50.7220  -11.1210 C.2   176  GLU176      0.2458
    175  O         22.5280   50.8680   -9.8860 O.2   176  GLU176     -0.2730
    176  CB        23.6670   48.6960  -11.8270 C.3   176  GLU176      0.0428
    177  CG        24.9150   47.8770  -12.3880 C.3   176  GLU176      0.1163
    178  CD        24.4800   46.4660  -12.9520 C.2   176  GLU176      0.3649
    179  OE1       24.4760   46.2880  -14.2120 O.co2 176  GLU176     -0.2457
    180  OE2       24.1700   45.5070  -12.1810 O.co2 176  GLU176     -0.2457
    181  N         21.7050   50.9790  -11.9830 N.am  177  PRO177     -0.2716
    182  CA        20.4090   51.5230  -11.4390 C.3   177  PRO177      0.1536
    183  C         19.6580   50.4120  -10.6890 C.2   177  PRO177      0.2598
    184  O         19.7670   49.2070  -11.0280 O.2   177  PRO177     -0.2715
    185  CB        19.5930   51.8970  -12.6920 C.3   177  PRO177      0.0310
    186  CG        20.2580   51.0990  -13.9640 C.3   177  PRO177      0.0237
    187  CD        21.7040   50.6690  -13.4380 C.3   177  PRO177      0.0939
    188  N         18.7820   50.8110   -9.7480 N.am  178  LEU178     -0.1978
    189  CA        17.8570   49.8080   -9.2170 C.3   178  LEU178      0.1596
    190  C         16.8850   49.2870  -10.2660 C.2   178  LEU178      0.2287
    191  O         16.6960   49.9070  -11.3450 O.2   178  LEU178     -0.2864
    192  CB        17.1600   50.3880   -7.9610 C.3   178  LEU178      0.0297
    193  CG        18.0950   50.8700   -6.8590 C.3   178  LEU178      0.0022
    194  CD1       17.2920   51.2300   -5.5890 C.3   178  LEU178      0.0001
    195  CD2       19.0620   49.7720   -6.4810 C.3   178  LEU178      0.0001
    196  N         20.2470   55.7450    1.3090 N.3   205  GLU205     -0.1231
    197  CA        19.3600   56.1510    0.2150 C.3   205  GLU205      0.1684
    198  C         19.4220   55.1990   -0.9910 C.2   205  GLU205      0.2434
    199  O         20.5100   54.6080   -1.2350 O.2   205  GLU205     -0.2733
    200  CB        19.7350   57.5750   -0.2700 C.3   205  GLU205      0.0402
    201  CG        19.5150   58.6840    0.7790 C.3   205  GLU205      0.1161
    202  CD        17.9930   59.0090    0.9270 C.2   205  GLU205      0.3649
    203  OE1       17.1540   58.1950    0.4760 O.co2 205  GLU205     -0.2457
    204  OE2       17.6340   60.0850    1.4650 O.co2 205  GLU205     -0.2457
    205  N         18.3350   55.0570   -1.7990 N.am  206  PRO206     -0.2718
    206  CA        17.0540   55.8030   -1.8330 C.3   206  PRO206      0.1535
    207  C         16.0440   55.2700   -0.8080 C.2   206  PRO206      0.2598
    208  O         14.9060   55.7840   -0.7530 O.2   206  PRO206     -0.2715
    209  CB        16.4960   55.4720   -3.2290 C.3   206  PRO206      0.0310
    210  CG        17.0800   54.0430   -3.5430 C.3   206  PRO206      0.0237
    211  CD        18.4550   54.1200   -2.9530 C.3   206  PRO206      0.0939
    212  N         16.4110   54.2520   -0.0110 N.am  207  PHE207     -0.1974
    213  CA        15.4450   53.6540    0.9670 C.3   207  PHE207      0.1639
    214  C         15.0960   54.6200    2.0600 C.2   207  PHE207      0.2290
    215  O         13.9630   54.6260    2.5750 O.2   207  PHE207     -0.2864
    216  CB        16.0110   52.3310    1.5030 C.3   207  PHE207      0.0560
    217  CG        16.3630   51.3970    0.4210 C.ar  207  PHE207     -0.0200
    218  CD1       17.7190   51.2480    0.0100 C.ar  207  PHE207     -0.0042
    219  CD2       15.3390   50.7010   -0.2510 C.ar  207  PHE207     -0.0042
    220  CE1       18.0190   50.4240   -1.0220 C.ar  207  PHE207     -0.0003
    221  CE2       15.6220   49.8740   -1.3410 C.ar  207  PHE207     -0.0003
    222  CZ        16.9770   49.7440   -1.7250 C.ar  207  PHE207     -0.0000
@<TRIPOS>BOND
     1   179   178   ar
     2   186   187    1
     3   186   185    1
     4   187   181    1
     5   178   177    1
     6   178   180   ar
     7   185   182    1
     8   177   176    1
     9   181   182    1
    10   181   174   am
    11   176   173    1
    12   173   174    1
    13   173   172    1
    14   171   170    2
    15   182   183    1
    16   191   190    2
    17   174   175    2
    18   184   183    2
    19   172   170   am
    20   170   169    1
    21   183   188   am
    22   153   155   ar
    23   153   151   ar
    24   155   156   ar
    25   134   133    2
    26   190   189    1
    27   150   151    1
    28   150   147    1
    29   151   152   ar
    30   160   159    2
    31   131   132    1
    32   188   189    1
    33   169   168    1
    34   156   154   ar
    35   146   147    1
    36   146   141   am
    37   152   154   ar
    38   133   132    1
    39   133   139   am
    40   189   192    1
    41   140   139    1
    42   140   141    1
    43   140   143    1
    44   149   148    2
    45   145   143    1
    46   144   143    1
    47   147   148    1
    48   159   168   am
    49   159   158    1
    50   132   135    1
    51   148   157   am
    52   141   142    2
    53   135   136    1
    54   135   137    1
    55   192   193    1
    56    72    71    2
    57   157   158    1
    58    71    70    1
    59   158   161    1
    60   136   138    1
    61   193   195    1
    62   193   194    1
    63   161   162    1
    64    70    69    1
    65    70    73    1
    66   124   123    2
    67   123   122    1
    68    73    74    1
    69   162   164   ar
    70   162   163   ar
    71    75    74   ar
    72    75    77   ar
    73   164   166   ar
    74   122   121    1
    75   122   125    1
    76    74    76   ar
    77   163   165   ar
    78    77    79   ar
    79   166   167   ar
    80   125   126    1
    81   210   209    1
    82   210   211    1
    83   127   126   ar
    84   127   129   ar
    85   111   109    1
    86    76    78   ar
    87   165   167   ar
    88   209   206    1
    89   126   128   ar
    90   211   205    1
    91    79    78   ar
    92   109   106    1
    93   109   110    1
    94   112   110    1
    95   108   107    2
    96    82    83    2
    97    82    81    1
    98   129   130   ar
    99   106   107    1
   100   106   105    1
   101    84    81    1
   102    84    85    1
   103    80    81    1
   104   107   113   am
   105   206   205    1
   106   206   207    1
   107   205   198   am
   108   222   221   ar
   109   222   220   ar
   110   128   130   ar
   111   100    99    2
   112   221   219   ar
   113    86    85    1
   114   199   198    2
   115   220   218   ar
   116    85    87    1
   117   198   197    1
   118   115   116    2
   119   115   114    1
   120   105    99   am
   121   207   208    2
   122   207   212   am
   123   113   114    1
   124    99    98    1
   125   114   117    1
   126   200   197    1
   127   200   201    1
   128   219   217   ar
   129    91    90    2
   130   212   213    1
   131   218   217   ar
   132    68    67    1
   133   197   196    1
   134    90    89    1
   135    90    97   am
   136    89    88    1
   137    89    92    1
   138   217   216    1
   139   203   202   ar
   140    66    67   ar
   141    66    64   ar
   142    44    45   ar
   143    44    42   ar
   144    97    98    1
   145    98   101    1
   146   201   202    1
   147    45    43   ar
   148   202   204   ar
   149    67    65   ar
   150   213   216    1
   151   213   214    1
   152   117   118    1
   153    64    62   ar
   154    42    40   ar
   155    92    93    1
   156    93    94    1
   157   119   118   ar
   158   101   102    1
   159   118   120   ar
   160    43    41   ar
   161   214   215    2
   162    65    63   ar
   163    95    94    2
   164    40    41   ar
   165    40    39    1
   166    62    63   ar
   167    62    61    1
   168    94    96   am
   169   102   103    2
   170   102   104   am
   171    58    61    1
   172    58    57    1
   173    58    59    1
   174    39    36    1
   175    19    17    1
   176    60    59    2
   177    18    16    1
   178    36    35    1
   179    36    37    1
   180    17    16    1
   181    11    10    1
   182    38    37    2
   183    16    13    1
   184    35    29   am
   185    37    46   am
   186    51    52    1
   187    51    50    1
   188     1     2    1
   189    52    53    1
   190    10     7    1
   191    56    54    1
   192    46    47    1
   193    53    54    2
   194    23    22    2
   195    54    55    1
   196     2     5    1
   197     2     3    1
   198    13    14    1
   199    13    12    1
   200    29    28    1
   201    29    30    2
   202    47    50    1
   203    47    48    1
   204    33    32   ar
   205    14    15    2
   206    14    20   am
   207    28    27    1
   208    28    31    1
   209     7     6    1
   210     7     8    1
   211    22    27   am
   212    22    21    1
   213    26    20    1
   214    26    25    1
   215     3     4    2
   216    32    34   ar
   217    32    31    1
   218    20    21    1
   219     9     8    2
   220    48    49    2
   221    21    24    1
   222    25    24    1
