@<TRIPOS>MOLECULE
tmp/4jsuH00.pdb
 135 127 0 0 0
SMALL
GASTEIGER

@<TRIPOS>ATOM
      1  N         64.3750 -139.8960   44.8340 N.3     1  THR1       -0.1218
      2  CA        64.8640 -138.7570   45.6650 C.3     1  THR1        0.1862
      3  C         64.9360 -139.1430   47.1420 C.2     1  THR1        0.2287
      4  O         64.0160 -139.7630   47.6780 O.2     1  THR1       -0.2866
      5  CB        63.9780 -137.5040   45.4820 C.3     1  THR1        0.1770
      6  OG1       64.0020 -137.0970   44.1090 O.3     1  THR1       -0.2211
      7  CG2       64.4680 -136.3480   46.3490 C.3     1  THR1        0.0375
      8  N         70.2880 -137.1920   42.1710 N.3    19  ARG19      -0.1231
      9  CA        69.7810 -137.9240   41.0090 C.3    19  ARG19       0.1694
     10  C         68.3970 -137.4420   40.5700 C.2    19  ARG19       0.2593
     11  O         67.4470 -137.4440   41.3570 O.2    19  ARG19      -0.2718
     12  CB        69.7630 -139.4340   41.2770 C.3    19  ARG19       0.0321
     13  CG        69.2370 -140.2630   40.1120 C.3    19  ARG19       0.0489
     14  CD        69.1280 -141.7360   40.4630 C.3    19  ARG19       0.2205
     15  NE        70.3950 -142.4410   40.2840 N.pl3  19  ARG19      -0.0865
     16  CZ        70.5510 -143.7560   40.4170 C.cat  19  ARG19       0.5346
     17  NH1       69.5200 -144.5260   40.7360 N.pl3  19  ARG19       0.1354
     18  NH2       71.7440 -144.3020   40.2300 N.pl3  19  ARG19       0.1354
     19  N         68.2990 -137.0370   39.3060 N.am   20  SER20      -0.1938
     20  CA        67.0240 -136.6800   38.6910 C.3    20  SER20       0.2055
     21  C         66.6580 -137.7240   37.6400 C.2    20  SER20       0.2644
     22  O         67.4640 -138.0370   36.7600 O.2    20  SER20      -0.2714
     23  CB        67.0990 -135.2870   38.0640 C.3    20  SER20       0.2130
     24  OG        65.8670 -134.9240   37.4650 O.3    20  SER20      -0.2179
     25  N         65.4440 -138.2630   37.7370 N.am   21  THR21      -0.1936
     26  CA        65.0210 -139.3660   36.8710 C.3    21  THR21       0.2028
     27  C         63.7280 -139.1020   36.1050 C.2    21  THR21       0.2642
     28  O         62.7850 -138.5070   36.6330 O.2    21  THR21      -0.2714
     29  CB        64.8550 -140.6850   37.6580 C.3    21  THR21       0.1808
     30  OG1       64.0470 -140.4580   38.8200 O.3    21  THR21      -0.2208
     31  CG2       66.2070 -141.2450   38.0780 C.3    21  THR21       0.0379
     32  N         63.7060 -139.5550   34.8540 N.am   22  GLN22      -0.1963
     33  CA        62.4900 -139.6110   34.0500 C.3    22  GLN22       0.1733
     34  C         62.2000 -141.0760   33.7490 C.2    22  GLN22       0.2616
     35  O         62.7630 -141.6540   32.8140 O.2    22  GLN22      -0.2715
     36  CB        62.6470 -138.8150   32.7510 C.3    22  GLN22       0.0408
     37  CG        62.8520 -137.3190   32.9440 C.3    22  GLN22       0.0908
     38  CD        62.7420 -136.5250   31.6520 C.2    22  GLN22       0.2608
     39  OE1       62.6110 -135.3010   31.6780 O.2    22  GLN22      -0.2717
     40  NE2       62.7940 -137.2160   30.5160 N.am   22  GLN22      -0.0878
     41  N         61.3290 -141.6750   34.5580 N.am   23  GLY23      -0.1955
     42  CA        61.0790 -143.1120   34.4980 C.3    23  GLY23       0.1869
     43  C         62.2820 -143.8720   35.0300 C.2    23  GLY23       0.2309
     44  O         62.7280 -143.6140   36.1510 O.2    23  GLY23      -0.2863
     45  N         68.0970 -138.4700   34.0970 N.3    27  ALA27      -0.1245
     46  CA        68.1680 -137.2480   33.2970 C.3    27  ALA27       0.1562
     47  C         69.3230 -136.3480   33.7380 C.2    27  ALA27       0.2260
     48  O         70.0460 -135.8000   32.9030 O.2    27  ALA27      -0.2867
     49  CB        66.8460 -136.4960   33.3520 C.3    27  ALA27       0.0290
     50  N         72.0330 -132.9430   40.0010 N.3    31  CYS31      -0.1221
     51  CA        71.1150 -131.8170   40.1590 C.3    31  CYS31       0.1808
     52  C         71.1580 -131.2900   41.5920 C.2    31  CYS31       0.2601
     53  O         71.7010 -131.9430   42.4850 O.2    31  CYS31      -0.2717
     54  CB        69.6880 -132.2260   39.7810 C.3    31  CYS31       0.0970
     55  SG        68.9670 -133.5020   40.8380 S.3    31  CYS31      -0.0800
     56  N         70.5890 -130.1060   41.8030 N.am   32  ALA32      -0.1965
     57  CA        70.5310 -129.5000   43.1310 C.3    32  ALA32       0.1728
     58  C         69.1070 -129.5310   43.6820 C.2    32  ALA32       0.2616
     59  O         68.2050 -128.8880   43.1380 O.2    32  ALA32      -0.2715
     60  CB        71.0670 -128.0760   43.0900 C.3    32  ALA32       0.0334
     61  N         68.9160 -130.2880   44.7590 N.am   33  LYS33      -0.1977
     62  CA        67.5970 -130.4570   45.3720 C.3    33  LYS33       0.1596
     63  C         67.4170 -129.5670   46.6010 C.2    33  LYS33       0.2287
     64  O         66.3020 -129.4090   47.1060 O.2    33  LYS33      -0.2864
     65  CB        67.3490 -131.9270   45.7210 C.3    33  LYS33       0.0298
     66  CG        67.4400 -132.8600   44.5240 C.3    33  LYS33       0.0038
     67  CD        67.1330 -134.2980   44.8970 C.3    33  LYS33       0.0206
     68  CE        67.4490 -135.2260   43.7380 C.3    33  LYS33       0.1093
     69  NZ        67.0050 -136.6240   43.9830 N.3    33  LYS33      -0.1314
     70  N         67.1350 -126.0420   47.9800 N.3    35  HIS35      -0.1241
     71  CA        66.7620 -124.7140   47.5060 C.3    35  HIS35       0.1621
     72  C         66.7590 -123.7180   48.6260 C.2    35  HIS35       0.2264
     73  O         66.4460 -124.0520   49.7700 O.2    35  HIS35      -0.2867
     74  CB        65.3890 -124.7410   46.8440 C.3    35  HIS35       0.0745
     75  CG        65.1890 -125.8880   45.8830 C.ar   35  HIS35       0.0817
     76  ND1       65.9160 -126.0290   44.7600 N.ar   35  HIS35      -0.2268
     77  CD2       64.2920 -126.9550   45.9080 C.ar   35  HIS35       0.1154
     78  CE1       65.5150 -127.1350   44.1040 C.ar   35  HIS35       0.1986
     79  NE2       64.5200 -127.6990   44.8070 N.ar   35  HIS35      -0.2212
     80  N         63.5740 -130.6240   48.3650 N.3    45  GLY45      -0.1210
     81  CA        62.3930 -130.9690   47.5750 C.3    45  GLY45       0.1956
     82  C         62.3920 -132.3460   46.9390 C.2    45  GLY45       0.2612
     83  O         63.4000 -132.7890   46.3840 O.2    45  GLY45      -0.2717
     84  N         61.2420 -133.0130   47.0190 N.am   46  ALA46      -0.1965
     85  CA        61.0290 -134.3210   46.4050 C.3    46  ALA46       0.1728
     86  C         59.7050 -134.3430   45.6450 C.2    46  ALA46       0.2617
     87  O         58.7620 -133.6370   46.0080 O.2    46  ALA46      -0.2715
     88  CB        61.0530 -135.4130   47.4630 C.3    46  ALA46       0.0334
     89  N         59.6390 -135.1590   44.5950 N.am   47  GLY47      -0.1940
     90  CA        58.4470 -135.2500   43.7510 C.3    47  GLY47       0.2014
     91  C         58.6640 -134.5750   42.4120 C.2    47  GLY47       0.2640
     92  O         59.7710 -134.6110   41.8690 O.2    47  GLY47      -0.2714
     93  N         57.6080 -133.9600   41.8800 N.am   48  THR48      -0.1936
     94  CA        57.6870 -133.2270   40.6160 C.3    48  THR48       0.2028
     95  C         58.7090 -132.0960   40.7430 C.2    48  THR48       0.2642
     96  O         58.4930 -131.1250   41.4730 O.2    48  THR48      -0.2714
     97  CB        56.3100 -132.6800   40.1810 C.3    48  THR48       0.1808
     98  OG1       55.3490 -133.7430   40.1810 O.3    48  THR48      -0.2208
     99  CG2       56.3820 -132.0750   38.7850 C.3    48  THR48       0.0379
    100  N         59.8240 -132.2500   40.0320 N.am   49  ALA49      -0.1963
    101  CA        60.9870 -131.3710   40.1660 C.3    49  ALA49       0.1728
    102  C         60.6960 -129.8990   39.8680 C.2    49  ALA49       0.2616
    103  O         61.1480 -129.0160   40.6020 O.2    49  ALA49      -0.2715
    104  CB        62.1290 -131.8780   39.3000 C.3    49  ALA49       0.0334
    105  N         59.9430 -129.6440   38.7990 N.am   50  ALA50      -0.1977
    106  CA        59.5630 -128.2820   38.4210 C.3    50  ALA50       0.1597
    107  C         58.6100 -127.6550   39.4370 C.2    50  ALA50       0.2287
    108  O         58.6270 -126.4410   39.6400 O.2    50  ALA50      -0.2864
    109  CB        58.9470 -128.2640   37.0320 C.3    50  ALA50       0.0319
    110  N         58.5060 -128.4520   42.8560 N.3    52  THR52      -0.1203
    111  CA        59.2940 -128.1640   44.0600 C.3    52  THR52       0.1994
    112  C         60.1750 -126.9290   43.8850 C.2    52  THR52       0.2617
    113  O         60.4130 -126.1920   44.8420 O.2    52  THR52      -0.2717
    114  CB        60.1890 -129.3540   44.4680 C.3    52  THR52       0.1784
    115  OG1       61.0710 -129.6900   43.3880 O.3    52  THR52      -0.2211
    116  CG2       59.3490 -130.5680   44.8320 C.3    52  THR52       0.0376
    117  N         60.6500 -126.7160   42.6590 N.am   53  GLU53      -0.1979
    118  CA        61.4850 -125.5650   42.3290 C.3    53  GLU53       0.1602
    119  C         60.6760 -124.2670   42.2980 C.2    53  GLU53       0.2287
    120  O         61.0570 -123.2790   42.9290 O.2    53  GLU53      -0.2864
    121  CB        62.2030 -125.7890   40.9900 C.3    53  GLU53       0.0415
    122  CG        63.0620 -124.6230   40.5140 C.3    53  GLU53       0.1163
    123  CD        64.2590 -124.3540   41.4090 C.2    53  GLU53       0.3649
    124  OE1       65.0580 -125.2860   41.6400 O.co2  53  GLU53      -0.2457
    125  OE2       64.4060 -123.2040   41.8740 O.co2  53  GLU53      -0.2457
    126  N         61.4500 -141.2440   47.4360 N.3   129  SER129     -0.1217
    127  CA        61.4650 -142.6870   47.1840 C.3   129  SER129      0.1889
    128  C         62.4780 -143.4090   48.0720 C.2   129  SER129      0.2288
    129  O         62.3170 -144.5950   48.3710 O.2   129  SER129     -0.2866
    130  CB        61.7360 -142.9790   45.7050 C.3   129  SER129      0.2089
    131  OG        62.9170 -142.3370   45.2600 O.3   129  SER129     -0.2183
    132  N         65.4860 -144.7620   42.8690 N.3   168  GLY168     -0.1225
    133  CA        65.0800 -143.3870   42.5840 C.3   168  GLY168      0.1811
    134  C         66.0870 -142.3590   43.0690 C.2   168  GLY168      0.2280
    135  O         65.9190 -141.1590   42.8370 O.2   168  GLY168     -0.2866
@<TRIPOS>BOND
     1    40    38   am
     2    38    39    2
     3    38    37    1
     4    36    37    1
     5    36    33    1
     6    35    34    2
     7    48    47    2
     8    46    49    1
     9    46    47    1
    10    46    45    1
    11    34    33    1
    12    34    41   am
    13    33    32    1
    14    42    41    1
    15    42    43    1
    16    32    27   am
    17    43    44    2
    18    27    28    2
    19    27    26    1
    20    22    21    2
    21    26    29    1
    22    26    25    1
    23   109   106    1
    24    24    23    1
    25    21    25   am
    26    21    20    1
    27    29    31    1
    28    29    30    1
    29    23    20    1
    30   106   105    1
    31   106   107    1
    32    20    19    1
    33    99    97    1
    34   105   102   am
    35   104   101    1
    36    19    10   am
    37   107   108    2
    38    54    51    1
    39    54    55    1
    40   102   101    1
    41   102   103    2
    42    50    51    1
    43   100   101    1
    44   100    95   am
    45    13    14    1
    46    13    12    1
    47    51    52    1
    48    97    98    1
    49    97    94    1
    50    18    16    1
    51    15    16    2
    52    15    14    1
    53    16    17    1
    54   122   121    1
    55   122   123    1
    56    10     9    1
    57    10    11    2
    58    94    95    1
    59    94    93    1
    60    95    96    2
    61   121   118    1
    62     9    12    1
    63     9     8    1
    64   123   124   ar
    65   123   125   ar
    66    52    56   am
    67    52    53    2
    68    56    57    1
    69    92    91    2
    70    93    91   am
    71   119   118    1
    72   119   120    2
    73   118   117    1
    74    91    90    1
    75   133   132    1
    76   133   134    1
    77   117   112   am
    78   135   134    2
    79   110   111    1
    80    60    57    1
    81    57    58    1
    82    59    58    2
    83   115   114    1
    84    58    61   am
    85    68    69    1
    86    68    67    1
    87    90    89    1
    88   112   111    1
    89   112   113    2
    90   111   114    1
    91    78    76   ar
    92    78    79   ar
    93     6     5    1
    94   114   116    1
    95    66    67    1
    96    66    65    1
    97    89    86   am
    98    61    62    1
    99    76    75   ar
   100    79    77   ar
   101     1     2    1
   102   131   130    1
   103    62    65    1
   104    62    63    1
   105     5     2    1
   106     5     7    1
   107    86    87    2
   108    86    85    1
   109     2     3    1
   110   130   127    1
   111    75    77   ar
   112    75    74    1
   113    83    82    2
   114    85    84    1
   115    85    88    1
   116    63    64    2
   117    74    71    1
   118    82    84   am
   119    82    81    1
   120     3     4    2
   121   127   126    1
   122   127   128    1
   123    71    70    1
   124    71    72    1
   125    81    80    1
   126   128   129    2
   127    72    73    2
