@<TRIPOS>MOLECULE
tmp/4jsuZ00.pdb
 111 111 0 0 0
SMALL
GASTEIGER

@<TRIPOS>ATOM
      1  N         52.8390 -161.3170   35.6550 N.3     5  TYR5       -0.1241
      2  CA        54.1330 -160.8060   35.2060 C.3     5  TYR5        0.1605
      3  C         54.7400 -159.7480   36.1240 C.2     5  TYR5        0.2264
      4  O         54.0340 -159.0730   36.8760 O.2     5  TYR5       -0.2867
      5  CB        54.0310 -160.2550   33.7800 C.3     5  TYR5        0.0534
      6  CG        53.6910 -161.2940   32.7360 C.ar    5  TYR5       -0.0201
      7  CD1       52.5140 -161.2040   31.9950 C.ar    5  TYR5       -0.0009
      8  CD2       54.5460 -162.3690   32.4900 C.ar    5  TYR5       -0.0009
      9  CE1       52.1990 -162.1530   31.0360 C.ar    5  TYR5        0.0417
     10  CE2       54.2370 -163.3240   31.5360 C.ar    5  TYR5        0.0417
     11  CZ        53.0650 -163.2110   30.8130 C.ar    5  TYR5        0.1957
     12  OH        52.7580 -164.1560   29.8640 O.3     5  TYR5       -0.2866
     13  N         52.8340 -169.2200   23.2040 N.3   101  ARG101     -0.1231
     14  CA        52.4720 -168.0620   22.3800 C.3   101  ARG101      0.1694
     15  C         51.3600 -167.2100   23.0050 C.2   101  ARG101      0.2592
     16  O         51.3760 -165.9810   22.8950 O.2   101  ARG101     -0.2718
     17  CB        52.0930 -168.5260   20.9610 C.3   101  ARG101      0.0321
     18  CG        51.3720 -167.5140   20.0760 C.3   101  ARG101      0.0489
     19  CD        52.2370 -166.3150   19.7080 C.3   101  ARG101      0.2205
     20  NE        51.5280 -165.3890   18.8250 N.pl3 101  ARG101     -0.0865
     21  CZ        50.6520 -164.4700   19.2280 C.cat 101  ARG101      0.5346
     22  NH1       50.3560 -164.3330   20.5150 N.pl3 101  ARG101      0.1354
     23  NH2       50.0660 -163.6840   18.3360 N.pl3 101  ARG101      0.1354
     24  N         50.4110 -167.8650   23.6690 N.am  102  PHE102     -0.1962
     25  CA        49.2650 -167.1710   24.2570 C.3   102  PHE102      0.1771
     26  C         49.3700 -167.0050   25.7780 C.2   102  PHE102      0.2620
     27  O         48.3870 -166.6790   26.4500 O.2   102  PHE102     -0.2715
     28  CB        47.9580 -167.8530   23.8380 C.3   102  PHE102      0.0574
     29  CG        47.8030 -167.9900   22.3460 C.ar  102  PHE102     -0.0200
     30  CD1       47.6740 -166.8620   21.5390 C.ar  102  PHE102     -0.0042
     31  CD2       47.7920 -169.2450   21.7460 C.ar  102  PHE102     -0.0042
     32  CE1       47.5370 -166.9830   20.1640 C.ar  102  PHE102     -0.0003
     33  CE2       47.6530 -169.3720   20.3710 C.ar  102  PHE102     -0.0003
     34  CZ        47.5250 -168.2400   19.5790 C.ar  102  PHE102     -0.0000
     35  N         50.5740 -167.2320   26.3000 N.am  103  PHE103     -0.1960
     36  CA        50.9350 -166.9430   27.6900 C.3   103  PHE103      0.1756
     37  C         52.4660 -166.8850   27.7600 C.2   103  PHE103      0.2461
     38  O         53.0950 -167.7360   28.3890 O.2   103  PHE103     -0.2730
     39  CB        50.3490 -168.0020   28.6410 C.3   103  PHE103      0.0574
     40  CG        50.5050 -167.6780   30.1070 C.ar  103  PHE103     -0.0200
     41  CD1       50.5400 -166.3600   30.5580 C.ar  103  PHE103     -0.0042
     42  CD2       50.5840 -168.7030   31.0440 C.ar  103  PHE103     -0.0042
     43  CE1       50.6780 -166.0740   31.9090 C.ar  103  PHE103     -0.0003
     44  CE2       50.7180 -168.4230   32.3970 C.ar  103  PHE103     -0.0003
     45  CZ        50.7650 -167.1070   32.8300 C.ar  103  PHE103     -0.0000
     46  N         53.0670 -165.8670   27.1060 N.am  104  PRO104     -0.2727
     47  CA        54.4980 -165.8410   26.7720 C.3   104  PRO104      0.1402
     48  C         55.4660 -165.7760   27.9490 C.2   104  PRO104      0.2269
     49  O         55.1290 -165.2430   29.0080 O.2   104  PRO104     -0.2865
     50  CB        54.6430 -164.5660   25.9240 C.3   104  PRO104      0.0296
     51  CG        53.2570 -164.1940   25.5180 C.3   104  PRO104      0.0237
     52  CD        52.3940 -164.6360   26.6560 C.3   104  PRO104      0.0939
     53  N         57.8790 -163.7520   29.3510 N.3   106  TYR106     -0.1241
     54  CA        58.1470 -162.3150   29.2430 C.3   106  TYR106      0.1605
     55  C         59.6370 -161.9890   29.3410 C.2   106  TYR106      0.2264
     56  O         60.0820 -161.3220   30.2790 O.2   106  TYR106     -0.2867
     57  CB        57.3460 -161.5380   30.2940 C.3   106  TYR106      0.0534
     58  CG        56.1580 -160.7750   29.7440 C.ar  106  TYR106     -0.0201
     59  CD1       55.2680 -161.3670   28.8450 C.ar  106  TYR106     -0.0009
     60  CD2       55.9170 -159.4580   30.1360 C.ar  106  TYR106     -0.0009
     61  CE1       54.1800 -160.6670   28.3460 C.ar  106  TYR106      0.0417
     62  CE2       54.8300 -158.7500   29.6440 C.ar  106  TYR106      0.0417
     63  CZ        53.9660 -159.3590   28.7500 C.ar  106  TYR106      0.1957
     64  OH        52.8870 -158.6600   28.2590 O.3   106  TYR106     -0.2866
     65  N         63.4660 -161.2410   26.8710 N.3   108  HIS108     -0.1241
     66  CA        64.2930 -161.1440   25.6750 C.3   108  HIS108      0.1621
     67  C         65.4690 -162.0530   25.8690 C.2   108  HIS108      0.2264
     68  O         66.3270 -161.7970   26.7180 O.2   108  HIS108     -0.2867
     69  CB        64.7600 -159.7130   25.4310 C.3   108  HIS108      0.0745
     70  CG        63.6680 -158.7800   24.9640 C.ar  108  HIS108      0.0817
     71  ND1       63.3340 -157.6640   25.6360 N.ar  108  HIS108     -0.2268
     72  CD2       62.8330 -158.8320   23.8480 C.ar  108  HIS108      0.1154
     73  CE1       62.3370 -157.0310   24.9890 C.ar  108  HIS108      0.1986
     74  NE2       62.0310 -157.7480   23.8950 N.ar  108  HIS108     -0.2212
     75  N         62.6430 -163.1070   20.2190 N.3   126  ASP126     -0.1225
     76  CA        61.4450 -162.3620   20.5770 C.3   126  ASP126      0.1790
     77  C         60.8500 -163.0390   21.8120 C.2   126  ASP126      0.2440
     78  O         61.1220 -164.2190   22.0490 O.2   126  ASP126     -0.2733
     79  CB        60.4500 -162.4590   19.4190 C.3   126  ASP126      0.1423
     80  CG        59.5000 -161.2800   19.3420 C.2   126  ASP126      0.3668
     81  OD1       58.3610 -161.4780   18.8720 O.co2 126  ASP126     -0.2456
     82  OD2       59.8860 -160.1580   19.7300 O.co2 126  ASP126     -0.2456
     83  N         60.0500 -162.3040   22.6150 N.am  127  PRO127     -0.2718
     84  CA        59.3160 -162.9610   23.7010 C.3   127  PRO127      0.1535
     85  C         58.4790 -164.1640   23.2530 C.2   127  PRO127      0.2598
     86  O         58.1470 -165.0160   24.0780 O.2   127  PRO127     -0.2715
     87  CB        58.4000 -161.8520   24.2150 C.3   127  PRO127      0.0310
     88  CG        59.1810 -160.6070   23.9850 C.3   127  PRO127      0.0237
     89  CD        59.9920 -160.8330   22.7360 C.3   127  PRO127      0.0939
     90  N         58.1560 -164.2340   21.9620 N.am  128  VAL128     -0.1978
     91  CA        57.3330 -165.3270   21.4310 C.3   128  VAL128      0.1596
     92  C         58.0260 -166.2240   20.3890 C.2   128  VAL128      0.2287
     93  O         57.3670 -167.0190   19.7170 O.2   128  VAL128     -0.2864
     94  CB        55.9590 -164.8310   20.9120 C.3   128  VAL128      0.0276
     95  CG1       54.9980 -164.6150   22.0730 C.3   128  VAL128      0.0022
     96  CG2       56.1030 -163.5620   20.0850 C.3   128  VAL128      0.0022
     97  N         60.4670 -165.3800   17.7420 N.3   130  SER130     -0.1217
     98  CA        61.0780 -164.8280   16.5320 C.3   130  SER130      0.1889
     99  C         62.5750 -164.6120   16.7310 C.2   130  SER130      0.2288
    100  O         62.9870 -163.8490   17.6060 O.2   130  SER130     -0.2866
    101  CB        60.4040 -163.5170   16.1290 C.3   130  SER130      0.2089
    102  OG        61.1300 -162.8640   15.1030 O.3   130  SER130     -0.2183
    103  N         66.8120 -164.4090   14.9520 N.3   132  GLU132     -0.1245
    104  CA        67.6950 -164.0530   13.8510 C.3   132  GLU132      0.1567
    105  C         69.1400 -164.1030   14.3290 C.2   132  GLU132      0.2260
    106  O         69.4490 -163.6510   15.4350 O.2   132  GLU132     -0.2867
    107  CB        67.3680 -162.6440   13.3430 C.3   132  GLU132      0.0388
    108  CG        67.8730 -162.3330   11.9410 C.3   132  GLU132      0.1160
    109  CD        67.0260 -162.9700   10.8520 C.2   132  GLU132      0.3649
    110  OE1       67.0760 -164.2080   10.6910 O.co2 132  GLU132     -0.2457
    111  OE2       66.3130 -162.2280   10.1470 O.co2 132  GLU132     -0.2457
@<TRIPOS>BOND
     1   111   109   ar
     2   110   109   ar
     3   109   108    1
     4   108   107    1
     5   107   104    1
     6   104   105    1
     7   104   103    1
     8   105   106    2
     9   102   101    1
    10   101    98    1
    11    98    99    1
    12    98    97    1
    13    99   100    2
    14    23    21    1
    15    20    21    2
    16    20    19    1
    17    81    80   ar
    18    21    22    1
    19    80    79    1
    20    80    82   ar
    21    79    76    1
    22    34    32   ar
    23    34    33   ar
    24    19    18    1
    25    93    92    2
    26    18    17    1
    27    96    94    1
    28    32    30   ar
    29    75    76    1
    30    33    31   ar
    31    92    91    1
    32    76    77    1
    33    94    91    1
    34    94    95    1
    35    17    14    1
    36    91    90    1
    37    30    29   ar
    38    31    29   ar
    39    77    78    2
    40    77    83   am
    41    90    85   am
    42    29    28    1
    43    14    15    1
    44    14    13    1
    45    83    89    1
    46    83    84    1
    47    89    88    1
    48    16    15    2
    49    15    24   am
    50    85    84    1
    51    85    86    2
    52    24    25    1
    53    84    87    1
    54    28    25    1
    55    72    74   ar
    56    72    70   ar
    57    74    73   ar
    58    88    87    1
    59    25    26    1
    60    70    69    1
    61    70    71   ar
    62    73    71   ar
    63    69    66    1
    64    51    50    1
    65    51    52    1
    66    66    67    1
    67    66    65    1
    68    26    35   am
    69    26    27    2
    70    67    68    2
    71    50    47    1
    72    35    36    1
    73    52    46    1
    74    47    46    1
    75    47    48    1
    76    46    37   am
    77    36    37    1
    78    36    39    1
    79    37    38    2
    80    48    49    2
    81    64    63    1
    82    61    63   ar
    83    61    59   ar
    84    39    40    1
    85    63    62   ar
    86    59    58   ar
    87    54    55    1
    88    54    53    1
    89    54    57    1
    90    55    56    2
    91    62    60   ar
    92    58    60   ar
    93    58    57    1
    94    12    11    1
    95    40    41   ar
    96    40    42   ar
    97    41    43   ar
    98    11     9   ar
    99    11    10   ar
   100     9     7   ar
   101    42    44   ar
   102    10     8   ar
   103    43    45   ar
   104     7     6   ar
   105    44    45   ar
   106     8     6   ar
   107     6     5    1
   108     5     2    1
   109     2     1    1
   110     2     3    1
   111     3     4    2
