@<TRIPOS>MOLECULE
tmp/4jsuI00.pdb
 103 102 0 0 0
SMALL
GASTEIGER

@<TRIPOS>ATOM
      1  N         50.0730 -139.9770   22.4540 N.3     2  ASP2       -0.1225
      2  CA        51.1910 -139.2530   23.0510 C.3     2  ASP2        0.1790
      3  C         51.6230 -138.1320   22.1030 C.2     2  ASP2        0.2440
      4  O         52.1290 -138.4080   21.0110 O.2     2  ASP2       -0.2733
      5  CB        52.3550 -140.2160   23.3300 C.3     2  ASP2        0.1423
      6  CG        53.5170 -139.5580   24.0740 C.2     2  ASP2        0.3668
      7  OD1       54.5250 -140.2570   24.3090 O.co2   2  ASP2       -0.2456
      8  OD2       53.4390 -138.3610   24.4270 O.co2   2  ASP2       -0.2456
      9  N         51.4220 -136.8620   22.5160 N.am    3  PRO3       -0.2718
     10  CA        51.7520 -135.7110   21.6690 C.3     3  PRO3        0.1535
     11  C         53.2480 -135.5710   21.3910 C.2     3  PRO3        0.2599
     12  O         53.6320 -134.8960   20.4360 O.2     3  PRO3       -0.2715
     13  CB        51.2530 -134.5120   22.4860 C.3     3  PRO3        0.0310
     14  CG        50.2940 -135.0790   23.4770 C.3     3  PRO3        0.0237
     15  CD        50.8380 -136.4350   23.8000 C.3     3  PRO3        0.0939
     16  N         54.0750 -136.2040   22.2190 N.am    4  SER4       -0.1950
     17  CA        55.5250 -136.1870   22.0410 C.3     4  SER4        0.1924
     18  C         56.0100 -137.2800   21.0830 C.2     4  SER4        0.2314
     19  O         57.2050 -137.3700   20.7920 O.2     4  SER4       -0.2863
     20  CB        56.2300 -136.3120   23.3940 C.3     4  SER4        0.2116
     21  OG        56.0070 -135.1610   24.1910 O.3     4  SER4       -0.2180
     22  N         51.7710 -124.6590   33.3220 N.3    98  ARG98      -0.1231
     23  CA        51.9140 -125.8690   34.1440 C.3    98  ARG98       0.1694
     24  C         50.8060 -126.9060   33.9220 C.2    98  ARG98       0.2592
     25  O         51.0920 -128.0920   33.7420 O.2    98  ARG98      -0.2718
     26  CB        52.0310 -125.5010   35.6340 C.3    98  ARG98       0.0321
     27  CG        52.0790 -126.6740   36.6090 C.3    98  ARG98       0.0489
     28  CD        53.2410 -127.6230   36.3400 C.3    98  ARG98       0.2205
     29  NE        53.2810 -128.7310   37.2930 N.pl3  98  ARG98      -0.0865
     30  CZ        52.5620 -129.8480   37.1930 C.cat  98  ARG98       0.5346
     31  NH1       52.6780 -130.7900   38.1180 N.pl3  98  ARG98       0.1354
     32  NH2       51.7280 -130.0290   36.1760 N.pl3  98  ARG98       0.1354
     33  N         49.5540 -126.4550   33.9270 N.am   99  PHE99      -0.1962
     34  CA        48.4110 -127.3640   33.8030 C.3    99  PHE99       0.1771
     35  C         47.8060 -127.3850   32.3950 C.2    99  PHE99       0.2620
     36  O         46.6410 -127.7450   32.2050 O.2    99  PHE99      -0.2715
     37  CB        47.3600 -127.0550   34.8770 C.3    99  PHE99       0.0574
     38  CG        47.8980 -127.1100   36.2810 C.ar   99  PHE99      -0.0200
     39  CD1       47.9890 -125.9550   37.0510 C.ar   99  PHE99      -0.0042
     40  CD2       48.3300 -128.3150   36.8310 C.ar   99  PHE99      -0.0042
     41  CE1       48.4900 -126.0020   38.3450 C.ar   99  PHE99      -0.0003
     42  CE2       48.8330 -128.3680   38.1220 C.ar   99  PHE99      -0.0003
     43  CZ        48.9130 -127.2090   38.8800 C.ar   99  PHE99      -0.0000
     44  N         48.6220 -127.0020   31.4170 N.am  100  GLY100     -0.1940
     45  CA        48.2830 -127.0960   29.9970 C.3   100  GLY100      0.1998
     46  C         49.5420 -126.8790   29.1770 C.2   100  GLY100      0.2480
     47  O         49.6170 -125.9250   28.4000 O.2   100  GLY100     -0.2729
     48  N         50.5400 -127.7730   29.3380 N.am  101  PRO101     -0.2726
     49  CA        51.8990 -127.5100   28.8630 C.3   101  PRO101      0.1402
     50  C         52.1090 -127.6910   27.3640 C.2   101  PRO101      0.2269
     51  O         51.3090 -128.3490   26.6930 O.2   101  PRO101     -0.2865
     52  CB        52.7350 -128.5310   29.6380 C.3   101  PRO101      0.0296
     53  CG        51.8110 -129.6800   29.8510 C.3   101  PRO101      0.0237
     54  CD        50.4130 -129.1280   29.9130 C.3   101  PRO101      0.0939
     55  N         54.0110 -129.5900   24.6290 N.3   103  PHE103     -0.1241
     56  CA        54.5910 -130.9280   24.5820 C.3   103  PHE103      0.1605
     57  C         55.9230 -130.9010   23.8390 C.2   103  PHE103      0.2264
     58  O         56.0320 -131.3280   22.6850 O.2   103  PHE103     -0.2867
     59  CB        53.5980 -131.9210   23.9740 C.3   103  PHE103      0.0534
     60  CG        52.2740 -131.9520   24.6870 C.ar  103  PHE103     -0.0203
     61  CD1       52.1260 -132.6590   25.8770 C.ar  103  PHE103     -0.0042
     62  CD2       51.1780 -131.2620   24.1780 C.ar  103  PHE103     -0.0042
     63  CE1       50.9090 -132.6830   26.5400 C.ar  103  PHE103     -0.0003
     64  CE2       49.9580 -131.2840   24.8370 C.ar  103  PHE103     -0.0003
     65  CZ        49.8230 -131.9950   26.0190 C.ar  103  PHE103     -0.0000
     66  N         62.2790 -130.2530   30.8900 N.3   124  ASP124     -0.1225
     67  CA        61.0820 -131.0500   30.6450 C.3   124  ASP124      0.1805
     68  C         59.9590 -130.1110   30.1920 C.2   124  ASP124      0.2598
     69  O         60.1420 -128.8890   30.1670 O.2   124  ASP124     -0.2718
     70  CB        60.6900 -131.9060   31.8650 C.3   124  ASP124      0.1424
     71  CG        60.2860 -131.0800   33.0840 C.2   124  ASP124      0.3668
     72  OD1       60.0350 -131.6960   34.1420 O.co2 124  ASP124     -0.2456
     73  OD2       60.2140 -129.8350   33.0030 O.co2 124  ASP124     -0.2456
     74  N         58.8090 -130.6770   29.8370 N.am  125  LEU125     -0.1966
     75  CA        57.6960 -129.9010   29.2780 C.3   125  LEU125      0.1728
     76  C         57.1440 -128.8050   30.2030 C.2   125  LEU125      0.2616
     77  O         56.4960 -127.8670   29.7330 O.2   125  LEU125     -0.2715
     78  CB        56.5690 -130.8300   28.7970 C.3   125  LEU125      0.0311
     79  CG        55.7020 -131.6120   29.7910 C.3   125  LEU125      0.0022
     80  CD1       54.4810 -132.1710   29.0790 C.3   125  LEU125      0.0001
     81  CD2       56.4750 -132.7300   30.4750 C.3   125  LEU125      0.0001
     82  N         57.4090 -128.9200   31.5040 N.am  126  ILE126     -0.1977
     83  CA        56.9440 -127.9190   32.4750 C.3   126  ILE126      0.1596
     84  C         58.0550 -127.0360   33.0690 C.2   126  ILE126      0.2287
     85  O         57.8380 -126.3390   34.0630 O.2   126  ILE126     -0.2864
     86  CB        56.0560 -128.5340   33.5890 C.3   126  ILE126      0.0276
     87  CG1       56.7570 -129.7160   34.2710 C.3   126  ILE126      0.0022
     88  CG2       54.6960 -128.9290   33.0240 C.3   126  ILE126      0.0022
     89  CD1       56.1340 -130.1220   35.5910 C.3   126  ILE126      0.0001
     90  N         61.4190 -127.6860   34.1930 N.3   128  CYS128     -0.1221
     91  CA        62.4900 -128.1410   35.0840 C.3   128  CYS128      0.1808
     92  C         63.8340 -128.1660   34.3580 C.2   128  CYS128      0.2601
     93  O         64.0060 -128.8950   33.3790 O.2   128  CYS128     -0.2717
     94  CB        62.1760 -129.5200   35.6690 C.3   128  CYS128      0.0970
     95  SG        63.5520 -130.2700   36.5690 S.3   128  CYS128     -0.0800
     96  N         64.7790 -127.3690   34.8510 N.am  129  ILE129     -0.1979
     97  CA        66.0770 -127.2010   34.1960 C.3   129  ILE129      0.1595
     98  C         67.0500 -128.3320   34.5300 C.2   129  ILE129      0.2287
     99  O         67.2370 -128.6880   35.6960 O.2   129  ILE129     -0.2864
    100  CB        66.7270 -125.8380   34.5360 C.3   129  ILE129      0.0276
    101  CG1       65.7730 -124.6830   34.2110 C.3   129  ILE129      0.0022
    102  CG2       68.0450 -125.6620   33.7870 C.3   129  ILE129      0.0022
    103  CD1       66.2190 -123.3390   34.7490 C.3   129  ILE129      0.0001
@<TRIPOS>BOND
     1    12    11    2
     2    19    18    2
     3     4     3    2
     4    18    17    1
     5    11    10    1
     6    11    16   am
     7    10    13    1
     8    10     9    1
     9    17    16    1
    10    17    20    1
    11     3     9   am
    12     3     2    1
    13     1     2    1
    14    13    14    1
    15     9    15    1
    16    58    57    2
    17     2     5    1
    18     5     6    1
    19    20    21    1
    20    14    15    1
    21    57    56    1
    22    59    56    1
    23    59    60    1
    24     6     7   ar
    25     6     8   ar
    26    62    60   ar
    27    62    64   ar
    28    56    55    1
    29    60    61   ar
    30    64    65   ar
    31    61    63   ar
    32    65    63   ar
    33    51    50    2
    34    50    49    1
    35    47    46    2
    36    78    75    1
    37    78    79    1
    38    49    48    1
    39    49    52    1
    40    80    79    1
    41    46    48   am
    42    46    45    1
    43    75    74    1
    44    75    76    1
    45    48    54    1
    46    52    53    1
    47    77    76    2
    48    79    81    1
    49    74    68   am
    50    53    54    1
    51    45    44    1
    52    69    68    2
    53    68    67    1
    54    76    82   am
    55    67    66    1
    56    67    70    1
    57    44    35   am
    58    82    83    1
    59    70    71    1
    60    36    35    2
    61    35    34    1
    62    83    84    1
    63    83    86    1
    64    73    71   ar
    65    88    86    1
    66    84    85    2
    67    71    72   ar
    68    22    23    1
    69    93    92    2
    70    86    87    1
    71    25    24    2
    72   102   100    1
    73    34    33    1
    74    34    37    1
    75    24    33   am
    76    24    23    1
    77    23    26    1
    78    90    91    1
    79    97    98    1
    80    97   100    1
    81    97    96    1
    82   101   100    1
    83   101   103    1
    84    87    89    1
    85    92    96   am
    86    92    91    1
    87    98    99    2
    88    37    38    1
    89    91    94    1
    90    26    27    1
    91    94    95    1
    92    32    30    1
    93    38    40   ar
    94    38    39   ar
    95    28    27    1
    96    28    29    1
    97    40    42   ar
    98    39    41   ar
    99    30    29    2
   100    30    31    1
   101    42    43   ar
   102    41    43   ar
