@<TRIPOS>MOLECULE
tmp/4jt0Y00.pdb
 121 114 0 0 0
SMALL
GASTEIGER

@<TRIPOS>ATOM
      1  N         57.1390 -152.4950    7.8100 N.3     1  THR1       -0.1218
      2  CA        57.3730 -153.6630    6.9150 C.3     1  THR1        0.1862
      3  C         56.6850 -153.4540    5.5700 C.2     1  THR1        0.2287
      4  O         55.5170 -153.0660    5.5120 O.2     1  THR1       -0.2866
      5  CB        56.8780 -154.9730    7.5640 C.3     1  THR1        0.1770
      6  OG1       57.5380 -155.1610    8.8220 O.3     1  THR1       -0.2211
      7  CG2       57.1510 -156.1790    6.6660 C.3     1  THR1        0.0375
      8  N         63.4790 -154.2900    7.9400 N.3    19  ARG19      -0.1231
      9  CA        63.3290 -153.5990    9.2220 C.3    19  ARG19       0.1694
     10  C         62.3460 -154.2940   10.1640 C.2    19  ARG19       0.2592
     11  O         61.1890 -154.5320    9.8100 O.2    19  ARG19      -0.2718
     12  CB        62.9290 -152.1320    9.0130 C.3    19  ARG19       0.0321
     13  CG        62.8110 -151.3300   10.3020 C.3    19  ARG19       0.0489
     14  CD        62.6650 -149.8410   10.0360 C.3    19  ARG19       0.2205
     15  NE        63.9220 -149.2370    9.6000 N.pl3  19  ARG19      -0.0865
     16  CZ        64.0980 -147.9390    9.3630 C.cat  19  ARG19       0.5346
     17  NH1       63.0960 -147.0820    9.5180 N.pl3  19  ARG19       0.1354
     18  NH2       65.2830 -147.4950    8.9700 N.pl3  19  ARG19       0.1354
     19  N         62.8280 -154.6210   11.3610 N.am   20  ALA20      -0.1966
     20  CA        61.9880 -155.1450   12.4330 C.3    20  ALA20       0.1728
     21  C         61.8870 -154.1080   13.5440 C.2    20  ALA20       0.2617
     22  O         62.8950 -153.5280   13.9550 O.2    20  ALA20      -0.2715
     23  CB        62.5520 -156.4490   12.9710 C.3    20  ALA20       0.0334
     24  N         60.6680 -153.8780   14.0250 N.am   21  THR21      -0.1937
     25  CA        60.4210 -152.8330   15.0170 C.3    21  THR21       0.2028
     26  C         59.6780 -153.3150   16.2620 C.2    21  THR21       0.2642
     27  O         59.0130 -154.3540   16.2470 O.2    21  THR21      -0.2714
     28  CB        59.6470 -151.6390   14.4120 C.3    21  THR21       0.1808
     29  OG1       58.5350 -152.1190   13.6450 O.3    21  THR21      -0.2208
     30  CG2       60.5540 -150.7940   13.5230 C.3    21  THR21       0.0379
     31  N         59.8250 -152.5490   17.3390 N.am   22  ALA22      -0.1963
     32  CA        59.0350 -152.7100   18.5510 C.3    22  ALA22       0.1728
     33  C         58.5540 -151.3160   18.9490 C.2    22  ALA22       0.2616
     34  O         59.0980 -150.6880   19.8620 O.2    22  ALA22      -0.2715
     35  CB        59.8670 -153.3420   19.6560 C.3    22  ALA22       0.0334
     36  N         57.5350 -150.8380   18.2390 N.am   23  GLY23      -0.1955
     37  CA        57.1050 -149.4470   18.3380 C.3    23  GLY23       0.1869
     38  C         58.0520 -148.5730   17.5380 C.2    23  GLY23       0.2309
     39  O         58.3940 -148.9020   16.4010 O.2    23  GLY23      -0.2863
     40  N         64.4560 -152.6220   16.0280 N.3    27  ALA27      -0.1245
     41  CA        65.0980 -153.8020   16.6060 C.3    27  ALA27       0.1562
     42  C         66.2000 -154.3620   15.7080 C.2    27  ALA27       0.2260
     43  O         67.2960 -154.6660   16.1820 O.2    27  ALA27      -0.2867
     44  CB        64.0620 -154.8740   16.9180 C.3    27  ALA27       0.0290
     45  N         66.7440 -158.3190    8.8900 N.3    31  VAL31      -0.1231
     46  CA        65.8410 -159.4630    9.0280 C.3    31  VAL31       0.1692
     47  C         65.4810 -160.0510    7.6650 C.2    31  VAL31       0.2592
     48  O         65.1980 -159.3160    6.7190 O.2    31  VAL31      -0.2718
     49  CB        64.5500 -159.0940    9.7930 C.3    31  VAL31       0.0266
     50  CG1       63.7080 -160.3320   10.0580 C.3    31  VAL31       0.0020
     51  CG2       64.8860 -158.4160   11.1090 C.3    31  VAL31       0.0020
     52  N         65.4980 -161.3790    7.5790 N.am   32  LYS32      -0.1966
     53  CA        65.0950 -162.0880    6.3690 C.3    32  LYS32       0.1728
     54  C         63.5850 -162.3160    6.3890 C.2    32  LYS32       0.2616
     55  O         63.0800 -163.1390    7.1580 O.2    32  LYS32      -0.2715
     56  CB        65.8460 -163.4220    6.2350 C.3    32  LYS32       0.0311
     57  CG        67.3500 -163.2990    6.0200 C.3    32  LYS32       0.0038
     58  CD        68.1040 -163.1640    7.3360 C.3    32  LYS32       0.0206
     59  CE        69.5750 -162.8550    7.1200 C.3    32  LYS32       0.1093
     60  NZ        70.2550 -162.5300    8.4050 N.3    32  LYS32      -0.1314
     61  N         62.8730 -161.5710    5.5470 N.am   33  LYS33      -0.1977
     62  CA        61.4100 -161.6240    5.4970 C.3    33  LYS33       0.1596
     63  C         60.8820 -162.5340    4.3870 C.2    33  LYS33       0.2287
     64  O         59.6690 -162.6800    4.2180 O.2    33  LYS33      -0.2864
     65  CB        60.8240 -160.2150    5.3720 C.3    33  LYS33       0.0298
     66  CG        60.8990 -159.4110    6.6590 C.3    33  LYS33       0.0038
     67  CD        60.4610 -157.9740    6.4500 C.3    33  LYS33       0.0206
     68  CE        60.6940 -157.1510    7.7050 C.3    33  LYS33       0.1093
     69  NZ        60.4430 -155.7030    7.4740 N.3    33  LYS33      -0.1314
     70  N         56.9070 -162.3210    4.5660 N.3    45  MET45      -0.1230
     71  CA        56.5120 -162.1850    5.9650 C.3    45  MET45       0.1702
     72  C         56.1970 -160.7430    6.3500 C.2    45  MET45       0.2592
     73  O         57.0120 -159.8420    6.1400 O.2    45  MET45      -0.2718
     74  CB        57.6010 -162.7430    6.8810 C.3    45  MET45       0.0401
     75  CG        57.9120 -164.2190    6.6960 C.3    45  MET45       0.0596
     76  SD        59.1090 -164.7850    7.9180 S.3    45  MET45      -0.1393
     77  CE        59.4520 -166.4350    7.3230 C.3    45  MET45       0.0692
     78  N         55.0080 -160.5390    6.9150 N.am   46  ALA46      -0.1966
     79  CA        54.5810 -159.2320    7.4180 C.3    46  ALA46       0.1728
     80  C         53.6280 -159.3950    8.5980 C.2    46  ALA46       0.2617
     81  O         52.7430 -160.2530    8.5770 O.2    46  ALA46      -0.2715
     82  CB        53.9280 -158.4160    6.3110 C.3    46  ALA46       0.0334
     83  N         53.8160 -158.5650    9.6210 N.am   47  GLY47      -0.1940
     84  CA        53.0090 -158.6310   10.8370 C.3    47  GLY47       0.2014
     85  C         53.8070 -159.1770   12.0040 C.2    47  GLY47       0.2639
     86  O         54.9170 -158.7150   12.2730 O.2    47  GLY47      -0.2714
     87  N         53.2380 -160.1620   12.6950 N.am   48  GLY48      -0.1939
     88  CA        53.9100 -160.8250   13.8110 C.3    48  GLY48       0.2014
     89  C         55.1200 -161.6070   13.3440 C.2    48  GLY48       0.2639
     90  O         54.9950 -162.5300   12.5350 O.2    48  GLY48      -0.2714
     91  N         56.2890 -161.2270   13.8540 N.am   49  ALA49      -0.1963
     92  CA        57.5600 -161.8300   13.4560 C.3    49  ALA49       0.1728
     93  C         57.5940 -163.3400   13.6880 C.2    49  ALA49       0.2616
     94  O         57.8650 -164.1050   12.7610 O.2    49  ALA49      -0.2715
     95  CB        58.7190 -161.1480   14.1680 C.3    49  ALA49       0.0334
     96  N         57.3020 -163.7570   14.9200 N.am   50  ALA50      -0.1977
     97  CA        57.2980 -165.1720   15.2880 C.3    50  ALA50       0.1597
     98  C         56.2060 -165.9580   14.5670 C.2    50  ALA50       0.2287
     99  O         56.4540 -167.0650   14.0910 O.2    50  ALA50      -0.2864
    100  CB        57.1630 -165.3320   16.7930 C.3    50  ALA50       0.0319
    101  N         54.7220 -165.4450   11.6190 N.3    52  CYS52      -0.1221
    102  CA        55.1290 -165.6790   10.2350 C.3    52  CYS52       0.1808
    103  C         56.2570 -166.7000   10.1590 C.2    52  CYS52       0.2601
    104  O         56.1700 -167.6750    9.4130 O.2    52  CYS52      -0.2717
    105  CB        55.5770 -164.3730    9.5780 C.3    52  CYS52       0.0970
    106  SG        54.2700 -163.1560    9.3160 S.3    52  CYS52      -0.0800
    107  N         57.3050 -166.4680   10.9480 N.am   53  GLN53      -0.1979
    108  CA        58.5010 -167.3050   10.9500 C.3    53  GLN53       0.1601
    109  C         58.1840 -168.7590   11.3010 C.2    53  GLN53       0.2287
    110  O         58.5320 -169.6680   10.5510 O.2    53  GLN53      -0.2864
    111  CB        59.5380 -166.7350   11.9200 C.3    53  GLN53       0.0394
    112  CG        60.9790 -166.8840   11.4650 C.3    53  GLN53       0.0908
    113  CD        61.9450 -166.1130   12.3450 C.2    53  GLN53       0.2608
    114  OE1       62.1470 -166.4520   13.5110 O.2    53  GLN53      -0.2717
    115  NE2       62.5500 -165.0710   11.7860 N.am   53  GLN53      -0.0878
    116  N         48.8740 -162.8400   14.0800 N.3    96  SER96      -0.1217
    117  CA        49.0340 -161.6680   13.2290 C.3    96  SER96       0.1889
    118  C         50.0230 -161.9450   12.1030 C.2    96  SER96       0.2288
    119  O         51.2340 -161.9990   12.3260 O.2    96  SER96      -0.2866
    120  CB        49.4850 -160.4620   14.0580 C.3    96  SER96       0.2089
    121  OG        49.7600 -159.3430   13.2330 O.3    96  SER96      -0.2183
@<TRIPOS>BOND
     1    64    63    2
     2    63    62    1
     3    70    71    1
     4    65    62    1
     5    65    66    1
     6    62    61    1
     7     4     3    2
     8    61    54   am
     9     3     2    1
    10    71    72    1
    11    71    74    1
    12    57    56    1
    13    57    58    1
    14    73    72    2
    15    56    53    1
    16    82    79    1
    17    72    78   am
    18    53    54    1
    19    53    52    1
    20    54    55    2
    21    67    66    1
    22    67    68    1
    23     7     5    1
    24    75    74    1
    25    75    76    1
    26    48    47    2
    27    78    79    1
    28     2     5    1
    29     2     1    1
    30    59    58    1
    31    59    60    1
    32    77    76    1
    33    79    80    1
    34    69    68    1
    35     5     6    1
    36    52    47   am
    37    47    46    1
    38     8     9    1
    39    81    80    2
    40    80    83   am
    41    45    46    1
    42    18    16    1
    43    12     9    1
    44    12    13    1
    45    46    49    1
    46     9    10    1
    47   106   105    1
    48    16    17    1
    49    16    15    2
    50   104   103    2
    51   105   102    1
    52    15    14    1
    53    83    84    1
    54    49    50    1
    55    49    51    1
    56    11    10    2
    57    14    13    1
    58   103   102    1
    59   103   107   am
    60    10    19   am
    61   102   101    1
    62   110   109    2
    63    84    85    1
    64   107   108    1
    65   108   109    1
    66   108   111    1
    67    19    20    1
    68   112   111    1
    69   112   113    1
    70   115   113   am
    71    85    86    2
    72    85    87   am
    73   118   119    2
    74   118   117    1
    75   113   114    2
    76    20    23    1
    77    20    21    1
    78    90    89    2
    79    87    88    1
    80    94    93    2
    81   117   120    1
    82   117   116    1
    83   121   120    1
    84    89    88    1
    85    89    91   am
    86    92    93    1
    87    92    91    1
    88    92    95    1
    89    30    28    1
    90    21    22    2
    91    21    24   am
    92    29    28    1
    93    93    96   am
    94    24    25    1
    95    99    98    2
    96    28    25    1
    97    98    97    1
    98    96    97    1
    99    25    26    1
   100    97   100    1
   101    42    43    2
   102    42    41    1
   103    40    41    1
   104    27    26    2
   105    26    31   am
   106    39    38    2
   107    41    44    1
   108    31    32    1
   109    38    37    1
   110    36    37    1
   111    36    33   am
   112    32    33    1
   113    32    35    1
   114    33    34    2
