@<TRIPOS>MOLECULE
tmp/4jt0K00.pdb
 121 114 0 0 0
SMALL
GASTEIGER

@<TRIPOS>ATOM
      1  N         11.4700 -141.1350    9.3450 N.3     1  THR1       -0.1218
      2  CA        11.2140 -139.8360    8.6610 C.3     1  THR1        0.1862
      3  C         11.8740 -139.8140    7.2850 C.2     1  THR1        0.2287
      4  O         13.0400 -140.1850    7.1400 O.2     1  THR1       -0.2866
      5  CB        11.7200 -138.6490    9.5070 C.3     1  THR1        0.1770
      6  OG1       11.0840 -138.6740   10.7910 O.3     1  THR1       -0.2211
      7  CG2       11.4330 -137.3120    8.8260 C.3     1  THR1        0.0375
      8  N          5.1370 -139.3910    9.9090 N.3    19  ARG19      -0.1231
      9  CA         5.3100 -140.2860   11.0530 C.3    19  ARG19       0.1694
     10  C          6.3140 -139.7550   12.0770 C.2    19  ARG19       0.2592
     11  O          7.4630 -139.4590   11.7440 O.2    19  ARG19      -0.2718
     12  CB         5.7020 -141.6970   10.5940 C.3    19  ARG19       0.0321
     13  CG         5.8480 -142.7040   11.7280 C.3    19  ARG19       0.0489
     14  CD         5.9830 -144.1280   11.2160 C.3    19  ARG19       0.2205
     15  NE         4.7140 -144.6510   10.7100 N.pl3  19  ARG19      -0.0865
     16  CZ         4.5300 -145.8910   10.2640 C.cat  19  ARG19       0.5346
     17  NH1        5.5320 -146.7630   10.2540 N.pl3  19  ARG19       0.1354
     18  NH2        3.3340 -146.2620    9.8270 N.pl3  19  ARG19       0.1354
     19  N          5.8570 -139.6350   13.3210 N.am   20  ALA20      -0.1966
     20  CA         6.7220 -139.2990   14.4480 C.3    20  ALA20       0.1728
     21  C          6.8450 -140.5080   15.3680 C.2    20  ALA20       0.2617
     22  O          5.8450 -141.1490   15.6980 O.2    20  ALA20      -0.2715
     23  CB         6.1750 -138.1040   15.2100 C.3    20  ALA20       0.0334
     24  N          8.0740 -140.8140   15.7760 N.am   21  THR21      -0.1937
     25  CA         8.3400 -142.0100   16.5740 C.3    21  THR21       0.2028
     26  C          9.1090 -141.7410   17.8660 C.2    21  THR21       0.2642
     27  O          9.7720 -140.7120   18.0120 O.2    21  THR21      -0.2714
     28  CB         9.0980 -143.0860   15.7620 C.3    21  THR21       0.1808
     29  OG1       10.1930 -142.4830   15.0610 O.3    21  THR21      -0.2208
     30  CG2        8.1690 -143.7710   14.7640 C.3    21  THR21       0.0379
     31  N          8.9850 -142.6780   18.8020 N.am   22  ALA22      -0.1963
     32  CA         9.8020 -142.7220   20.0070 C.3    22  ALA22       0.1728
     33  C         10.2880 -144.1620   20.1570 C.2    22  ALA22       0.2616
     34  O          9.7650 -144.9340   20.9660 O.2    22  ALA22      -0.2715
     35  CB         8.9960 -142.2820   21.2190 C.3    22  ALA22       0.0334
     36  N         11.2880 -144.5150   19.3530 N.am   23  GLY23      -0.1955
     37  CA        11.7160 -145.9020   19.2090 C.3    23  GLY23       0.1869
     38  C         10.7510 -146.6300   18.2930 C.2    23  GLY23       0.2309
     39  O         10.3860 -146.1160   17.2340 O.2    23  GLY23      -0.2863
     40  N          4.3270 -142.3880   17.6200 N.3    27  ALA27      -0.1245
     41  CA         3.7010 -141.3220   18.4040 C.3    27  ALA27       0.1562
     42  C          2.5830 -140.6200   17.6390 C.2    27  ALA27       0.2260
     43  O          1.5000 -140.3970   18.1830 O.2    27  ALA27      -0.2867
     44  CB         4.7470 -140.3180   18.8680 C.3    27  ALA27       0.0290
     45  N          1.9020 -135.5810   11.5900 N.3    31  VAL31      -0.1231
     46  CA         2.8100 -134.4760   11.8990 C.3    31  VAL31       0.1692
     47  C          3.1450 -133.6690   10.6470 C.2    31  VAL31       0.2592
     48  O          3.4040 -134.2360    9.5860 O.2    31  VAL31      -0.2718
     49  CB         4.1160 -134.9660   12.5650 C.3    31  VAL31       0.0266
     50  CG1        4.9660 -133.7880   13.0110 C.3    31  VAL31       0.0020
     51  CG2        3.8070 -135.8510   13.7580 C.3    31  VAL31       0.0020
     52  N          3.1320 -132.3440   10.7840 N.am   32  LYS32      -0.1966
     53  CA         3.5090 -131.4410    9.7000 C.3    32  LYS32       0.1728
     54  C          5.0190 -131.2170    9.7230 C.2    32  LYS32       0.2616
     55  O          5.5430 -130.5320   10.6060 O.2    32  LYS32      -0.2715
     56  CB         2.7600 -130.1030    9.8080 C.3    32  LYS32       0.0311
     57  CG         1.2490 -130.1880    9.6120 C.3    32  LYS32       0.0038
     58  CD         0.5260 -130.5430   10.9040 C.3    32  LYS32       0.0206
     59  CE        -0.9510 -130.8110   10.6690 C.3    32  LYS32       0.1093
     60  NZ        -1.6080 -131.3470   11.8930 N.3    32  LYS32      -0.1314
     61  N          5.7110 -131.8120    8.7540 N.am   33  LYS33      -0.1977
     62  CA         7.1720 -131.7490    8.6840 C.3    33  LYS33       0.1596
     63  C          7.6800 -130.6660    7.7320 C.2    33  LYS33       0.2287
     64  O          8.8890 -130.4910    7.5650 O.2    33  LYS33      -0.2864
     65  CB         7.7530 -133.1170    8.3130 C.3    33  LYS33       0.0298
     66  CG         7.7040 -134.1250    9.4490 C.3    33  LYS33       0.0038
     67  CD         8.1340 -135.5070    8.9920 C.3    33  LYS33       0.0206
     68  CE         7.9270 -136.5290   10.0960 C.3    33  LYS33       0.1093
     69  NZ         8.1700 -137.9180    9.6210 N.3    33  LYS33      -0.1314
     70  N         11.6560 -130.9020    7.7870 N.3    45  MET45      -0.1230
     71  CA        12.0830 -131.2710    9.1330 C.3    45  MET45       0.1702
     72  C         12.4010 -132.7580    9.2640 C.2    45  MET45       0.2592
     73  O         11.5800 -133.6120    8.9210 O.2    45  MET45      -0.2718
     74  CB        11.0180 -130.8750   10.1570 C.3    45  MET45       0.0401
     75  CG        10.7070 -129.3890   10.2260 C.3    45  MET45       0.0596
     76  SD         9.5400 -129.0360   11.5520 S.3    45  MET45      -0.1393
     77  CE         9.1830 -127.3120   11.2440 C.3    45  MET45       0.0692
     78  N         13.6000 -133.0520    9.7630 N.am   46  ALA46      -0.1966
     79  CA        14.0330 -134.4240   10.0300 C.3    46  ALA46       0.1728
     80  C         15.0130 -134.4610   11.1990 C.2    46  ALA46       0.2617
     81  O         15.9000 -133.6110   11.3050 O.2    46  ALA46      -0.2715
     82  CB        14.6590 -135.0430    8.7870 C.3    46  ALA46       0.0334
     83  N         14.8450 -135.4510   12.0720 N.am   47  GLY47      -0.1940
     84  CA        15.6780 -135.5910   13.2640 C.3    47  GLY47       0.2014
     85  C         14.9080 -135.2490   14.5230 C.2    47  GLY47       0.2639
     86  O         13.8050 -135.7530   14.7380 O.2    47  GLY47      -0.2714
     87  N         15.4930 -134.3900   15.3550 N.am   48  GLY48      -0.1939
     88  CA        14.8470 -133.9270   16.5820 C.3    48  GLY48       0.2014
     89  C         13.6310 -133.0770   16.2780 C.2    48  GLY48       0.2639
     90  O         13.7410 -132.0330   15.6320 O.2    48  GLY48      -0.2714
     91  N         12.4710 -133.5360   16.7440 N.am   49  ALA49      -0.1963
     92  CA        11.1940 -132.8760   16.4810 C.3    49  ALA49       0.1728
     93  C         11.1700 -131.4270   16.9620 C.2    49  ALA49       0.2616
     94  O         10.8810 -130.5180   16.1820 O.2    49  ALA49      -0.2715
     95  CB        10.0520 -133.6680   17.1000 C.3    49  ALA49       0.0334
     96  N         11.4880 -131.2220   18.2390 N.am   50  ALA50      -0.1977
     97  CA        11.5040 -129.8890   18.8400 C.3    50  ALA50       0.1597
     98  C         12.5820 -128.9920   18.2370 C.2    50  ALA50       0.2287
     99  O         12.3260 -127.8210   17.9580 O.2    50  ALA50      -0.2864
    100  CB        11.6710 -129.9860   20.3480 C.3    50  ALA50       0.0319
    101  N         14.0000 -129.0010   15.2140 N.3    52  CYS52      -0.1221
    102  CA        13.5660 -128.5390   13.8980 C.3    52  CYS52       0.1808
    103  C         12.4390 -127.5210   14.0200 C.2    52  CYS52       0.2601
    104  O         12.5140 -126.4330   13.4500 O.2    52  CYS52      -0.2717
    105  CB        13.1000 -129.7170   13.0410 C.3    52  CYS52       0.0970
    106  SG        14.3940 -130.8810   12.5640 S.3    52  CYS52      -0.0800
    107  N         11.4080 -127.8840   14.7800 N.am   53  GLN53      -0.1979
    108  CA        10.2140 -127.0600   14.9480 C.3    53  GLN53       0.1601
    109  C         10.5440 -125.6870   15.5300 C.2    53  GLN53       0.2287
    110  O         10.1830 -124.6650   14.9490 O.2    53  GLN53      -0.2864
    111  CB         9.1970 -127.7850   15.8320 C.3    53  GLN53       0.0394
    112  CG         7.7460 -127.5640   15.4410 C.3    53  GLN53       0.0908
    113  CD         6.8000 -128.4750   16.1990 C.2    53  GLN53       0.2608
    114  OE1        6.6250 -128.3390   17.4100 O.2    53  GLN53      -0.2717
    115  NE2        6.1790 -129.4080   15.4870 N.am   53  GLN53      -0.0878
    116  N         19.8940 -131.9780   17.0770 N.3    96  SER96      -0.1217
    117  CA        19.7110 -132.9920   16.0450 C.3    96  SER96       0.1889
    118  C         18.6990 -132.5300   15.0010 C.2    96  SER96       0.2288
    119  O         17.4920 -132.5150   15.2560 O.2    96  SER96      -0.2866
    120  CB        19.2740 -134.3190   16.6720 C.3    96  SER96       0.2089
    121  OG        18.9800 -135.2860   15.6780 O.3    96  SER96      -0.2183
@<TRIPOS>BOND
     1     4     3    2
     2     3     2    1
     3    64    63    2
     4    63    62    1
     5    70    71    1
     6    65    62    1
     7    65    66    1
     8     2     1    1
     9     2     5    1
    10    62    61    1
    11    61    54   am
    12    82    79    1
    13     7     5    1
    14    73    72    2
    15    67    66    1
    16    67    68    1
    17    71    72    1
    18    71    74    1
    19    72    78   am
    20     5     6    1
    21    48    47    2
    22    57    56    1
    23    57    58    1
    24    69    68    1
    25    53    54    1
    26    53    56    1
    27    53    52    1
    28    54    55    2
    29    78    79    1
    30    18    16    1
    31     8     9    1
    32    79    80    1
    33    74    75    1
    34    75    76    1
    35    17    16    1
    36    16    15    2
    37    12     9    1
    38    12    13    1
    39    47    52   am
    40    47    46    1
    41    59    58    1
    42    59    60    1
    43    15    14    1
    44     9    10    1
    45    80    81    2
    46    80    83   am
    47    14    13    1
    48    77    76    1
    49    45    46    1
    50    11    10    2
    51    46    49    1
    52    83    84    1
    53    10    19   am
    54   106   105    1
    55    49    50    1
    56    49    51    1
    57   105   102    1
    58    84    85    1
    59    19    20    1
    60   104   103    2
    61   102   103    1
    62   102   101    1
    63   103   107   am
    64    20    23    1
    65    20    21    1
    66    85    86    2
    67    85    87   am
    68    30    28    1
    69   107   108    1
    70   108   109    1
    71   108   111    1
    72   110   109    2
    73   118   119    2
    74   118   117    1
    75    29    28    1
    76    87    88    1
    77    21    22    2
    78    21    24   am
    79   112   111    1
    80   112   113    1
    81   115   113   am
    82    90    89    2
    83   121   120    1
    84    28    25    1
    85    24    25    1
    86   117   120    1
    87   117   116    1
    88    94    93    2
    89   113   114    2
    90    89    88    1
    91    89    91   am
    92    92    91    1
    93    92    93    1
    94    92    95    1
    95    25    26    1
    96    93    96   am
    97    39    38    2
    98    40    41    1
    99    42    43    2
   100    42    41    1
   101    26    27    2
   102    26    31   am
   103    99    98    2
   104    98    97    1
   105    96    97    1
   106    38    37    1
   107    41    44    1
   108    31    32    1
   109    97   100    1
   110    37    36    1
   111    36    33   am
   112    32    33    1
   113    32    35    1
   114    33    34    2
