@<TRIPOS>MOLECULE
tmp/4jt2A00.pdb
 142 136 0 0 0
SMALL
GASTEIGER

@<TRIPOS>ATOM
      1  N         19.0850   21.5610   81.6280 N.3    16  SER16      -0.1202
      2  CA        18.3470   20.9130   82.6960 C.3    16  SER16       0.2020
      3  C         19.2550   20.0440   83.5550 C.2    16  SER16       0.2619
      4  O         20.3610   19.6960   83.1540 O.2    16  SER16      -0.2717
      5  CB        17.2480   20.0400   82.0960 C.3    16  SER16       0.2103
      6  OG        16.5950   19.2870   83.1010 O.3    16  SER16      -0.2182
      7  N         18.7860   19.6980   84.7450 N.am   17  SER17      -0.1937
      8  CA        19.4400   18.6470   85.5050 C.3    17  SER17       0.2055
      9  C         19.3900   17.3810   84.6570 C.2    17  SER17       0.2644
     10  O         18.3690   17.0990   84.0260 O.2    17  SER17      -0.2714
     11  CB        18.7150   18.4110   86.8280 C.3    17  SER17       0.2130
     12  OG        19.3920   17.4470   87.6190 O.3    17  SER17      -0.2179
     13  N         20.4900   16.6350   84.6220 N.am   18  GLY18      -0.1939
     14  CA        20.5530   15.4140   83.8340 C.3    18  GLY18       0.2014
     15  C         20.9890   15.6210   82.3930 C.2    18  GLY18       0.2640
     16  O         21.1990   14.6540   81.6590 O.2    18  GLY18      -0.2714
     17  N         21.1370   16.8780   81.9820 N.am   19  SER19      -0.1935
     18  CA        21.5130   17.1650   80.6000 C.3    19  SER19       0.2055
     19  C         22.9980   16.8890   80.3370 C.2    19  SER19       0.2644
     20  O         23.4190   16.7950   79.1720 O.2    19  SER19      -0.2714
     21  CB        21.1270   18.5930   80.1980 C.3    19  SER19       0.2130
     22  OG        21.8890   19.5600   80.9020 O.3    19  SER19      -0.2179
     23  N         23.7790   16.7480   81.4100 N.am   20  GLY20      -0.1939
     24  CA        25.1570   16.3010   81.2980 C.3    20  GLY20       0.2014
     25  C         26.2280   17.3780   81.3690 C.2    20  GLY20       0.2639
     26  O         27.3470   17.1740   80.8890 O.2    20  GLY20      -0.2714
     27  N         25.9000   18.5080   81.9910 N.am   21  LYS21      -0.1963
     28  CA        26.8200   19.6490   82.0940 C.3    21  LYS21       0.1728
     29  C         28.1570   19.3350   82.7880 C.2    21  LYS21       0.2617
     30  O         29.2360   19.6120   82.2350 O.2    21  LYS21      -0.2715
     31  CB        26.1340   20.8230   82.7980 C.3    21  LYS21       0.0311
     32  CG        24.8280   21.2580   82.1430 C.3    21  LYS21       0.0038
     33  CD        24.1700   22.4210   82.8860 C.3    21  LYS21       0.0206
     34  CE        23.7490   22.0210   84.2970 C.3    21  LYS21       0.1093
     35  NZ        22.6460   21.0270   84.2850 N.3    21  LYS21      -0.1314
     36  N         28.0840   18.7650   83.9880 N.am   22  SER22      -0.1936
     37  CA        29.2910   18.4550   84.7520 C.3    22  SER22       0.2055
     38  C         30.1900   17.4150   84.0710 C.2    22  SER22       0.2643
     39  O         31.4320   17.5130   84.1110 O.2    22  SER22      -0.2714
     40  CB        28.9320   18.0090   86.1800 C.3    22  SER22       0.2130
     41  OG        28.1610   18.9900   86.8620 O.3    22  SER22      -0.2179
     42  N         29.5590   16.4120   83.4670 N.am   23  THR23      -0.1950
     43  CA        30.2710   15.4410   82.6400 C.3    23  THR23       0.1897
     44  C         31.0510   16.1650   81.5420 C.2    23  THR23       0.2313
     45  O         32.2360   15.9270   81.3500 O.2    23  THR23      -0.2863
     46  CB        29.2930   14.4530   81.9960 C.3    23  THR23       0.1794
     47  OG1       28.5370   13.7980   83.0270 O.3    23  THR23      -0.2208
     48  CG2       30.0410   13.4290   81.1510 C.3    23  THR23       0.0378
     49  N         29.3040   25.8480   85.9210 N.3    77  ASP77      -0.1239
     50  CA        28.5350   24.6170   85.8490 C.3    77  ASP77       0.1674
     51  C         27.3040   24.7460   86.7320 C.2    77  ASP77       0.2266
     52  O         27.3400   24.4040   87.9170 O.2    77  ASP77      -0.2867
     53  CB        29.4000   23.4310   86.2970 C.3    77  ASP77       0.1410
     54  CG        28.6610   22.1080   86.2370 C.2    77  ASP77       0.3668
     55  OD1       27.5850   22.0510   85.6070 O.co2  77  ASP77      -0.2456
     56  OD2       29.1560   21.1250   86.8290 O.co2  77  ASP77      -0.2456
     57  N         22.5940   25.0880   86.2600 N.3    79  THR79      -0.1218
     58  CA        21.4980   24.9080   85.3160 C.3    79  THR79       0.1862
     59  C         21.3930   26.0950   84.3630 C.2    79  THR79       0.2287
     60  O         21.3570   25.9100   83.1410 O.2    79  THR79      -0.2866
     61  CB        20.1360   24.6720   86.0120 C.3    79  THR79       0.1770
     62  OG1       19.7180   25.8650   86.6810 O.3    79  THR79      -0.2211
     63  CG2       20.2410   23.5310   86.9970 C.3    79  THR79       0.0375
     64  N         18.5800    9.7600   82.3060 N.3   115  ARG115     -0.1245
     65  CA        19.9010    9.8080   82.9360 C.3   115  ARG115      0.1563
     66  C         19.7600   10.0320   84.4280 C.2   115  ARG115      0.2260
     67  O         20.4910    9.4500   85.2350 O.2   115  ARG115     -0.2867
     68  CB        20.7500   10.9220   82.3320 C.3   115  ARG115      0.0307
     69  CG        21.1340   10.6970   80.8730 C.3   115  ARG115      0.0489
     70  CD        21.8600   11.9120   80.3140 C.3   115  ARG115      0.2205
     71  NE        22.4540   11.6720   78.9950 N.pl3 115  ARG115     -0.0865
     72  CZ        23.0150   12.6150   78.2430 C.cat 115  ARG115      0.5346
     73  NH1       23.0600   13.8720   78.6630 N.pl3 115  ARG115      0.1354
     74  NH2       23.5290   12.3030   77.0650 N.pl3 115  ARG115      0.1354
     75  N         19.2130    7.0530   86.6440 N.3   118  ASN118     -0.1225
     76  CA        20.3640    6.1610   86.7330 C.3   118  ASN118      0.1785
     77  C         21.5800    6.7830   87.4280 C.2   118  ASN118      0.2597
     78  O         22.6040    6.1220   87.5920 O.2   118  ASN118     -0.2718
     79  CB        20.7380    5.6330   85.3450 C.3   118  ASN118      0.1169
     80  CG        19.6740    4.7100   84.7620 C.2   118  ASN118      0.2627
     81  OD1       19.2140    3.7720   85.4190 O.2   118  ASN118     -0.2716
     82  ND2       19.2900    4.9670   83.5100 N.am  118  ASN118     -0.0877
     83  N         21.4590    8.0450   87.8400 N.am  119  ARG119     -0.1966
     84  CA        22.5250    8.7300   88.5800 C.3   119  ARG119      0.1729
     85  C         22.8540    8.0650   89.9200 C.2   119  ARG119      0.2617
     86  O         21.9630    7.6130   90.6460 O.2   119  ARG119     -0.2715
     87  CB        22.1510   10.1880   88.8500 C.3   119  ARG119      0.0348
     88  CG        21.9060   10.9980   87.6100 C.3   119  ARG119      0.0492
     89  CD        21.6760   12.4430   87.9730 C.3   119  ARG119      0.2205
     90  NE        22.8490   13.0520   88.5970 N.pl3 119  ARG119     -0.0865
     91  CZ        23.0630   14.3640   88.6430 C.cat 119  ARG119      0.5346
     92  NH1       22.1790   15.1890   88.0970 N.pl3 119  ARG119      0.1354
     93  NH2       24.1550   14.8510   89.2210 N.pl3 119  ARG119      0.1354
     94  N         24.1370    8.0350   90.2580 N.am  120  THR120     -0.1937
     95  CA        24.5720    7.4260   91.5010 C.3   120  THR120      0.2028
     96  C         24.9630    8.4830   92.5120 C.2   120  THR120      0.2642
     97  O         25.1800    8.1880   93.6850 O.2   120  THR120     -0.2714
     98  CB        25.7730    6.4980   91.2870 C.3   120  THR120      0.1808
     99  OG1       26.8270    7.2390   90.6610 O.3   120  THR120     -0.2208
    100  CG2       25.3830    5.3160   90.4040 C.3   120  THR120      0.0379
    101  N         25.0560    9.7270   92.0730 N.am  121  ASP121     -0.1957
    102  CA        25.4540   10.7940   92.9940 C.3   121  ASP121      0.1840
    103  C         24.2650   11.4260   93.7080 C.2   121  ASP121      0.2621
    104  O         24.2040   11.4390   94.9250 O.2   121  ASP121     -0.2715
    105  CB        26.3060   11.8590   92.2890 C.3   121  ASP121      0.1450
    106  CG        25.7130   12.3140   90.9720 C.2   121  ASP121      0.3671
    107  OD1       24.8830   11.5780   90.3920 O.co2 121  ASP121     -0.2456
    108  OD2       26.0950   13.4100   90.5050 O.co2 121  ASP121     -0.2456
    109  N         23.3200   11.9440   92.9370 N.am  122  ARG122     -0.1977
    110  CA        22.0990   12.5160   93.4870 C.3   122  ARG122      0.1597
    111  C         21.0400   12.5580   92.3860 C.2   122  ARG122      0.2287
    112  O         21.3760   12.5860   91.1980 O.2   122  ARG122     -0.2864
    113  CB        22.3600   13.9270   93.9990 C.3   122  ARG122      0.0334
    114  CG        22.9550   14.8310   92.9450 C.3   122  ARG122      0.0492
    115  CD        23.3460   16.2030   93.4720 C.3   122  ARG122      0.2205
    116  NE        24.1440   16.9150   92.4710 N.pl3 122  ARG122     -0.0865
    117  CZ        23.6380   17.6100   91.4520 C.cat 122  ARG122      0.5346
    118  NH1       22.3220   17.7200   91.2950 N.pl3 122  ARG122      0.1354
    119  NH2       24.4550   18.2060   90.5940 N.pl3 122  ARG122      0.1354
    120  N         22.6340   14.3570   71.8440 N.3   156  PRO156     -0.2116
    121  CA        23.7830   13.8030   72.5700 C.3   156  PRO156      0.1372
    122  C         24.9650   13.5300   71.6400 C.2   156  PRO156      0.2244
    123  O         26.1130   13.5820   72.0760 O.2   156  PRO156     -0.2868
    124  CB        23.2370   12.4870   73.1250 C.3   156  PRO156      0.0268
    125  CG        21.7590   12.6930   73.2010 C.3   156  PRO156      0.0207
    126  CD        21.4360   13.5110   71.9890 C.3   156  PRO156      0.0892
    127  N         26.7690   16.8260   71.2000 N.3   159  VAL159     -0.1231
    128  CA        27.4630   17.1170   72.4460 C.3   159  VAL159      0.1692
    129  C         28.7580   16.3210   72.5020 C.2   159  VAL159      0.2591
    130  O         29.8080   16.8310   72.8790 O.2   159  VAL159     -0.2718
    131  CB        26.5940   16.7320   73.6480 C.3   159  VAL159      0.0266
    132  CG1       27.4100   16.7690   74.9630 C.3   159  VAL159      0.0020
    133  CG2       25.3630   17.6350   73.7310 C.3   159  VAL159      0.0020
    134  N         28.6700   15.0600   72.1020 N.am  160  GLU160     -0.1979
    135  CA        29.8080   14.1530   72.0680 C.3   160  GLU160      0.1602
    136  C         30.9380   14.6520   71.1620 C.2   160  GLU160      0.2287
    137  O         32.1170   14.5560   71.5120 O.2   160  GLU160     -0.2864
    138  CB        29.3290   12.7830   71.5940 C.3   160  GLU160      0.0415
    139  CG        29.4310   11.6930   72.6260 C.3   160  GLU160      0.1163
    140  CD        30.8200   11.1010   72.6900 C.2   160  GLU160      0.3649
    141  OE1       31.0820   10.2850   73.6020 O.co2 160  GLU160     -0.2457
    142  OE2       31.6500   11.4520   71.8250 O.co2 160  GLU160     -0.2457
@<TRIPOS>BOND
     1   136   137    2
     2   136   135    1
     3   127   128    1
     4   138   135    1
     5   138   139    1
     6   122   123    2
     7   122   121    1
     8   142   140   ar
     9   120   126    1
    10   120   121    1
    11   126   125    1
    12   135   134    1
    13   134   129   am
    14   128   129    1
    15   128   131    1
    16   129   130    2
    17   121   124    1
    18   139   140    1
    19   140   141   ar
    20   124   125    1
    21   131   133    1
    22   131   132    1
    23    74    72    1
    24    72    73    1
    25    72    71    2
    26    71    70    1
    27    20    19    2
    28    21    18    1
    29    21    22    1
    30    70    69    1
    31    19    18    1
    32    19    23   am
    33    18    17    1
    34    69    68    1
    35    26    25    2
    36    48    46    1
    37    24    25    1
    38    24    23    1
    39    45    44    2
    40    25    27   am
    41    44    43    1
    42     1     2    1
    43    16    15    2
    44    17    15   am
    45    27    28    1
    46    46    43    1
    47    46    47    1
    48    28    29    1
    49    28    31    1
    50     5     2    1
    51     5     6    1
    52    32    31    1
    53    32    33    1
    54    30    29    2
    55    64    65    1
    56    68    65    1
    57    15    14    1
    58    43    42    1
    59     2     3    1
    60    29    36   am
    61    33    34    1
    62    65    66    1
    63    60    59    2
    64     4     3    2
    65    42    38   am
    66    82    80   am
    67     3     7   am
    68    14    13    1
    69    36    37    1
    70    10     9    2
    71    38    39    2
    72    38    37    1
    73    35    34    1
    74    59    58    1
    75    66    67    2
    76    13     9   am
    77     9     8    1
    78     7     8    1
    79    37    40    1
    80    80    79    1
    81    80    81    2
    82    58    61    1
    83    58    57    1
    84    79    76    1
    85     8    11    1
    86    55    54   ar
    87    50    49    1
    88    50    53    1
    89    50    51    1
    90    61    62    1
    91    61    63    1
    92    40    41    1
    93    54    53    1
    94    54    56   ar
    95    75    76    1
    96    51    52    2
    97    76    77    1
    98    11    12    1
    99    77    78    2
   100    77    83   am
   101    88    89    1
   102    88    87    1
   103    83    84    1
   104    89    90    1
   105    92    91    1
   106    84    87    1
   107    84    85    1
   108    90    91    2
   109    91    93    1
   110    85    94   am
   111    85    86    2
   112    94    95    1
   113   107   106   ar
   114   100    98    1
   115   108   106   ar
   116   119   117    1
   117    99    98    1
   118   106   105    1
   119   112   111    2
   120    98    95    1
   121   118   117    1
   122   117   116    2
   123    95    96    1
   124   101    96   am
   125   101   102    1
   126   105   102    1
   127   111   110    1
   128   116   115    1
   129    96    97    2
   130   109   110    1
   131   109   103   am
   132   114   115    1
   133   114   113    1
   134   102   103    1
   135   110   113    1
   136   103   104    2
