@<TRIPOS>MOLECULE
tmp/4jt3A00.pdb
 167 155 0 0 0
SMALL
GASTEIGER

@<TRIPOS>ATOM
      1  N         41.5950   22.3800   56.7130 N.3    15  LYS15      -0.1245
      2  CA        41.3870   20.9360   56.5490 C.3    15  LYS15       0.1561
      3  C         41.5150   20.5520   55.0620 C.2    15  LYS15       0.2260
      4  O         41.2260   21.3710   54.1870 O.2    15  LYS15      -0.2867
      5  CB        40.0020   20.5350   57.1360 C.3    15  LYS15       0.0271
      6  CG        39.2140   19.4460   56.4060 C.3    15  LYS15       0.0035
      7  CD        38.6180   18.4200   57.3530 C.3    15  LYS15       0.0206
      8  CE        37.9020   17.3340   56.5890 C.3    15  LYS15       0.1093
      9  NZ        37.4400   16.2390   57.4810 N.3    15  LYS15      -0.1314
     10  N         40.1250   18.6660   51.9370 N.3    17  ILE17      -0.1231
     11  CA        38.8440   18.2040   51.3920 C.3    17  ILE17       0.1692
     12  C         39.0460   16.8320   50.7220 C.2    17  ILE17       0.2593
     13  O         38.3400   15.8790   51.0550 O.2    17  ILE17      -0.2718
     14  CB        38.2280   19.2580   50.4160 C.3    17  ILE17       0.0266
     15  CG1       37.8240   20.5470   51.1660 C.3    17  ILE17       0.0019
     16  CG2       37.0360   18.6810   49.6310 C.3    17  ILE17       0.0020
     17  CD1       37.7860   21.8180   50.3080 C.3    17  ILE17       0.0001
     18  N         39.9980   16.7580   49.7920 N.am   18  GLY18      -0.1942
     19  CA        40.3130   15.5390   49.0570 C.3    18  GLY18       0.2014
     20  C         41.6760   15.5420   48.3970 C.2    18  GLY18       0.2640
     21  O         42.3480   16.5760   48.3390 O.2    18  GLY18      -0.2714
     22  N         42.0890   14.3660   47.9020 N.am   19  SER19      -0.1935
     23  CA        43.3610   14.1390   47.2150 C.3    19  SER19       0.2058
     24  C         43.1800   13.1080   46.1080 C.2    19  SER19       0.2682
     25  O         42.4350   12.1400   46.2860 O.2    19  SER19      -0.2710
     26  CB        44.4340   13.6800   48.1990 C.3    19  SER19       0.2130
     27  OG        44.0750   12.4660   48.8400 O.3    19  SER19      -0.2179
     28  N         43.8550   13.3220   44.9810 N.am   20  GLY20      -0.1729
     29  CA        43.7640   12.4150   43.8450 C.2    20  GLY20       0.1340
     30  C         44.6870   12.7130   42.6840 C.2    20  GLY20       0.2521
     31  O         44.4890   13.7030   41.9720 O.2    20  GLY20      -0.2816
     32  N         47.1660   15.7990   42.7520 N.3    23  SER23      -0.1217
     33  CA        46.2940   16.9210   43.1020 C.3    23  SER23       0.1889
     34  C         45.6910   16.7700   44.5020 C.2    23  SER23       0.2288
     35  O         45.4200   15.6540   44.9520 O.2    23  SER23      -0.2866
     36  CB        45.1740   17.0680   42.0770 C.3    23  SER23       0.2089
     37  OG        45.6820   17.4580   40.8120 O.3    23  SER23      -0.2183
     38  N         42.8630   19.1090   47.3360 N.3    25  VAL25      -0.1245
     39  CA        41.9280   20.2170   47.5590 C.3    25  VAL25       0.1561
     40  C         41.8530   20.4520   49.0700 C.2    25  VAL25       0.2260
     41  O         41.6660   19.4970   49.8270 O.2    25  VAL25      -0.2867
     42  CB        40.5270   19.9920   46.9200 C.3    25  VAL25       0.0252
     43  CG1       39.6590   21.2430   47.0380 C.3    25  VAL25       0.0019
     44  CG2       40.6430   19.5760   45.4560 C.3    25  VAL25       0.0019
     45  N         40.5060   23.2430   52.4280 N.3    27  GLN27      -0.1245
     46  CA        39.7140   24.3260   52.9930 C.3    27  GLN27       0.1566
     47  C         40.7260   25.3240   53.5170 C.2    27  GLN27       0.2260
     48  O         41.6300   24.9250   54.2550 O.2    27  GLN27      -0.2867
     49  CB        38.8130   23.8130   54.1250 C.3    27  GLN27       0.0367
     50  CG        37.4220   23.3730   53.7110 C.3    27  GLN27       0.0905
     51  CD        36.5230   23.1860   54.9140 C.2    27  GLN27       0.2608
     52  OE1       36.9600   22.8480   56.0190 O.2    27  GLN27      -0.2717
     53  NE2       35.2400   23.4050   54.7260 N.am   27  GLN27      -0.0878
     54  N         38.4470   27.5110   48.7630 N.3    37  ALA37      -0.1245
     55  CA        38.9350   26.1660   48.4880 C.3    37  ALA37       0.1562
     56  C         40.1120   26.2730   47.5360 C.2    37  ALA37       0.2260
     57  O         39.9570   26.7900   46.4280 O.2    37  ALA37      -0.2867
     58  CB        37.8320   25.3010   47.9010 C.3    37  ALA37       0.0290
     59  N         42.9270   24.4080   45.2830 N.3    39  LYS39      -0.1245
     60  CA        43.3550   23.1780   44.6260 C.3    39  LYS39       0.1561
     61  C         44.8500   23.3020   44.3560 C.2    39  LYS39       0.2260
     62  O         45.2930   24.2910   43.7640 O.2    39  LYS39      -0.2867
     63  CB        42.5550   22.8880   43.3350 C.3    39  LYS39       0.0271
     64  CG        43.1680   21.8140   42.4290 C.3    39  LYS39       0.0035
     65  CD        42.1960   20.6980   42.0730 C.3    39  LYS39       0.0206
     66  CE        41.8880   20.6670   40.5960 C.3    39  LYS39       0.1093
     67  NZ        41.3800   19.3390   40.1650 N.3    39  LYS39      -0.1314
     68  N         31.9110   26.9040   38.7710 N.3    72  ILE72      -0.1245
     69  CA        32.6520   27.2540   39.9930 C.3    72  ILE72       0.1561
     70  C         33.3910   28.5950   39.8150 C.2    72  ILE72       0.2260
     71  O         33.9740   28.8530   38.7580 O.2    72  ILE72      -0.2867
     72  CB        33.6160   26.1110   40.4490 C.3    72  ILE72       0.0252
     73  CG1       34.2660   26.4050   41.8210 C.3    72  ILE72       0.0019
     74  CG2       34.6810   25.7670   39.4020 C.3    72  ILE72       0.0019
     75  CD1       33.6410   25.7230   42.9540 C.3    72  ILE72       0.0001
     76  N         39.5150   28.9960   44.7570 N.3    88  MET88      -0.1230
     77  CA        38.1280   28.8630   44.3280 C.3    88  MET88       0.1702
     78  C         37.1310   29.0230   45.4690 C.2    88  MET88       0.2592
     79  O         37.5010   29.0580   46.6460 O.2    88  MET88      -0.2718
     80  CB        37.9070   27.4900   43.6770 C.3    88  MET88       0.0401
     81  CG        38.6170   27.3130   42.3570 C.3    88  MET88       0.0596
     82  SD        38.4840   25.6240   41.7420 S.3    88  MET88      -0.1393
     83  CE        39.5550   24.7920   42.8570 C.3    88  MET88       0.0692
     84  N         35.8510   29.0910   45.0880 N.am   89  GLU89      -0.1966
     85  CA        34.6840   29.1570   45.9570 C.3    89  GLU89       0.1733
     86  C         34.5800   27.8420   46.7290 C.2    89  GLU89       0.2616
     87  O         34.8060   26.7750   46.1470 O.2    89  GLU89      -0.2715
     88  CB        33.4460   29.3760   45.0700 C.3    89  GLU89       0.0429
     89  CG        32.1760   29.8030   45.7810 C.3    89  GLU89       0.1163
     90  CD        31.0270   30.1290   44.8430 C.2    89  GLU89       0.3649
     91  OE1       30.9270   29.4930   43.7670 O.co2  89  GLU89      -0.2457
     92  OE2       30.2230   31.0250   45.1860 O.co2  89  GLU89      -0.2457
     93  N         34.2850   27.9110   48.0360 N.am   90  CYS90      -0.1954
     94  CA        34.1460   26.6980   48.8380 C.3    90  CYS90       0.1843
     95  C         32.6830   26.2630   48.8520 C.2    90  CYS90       0.2626
     96  O         31.7950   27.0780   49.1100 O.2    90  CYS90      -0.2714
     97  CB        34.6930   26.8910   50.2480 C.3    90  CYS90       0.0997
     98  SG        34.9980   25.3420   51.1360 S.3    90  CYS90      -0.0797
     99  N         32.4540   24.9920   48.5390 N.am   91  GLY91      -0.1940
    100  CA        31.1280   24.3890   48.4770 C.3    91  GLY91       0.2014
    101  C         30.7630   23.5690   49.6950 C.2    91  GLY91       0.2639
    102  O         31.5250   23.5160   50.6650 O.2    91  GLY91      -0.2714
    103  N         29.5880   22.9120   49.6410 N.am   92  ASN92      -0.1958
    104  CA        29.0640   22.0900   50.7300 C.3    92  ASN92       0.1819
    105  C         29.4590   20.6230   50.5650 C.2    92  ASN92       0.2621
    106  O         30.0020   20.0340   51.5010 O.2    92  ASN92      -0.2715
    107  CB        27.5340   22.2100   50.8220 C.3    92  ASN92       0.1195
    108  CG        27.0380   23.6060   51.0950 C.2    92  ASN92       0.2630
    109  OD1       26.9200   24.0360   52.2430 O.2    92  ASN92      -0.2716
    110  ND2       26.7150   24.3360   50.0420 N.am   92  ASN92      -0.0877
    111  N         29.1650   20.0330   49.3880 N.am   93  ILE93      -0.1963
    112  CA        29.4210   18.6220   49.0640 C.3    93  ILE93       0.1727
    113  C         29.3120   18.4010   47.5420 C.2    93  ILE93       0.2616
    114  O         28.5600   19.1090   46.8680 O.2    93  ILE93      -0.2715
    115  CB        28.4230   17.7020   49.8590 C.3    93  ILE93       0.0290
    116  CG1       28.7980   16.2000   49.7880 C.3    93  ILE93       0.0022
    117  CG2       26.9440   17.9700   49.4990 C.3    93  ILE93       0.0023
    118  CD1       28.2360   15.3150   50.9330 C.3    93  ILE93       0.0001
    119  N         30.0550   17.4140   47.0090 N.am   94  ASP94      -0.1971
    120  CA        29.9700   17.0450   45.5970 C.3    94  ASP94       0.1709
    121  C         28.6790   16.2400   45.3970 C.2    94  ASP94       0.2293
    122  O         28.2070   15.6100   46.3480 O.2    94  ASP94      -0.2864
    123  CB        31.2190   16.2710   45.1380 C.3    94  ASP94       0.1436
    124  CG        31.4460   14.9550   45.8490 C.2    94  ASP94       0.3671
    125  OD1       31.9180   14.9790   47.0070 O.co2  94  ASP94      -0.2456
    126  OD2       31.1810   13.9000   45.2380 O.co2  94  ASP94      -0.2456
    127  N         29.1380   20.3210   41.9810 N.3   140  LEU140     -0.1245
    128  CA        29.2590   20.7040   43.3790 C.3   140  LEU140      0.1561
    129  C         28.0650   21.5400   43.8410 C.2   140  LEU140      0.2260
    130  O         27.6580   22.4700   43.1450 O.2   140  LEU140     -0.2867
    131  CB        30.5700   21.4940   43.5820 C.3   140  LEU140      0.0270
    132  CG        30.8320   22.0890   44.9740 C.3   140  LEU140      0.0019
    133  CD1       31.2190   21.0230   45.9610 C.3   140  LEU140      0.0001
    134  CD2       31.9090   23.1330   44.9250 C.3   140  LEU140      0.0001
    135  N         32.4900   21.8270   38.2290 N.3   149  ILE149     -0.1231
    136  CA        33.8450   22.1170   38.7130 C.3   149  ILE149      0.1692
    137  C         34.9090   21.9330   37.6180 C.2   149  ILE149      0.2592
    138  O         35.8540   22.7190   37.5870 O.2   149  ILE149     -0.2718
    139  CB        34.2340   21.3550   40.0150 C.3   149  ILE149      0.0266
    140  CG1       34.0410   19.8220   39.9020 C.3   149  ILE149      0.0019
    141  CG2       33.4950   21.9410   41.2190 C.3   149  ILE149      0.0020
    142  CD1       34.8780   18.9670   40.8800 C.3   149  ILE149      0.0001
    143  N         34.7660   20.9260   36.7330 N.am  150  ASP150     -0.1974
    144  CA        35.7340   20.6690   35.6590 C.3   150  ASP150      0.1709
    145  C         35.0340   20.4180   34.3130 C.2   150  ASP150      0.2293
    146  O         33.8620   20.0380   34.2930 O.2   150  ASP150     -0.2864
    147  CB        36.6520   19.4900   36.0220 C.3   150  ASP150      0.1436
    148  CG        35.9310   18.1720   36.2000 C.2   150  ASP150      0.3671
    149  OD1       35.3410   17.9590   37.2800 O.co2 150  ASP150     -0.2456
    150  OD2       35.9620   17.3490   35.2600 O.co2 150  ASP150     -0.2456
    151  N         41.8210   13.5920   35.4270 N.3   156  GLN156     -0.1231
    152  CA        41.5920   13.6730   36.8750 C.3   156  GLN156      0.1698
    153  C         41.3690   12.2950   37.5310 C.2   156  GLN156      0.2592
    154  O         41.2130   11.2890   36.8340 O.2   156  GLN156     -0.2718
    155  CB        40.3940   14.6060   37.1850 C.3   156  GLN156      0.0381
    156  CG        39.1840   14.4880   36.2450 C.3   156  GLN156      0.0905
    157  CD        38.3450   13.2590   36.4930 C.2   156  GLN156      0.2608
    158  OE1       37.4880   13.2300   37.3820 O.2   156  GLN156     -0.2717
    159  NE2       38.5690   12.2200   35.7040 N.am  156  GLN156     -0.0878
    160  N         41.3530   12.2700   38.8830 N.am  157  MET157     -0.1979
    161  CA        41.1290   11.0800   39.7050 C.3   157  MET157      0.1605
    162  C         39.7900   11.2070   40.4360 C.2   157  MET157      0.2287
    163  O         38.8320   10.5190   40.0920 O.2   157  MET157     -0.2864
    164  CB        42.2890   10.8870   40.7010 C.3   157  MET157      0.0413
    165  CG        42.1710    9.6350   41.5570 C.3   157  MET157      0.0598
    166  SD        43.7190    9.1660   42.3680 S.3   157  MET157     -0.1393
    167  CE        43.1700    7.7760   43.3190 C.3   157  MET157      0.0692
@<TRIPOS>BOND
     1   146   145    2
     2   145   144    1
     3   150   148   ar
     4   151   152    1
     5   144   147    1
     6   144   143    1
     7   159   157   am
     8   147   148    1
     9   148   149   ar
    10   156   157    1
    11   156   155    1
    12   157   158    2
    13   143   137   am
    14   154   153    2
    15   152   155    1
    16   152   153    1
    17   153   160   am
    18   138   137    2
    19   137   136    1
    20   135   136    1
    21   136   139    1
    22    71    70    2
    23    68    69    1
    24   160   161    1
    25    74    72    1
    26   161   162    1
    27   161   164    1
    28    70    69    1
    29   140   139    1
    30   140   142    1
    31    69    72    1
    32   139   141    1
    33   163   162    2
    34    67    66    1
    35    72    73    1
    36    66    65    1
    37   164   165    1
    38    37    36    1
    39   165   166    1
    40    82    81    1
    41    82    83    1
    42    73    75    1
    43    31    30    2
    44   127   128    1
    45    65    64    1
    46    36    33    1
    47    81    80    1
    48   166   167    1
    49    64    63    1
    50    30    29    1
    51    32    33    1
    52    33    34    1
    53   130   129    2
    54    63    60    1
    55   128   131    1
    56   128   129    1
    57   131   132    1
    58    80    77    1
    59    62    61    2
    60    91    90   ar
    61    29    28    2
    62    77    76    1
    63    77    78    1
    64    61    60    1
    65    34    35    2
    66    60    59    1
    67    90    92   ar
    68    90    89    1
    69   134   132    1
    70   132   133    1
    71    28    24    1
    72    88    89    1
    73    88    85    1
    74    84    78   am
    75    84    85    1
    76   123   120    1
    77   123   124    1
    78   126   124   ar
    79   121   120    1
    80   121   122    2
    81    44    42    1
    82    78    79    2
    83   120   119    1
    84   124   125   ar
    85    85    86    1
    86    24    25    2
    87    24    23    1
    88    87    86    2
    89    57    56    2
    90    86    93   am
    91   114   113    2
    92    42    43    1
    93    42    39    1
    94   119   113   am
    95    23    22    1
    96    23    26    1
    97    38    39    1
    98    56    55    1
    99   113   112    1
   100    39    40    1
   101    58    55    1
   102    22    20   am
   103    93    94    1
   104    26    27    1
   105    21    20    2
   106    20    19    1
   107   100    99    1
   108   100   101    1
   109    55    54    1
   110    99    95   am
   111    94    95    1
   112    94    97    1
   113    95    96    2
   114    19    18    1
   115   112   111    1
   116   112   115    1
   117    40    41    2
   118   111   105   am
   119   117   115    1
   120    16    14    1
   121   103   101   am
   122   103   104    1
   123   101   102    2
   124   116   115    1
   125   116   118    1
   126    18    12   am
   127   110   108   am
   128    97    98    1
   129    17    15    1
   130    14    15    1
   131    14    11    1
   132   105   104    1
   133   105   106    2
   134    12    13    2
   135    12    11    1
   136   104   107    1
   137   107   108    1
   138   108   109    2
   139    11    10    1
   140    45    46    1
   141    46    47    1
   142    46    49    1
   143    47    48    2
   144    50    49    1
   145    50    51    1
   146     4     3    2
   147    53    51   am
   148    51    52    2
   149     3     2    1
   150     6     5    1
   151     6     7    1
   152     2     1    1
   153     2     5    1
   154     8     7    1
   155     8     9    1
