@<TRIPOS>MOLECULE
tmp/4jt4B00.pdb
 140 132 0 0 0
SMALL
GASTEIGER

@<TRIPOS>ATOM
      1  N         14.2750   37.0310   49.7950 N.3    17  SER17      -0.1202
      2  CA        14.1920   38.2510   49.0050 C.3    17  SER17       0.2020
      3  C         13.4280   39.2730   49.8380 C.2    17  SER17       0.2619
      4  O         12.5070   38.9110   50.5690 O.2    17  SER17      -0.2717
      5  CB        13.4510   38.0120   47.6890 C.3    17  SER17       0.2103
      6  OG        13.3760   39.2410   46.9600 O.3    17  SER17      -0.2182
      7  N         13.8350   40.5380   49.7700 N.am   18  GLY18      -0.1942
      8  CA        13.2120   41.5740   50.5730 C.3    18  GLY18       0.2014
      9  C         13.6340   41.6650   52.0360 C.2    18  GLY18       0.2640
     10  O         13.1680   42.5650   52.7510 O.2    18  GLY18      -0.2714
     11  N         14.4880   40.7510   52.5100 N.am   19  SER19      -0.1935
     12  CA        14.8550   40.7690   53.9310 C.3    19  SER19       0.2055
     13  C         15.9320   41.8090   54.2450 C.2    19  SER19       0.2644
     14  O         16.2550   42.0490   55.4160 O.2    19  SER19      -0.2714
     15  CB        15.3020   39.3860   54.4370 C.3    19  SER19       0.2130
     16  OG        16.4540   38.9440   53.7150 O.3    19  SER19      -0.2179
     17  N         16.5010   42.3980   53.1980 N.am   20  GLY20      -0.1939
     18  CA        17.4460   43.4860   53.3520 C.3    20  GLY20       0.2014
     19  C         18.9110   43.1130   53.2960 C.2    20  GLY20       0.2639
     20  O         19.7630   43.8710   53.7810 O.2    20  GLY20      -0.2714
     21  N         19.2150   41.9800   52.6690 N.am   21  LYS21      -0.1963
     22  CA        20.5780   41.4780   52.6370 C.3    21  LYS21       0.1728
     23  C         21.5290   42.4580   51.9450 C.2    21  LYS21       0.2617
     24  O         22.5950   42.7910   52.4850 O.2    21  LYS21      -0.2715
     25  CB        20.6320   40.1040   51.9460 C.3    21  LYS21       0.0311
     26  CG        19.8300   39.0040   52.6460 C.3    21  LYS21       0.0038
     27  CD        19.8960   37.6770   51.8600 C.3    21  LYS21       0.0206
     28  CE        19.3740   37.8230   50.3860 C.3    21  LYS21       0.1093
     29  NZ        17.9430   38.2060   50.3260 N.3    21  LYS21      -0.1314
     30  N         21.1500   42.9160   50.7600 N.am   22  SER22      -0.1936
     31  CA        22.0300   43.7770   49.9750 C.3    22  SER22       0.2055
     32  C         22.2210   45.1280   50.6490 C.2    22  SER22       0.2643
     33  O         23.3120   45.6950   50.6680 O.2    22  SER22      -0.2714
     34  CB        21.4870   43.9210   48.5440 C.3    22  SER22       0.2130
     35  OG        21.5450   42.6530   47.8930 O.3    22  SER22      -0.2179
     36  N         21.1410   45.6460   51.2020 N.am   23  THR23      -0.1950
     37  CA        21.1960   46.8760   51.9760 C.3    23  THR23       0.1897
     38  C         22.1470   46.7500   53.1560 C.2    23  THR23       0.2313
     39  O         23.0000   47.6130   53.3840 O.2    23  THR23      -0.2863
     40  CB        19.7980   47.2100   52.4990 C.3    23  THR23       0.1794
     41  OG1       18.9310   47.4340   51.3830 O.3    23  THR23      -0.2208
     42  CG2       19.8260   48.4280   53.4000 C.3    23  THR23       0.0378
     43  N         22.8760   38.2070   42.0250 N.3    38  ASP38      -0.1239
     44  CA        22.3760   39.0870   40.9540 C.3    38  ASP38       0.1674
     45  C         23.5160   39.5240   40.0490 C.2    38  ASP38       0.2266
     46  O         23.3940   39.5100   38.8330 O.2    38  ASP38      -0.2867
     47  CB        21.6740   40.3260   41.5220 C.3    38  ASP38       0.1410
     48  CG        20.2800   40.0210   42.0540 C.2    38  ASP38       0.3668
     49  OD1       19.9220   38.8270   42.1340 O.co2  38  ASP38      -0.2456
     50  OD2       19.5470   40.9760   42.4010 O.co2  38  ASP38      -0.2456
     51  N         26.1700   37.5770   49.1010 N.3    77  ASP77      -0.1239
     52  CA        24.8780   38.2260   49.1160 C.3    77  ASP77       0.1674
     53  C         23.9750   37.4580   48.1670 C.2    77  ASP77       0.2266
     54  O         23.8460   37.8010   46.9900 O.2    77  ASP77      -0.2867
     55  CB        25.0250   39.6910   48.7090 C.3    77  ASP77       0.1410
     56  CG        23.6980   40.4160   48.6460 C.2    77  ASP77       0.3668
     57  OD1       22.7130   39.8830   49.1980 O.co2  77  ASP77      -0.2456
     58  OD2       23.6410   41.5170   48.0380 O.co2  77  ASP77      -0.2456
     59  N         20.2830   34.5500   48.5990 N.3    79  THR79      -0.1218
     60  CA        19.2650   34.1460   49.5640 C.3    79  THR79       0.1862
     61  C         19.7860   33.0760   50.5270 C.2    79  THR79       0.2287
     62  O         19.5910   33.1830   51.7330 O.2    79  THR79      -0.2866
     63  CB        17.9810   33.6940   48.8740 C.3    79  THR79       0.1770
     64  OG1       18.3030   32.6790   47.9380 O.3    79  THR79      -0.2211
     65  CG2       17.3590   34.8600   48.1220 C.3    79  THR79       0.0375
     66  N          8.3860   45.2720   52.0340 N.3   115  ARG115     -0.1245
     67  CA         9.5330   45.9080   51.3950 C.3   115  ARG115      0.1563
     68  C          9.5530   45.5910   49.8900 C.2   115  ARG115      0.2260
     69  O          9.8410   46.4560   49.0590 O.2   115  ARG115     -0.2867
     70  CB        10.8320   45.4340   52.0570 C.3   115  ARG115      0.0307
     71  CG        10.9570   45.8590   53.5430 C.3   115  ARG115      0.0489
     72  CD        12.1970   45.2580   54.2000 C.3   115  ARG115      0.2205
     73  NE        12.4130   45.7110   55.5830 N.pl3 115  ARG115     -0.0865
     74  CZ        13.4140   45.2880   56.3520 C.cat 115  ARG115      0.5346
     75  NH1       14.2870   44.4020   55.8810 N.pl3 115  ARG115      0.1354
     76  NH2       13.5410   45.7310   57.5910 N.pl3 115  ARG115      0.1354
     77  N          7.3420   47.6320   47.9520 N.3   118  ASN118     -0.1225
     78  CA         7.7760   49.0220   47.8960 C.3   118  ASN118      0.1785
     79  C          9.0670   49.2350   47.1260 C.2   118  ASN118      0.2597
     80  O          9.5050   50.3680   46.9750 O.2   118  ASN118     -0.2718
     81  CB         7.9030   49.6240   49.3060 C.3   118  ASN118      0.1169
     82  CG         6.5710   49.7070   50.0270 C.2   118  ASN118      0.2627
     83  OD1        5.5500   49.9810   49.4170 O.2   118  ASN118     -0.2716
     84  ND2        6.5800   49.4570   51.3320 N.am  118  ASN118     -0.0877
     85  N          9.6750   48.1480   46.6600 N.am  119  ARG119     -0.1966
     86  CA        10.9250   48.2180   45.9050 C.3   119  ARG119      0.1729
     87  C         10.6970   48.8590   44.5530 C.2   119  ARG119      0.2617
     88  O          9.7660   48.4900   43.8610 O.2   119  ARG119     -0.2715
     89  CB        11.4660   46.8150   45.6260 C.3   119  ARG119      0.0348
     90  CG        12.0900   46.1500   46.8000 C.3   119  ARG119      0.0492
     91  CD        12.5900   44.7990   46.3980 C.3   119  ARG119      0.2205
     92  NE        13.8670   44.8770   45.7030 N.pl3 119  ARG119     -0.0865
     93  CZ        14.7230   43.8640   45.6580 C.cat 119  ARG119      0.5346
     94  NH1       14.4150   42.7090   46.2500 N.pl3 119  ARG119      0.1354
     95  NH2       15.8770   44.0000   45.0280 N.pl3 119  ARG119      0.1354
     96  N         11.5900   49.7670   44.1610 N.am  120  THR120     -0.1937
     97  CA        11.5150   50.4190   42.8570 C.3   120  THR120      0.2028
     98  C         12.6080   49.9360   41.9020 C.2   120  THR120      0.2642
     99  O         12.6310   50.3450   40.7480 O.2   120  THR120     -0.2714
    100  CB        11.6730   51.9450   42.9810 C.3   120  THR120      0.1808
    101  OG1       12.9540   52.2410   43.5580 O.3   120  THR120     -0.2208
    102  CG2       10.5640   52.5460   43.8540 C.3   120  THR120      0.0379
    103  N         13.5110   49.0760   42.3730 N.am  121  ASP121     -0.1971
    104  CA        14.6150   48.5970   41.5260 C.3   121  ASP121      0.1709
    105  C         14.2590   47.3250   40.7660 C.2   121  ASP121      0.2293
    106  O         14.5290   47.2100   39.5670 O.2   121  ASP121     -0.2864
    107  CB        15.9150   48.4080   42.3330 C.3   121  ASP121      0.1436
    108  CG        15.7450   47.4900   43.5550 C.2   121  ASP121      0.3671
    109  OD1       14.6330   47.4040   44.1090 O.co2 121  ASP121     -0.2456
    110  OD2       16.7410   46.8600   43.9780 O.co2 121  ASP121     -0.2456
    111  N          9.9870   40.6500   43.2190 N.3   124  VAL124     -0.1245
    112  CA         9.7080   39.2500   42.9680 C.3   124  VAL124      0.1561
    113  C          8.2420   38.9930   43.2940 C.2   124  VAL124      0.2260
    114  O          7.5710   39.8400   43.8900 O.2   124  VAL124     -0.2867
    115  CB        10.6090   38.3070   43.8110 C.3   124  VAL124      0.0252
    116  CG1       12.0900   38.5780   43.5510 C.3   124  VAL124      0.0019
    117  CG2       10.2900   38.4150   45.2960 C.3   124  VAL124      0.0019
    118  N         13.9600   43.7750   62.8400 N.3   156  PRO156     -0.2116
    119  CA        14.5830   44.9490   62.2000 C.3   156  PRO156      0.1372
    120  C         15.4760   45.7380   63.1600 C.2   156  PRO156      0.2244
    121  O         16.5440   46.2260   62.7580 O.2   156  PRO156     -0.2868
    122  CB        13.3750   45.8040   61.8010 C.3   156  PRO156      0.0268
    123  CG        12.2990   44.7750   61.5110 C.3   156  PRO156      0.0207
    124  CD        12.5140   43.6940   62.5560 C.3   156  PRO156      0.0892
    125  N         18.7370   43.9010   63.5490 N.3   159  VAL159     -0.1231
    126  CA        19.4960   44.0930   62.3150 C.3   159  VAL159      0.1692
    127  C         20.1590   45.4610   62.3370 C.2   159  VAL159      0.2591
    128  O         21.3730   45.5980   62.1070 O.2   159  VAL159     -0.2718
    129  CB        18.5820   44.0230   61.0570 C.3   159  VAL159      0.0266
    130  CG1       19.3620   44.4320   59.8070 C.3   159  VAL159      0.0020
    131  CG2       18.0050   42.6180   60.8860 C.3   159  VAL159      0.0020
    132  N         19.3480   46.4680   62.6320 N.am  160  GLU160     -0.1979
    133  CA        19.8040   47.8480   62.6660 C.3   160  GLU160      0.1602
    134  C         20.9180   48.0400   63.7040 C.2   160  GLU160      0.2287
    135  O         21.8300   48.8400   63.5110 O.2   160  GLU160     -0.2864
    136  CB        18.6050   48.7600   62.9680 C.3   160  GLU160      0.0415
    137  CG        18.5620   50.0520   62.1730 C.3   160  GLU160      0.1163
    138  CD        19.5450   51.0800   62.6790 C.2   160  GLU160      0.3649
    139  OE1       19.9280   51.9770   61.8950 O.co2 160  GLU160     -0.2457
    140  OE2       19.9330   50.9900   63.8630 O.co2 160  GLU160     -0.2457
@<TRIPOS>BOND
     1    46    45    2
     2   106   105    2
     3    45    44    1
     4    99    98    2
     5   105   104    1
     6    44    47    1
     7    44    43    1
     8    47    48    1
     9   104   107    1
    10   104   103    1
    11    98   103   am
    12    98    97    1
    13    48    49   ar
    14    48    50   ar
    15   107   108    1
    16    97   100    1
    17    97    96    1
    18   112   111    1
    19   112   113    1
    20   112   115    1
    21   100   101    1
    22   100   102    1
    23   113   114    2
    24   116   115    1
    25   108   110   ar
    26   108   109   ar
    27   115   117    1
    28    88    87    2
    29    96    87   am
    30    87    86    1
    31    95    93    1
    32    89    86    1
    33    89    90    1
    34    93    92    2
    35    93    94    1
    36    92    91    1
    37    86    85    1
    38    91    90    1
    39    85    79   am
    40     6     5    1
    41    80    79    2
    42    54    53    2
    43    79    78    1
    44     5     2    1
    45    35    34    1
    46    78    77    1
    47    78    81    1
    48    64    63    1
    49    58    56   ar
    50    65    63    1
    51    53    52    1
    52    34    31    1
    53    59    60    1
    54    56    55    1
    55    56    57   ar
    56    55    52    1
    57    63    60    1
    58     2     1    1
    59     2     3    1
    60    69    68    2
    61    51    52    1
    62    81    82    1
    63    83    82    2
    64    60    61    1
    65     7     3   am
    66     7     8    1
    67     3     4    2
    68    68    67    1
    69    31    32    1
    70    31    30    1
    71    82    84   am
    72    29    28    1
    73    28    27    1
    74    61    62    2
    75     8     9    1
    76    32    33    2
    77    32    36   am
    78    30    23   am
    79    36    37    1
    80    41    40    1
    81    67    66    1
    82    67    70    1
    83    27    26    1
    84    23    24    2
    85    23    22    1
    86    25    22    1
    87    25    26    1
    88    37    40    1
    89    37    38    1
    90     9    11   am
    91     9    10    2
    92    70    71    1
    93    40    42    1
    94    11    12    1
    95    22    21    1
    96    21    19   am
    97    38    39    2
    98    17    18    1
    99    17    13   am
   100    19    18    1
   101    19    20    2
   102    71    72    1
   103    16    15    1
   104    12    13    1
   105    12    15    1
   106    72    73    1
   107    13    14    2
   108    73    74    2
   109    75    74    1
   110    74    76    1
   111   130   129    1
   112   131   129    1
   113   129   126    1
   114   123   122    1
   115   123   124    1
   116   122   119    1
   117   139   138   ar
   118   128   127    2
   119   137   138    1
   120   137   136    1
   121   119   118    1
   122   119   120    1
   123   126   127    1
   124   126   125    1
   125   127   132   am
   126   124   118    1
   127   132   133    1
   128   133   136    1
   129   133   134    1
   130   138   140   ar
   131   121   120    2
   132   135   134    2
