@<TRIPOS>MOLECULE
tmp/4jt8A00.pdb
 206 202 0 0 0
SMALL
GASTEIGER

@<TRIPOS>ATOM
      1  N         18.8010   41.9270   -4.0690 N.3    27  ALA27      -0.1245
      2  CA        19.6640   40.7880   -3.7060 C.3    27  ALA27       0.1562
      3  C         19.2940   40.1530   -2.3730 C.2    27  ALA27       0.2260
      4  O         19.3920   38.9340   -2.2070 O.2    27  ALA27      -0.2867
      5  CB        21.1200   41.2150   -3.6980 C.3    27  ALA27       0.0290
      6  N         17.3080   36.8300   -2.0710 N.3    30  SER30      -0.1217
      7  CA        17.8480   35.5730   -2.5930 C.3    30  SER30       0.1889
      8  C         19.0330   34.9800   -1.8010 C.2    30  SER30       0.2288
      9  O         19.5000   33.8840   -2.1100 O.2    30  SER30      -0.2866
     10  CB        18.1670   35.7110   -4.0820 C.3    30  SER30       0.2089
     11  OG        16.9750   35.7510   -4.8590 O.3    30  SER30      -0.2183
     12  N         22.3900   32.3770   -2.5860 N.3    35  ILE35      -0.1231
     13  CA        23.0590   33.3220   -3.4910 C.3    35  ILE35       0.1678
     14  C         23.4060   34.6080   -2.7410 C.2    35  ILE35       0.2434
     15  O         22.5240   35.4240   -2.4440 O.2    35  ILE35      -0.2733
     16  CB        22.2140   33.6810   -4.7380 C.3    35  ILE35       0.0265
     17  CG1       21.6940   32.4160   -5.4250 C.3    35  ILE35       0.0019
     18  CG2       23.0470   34.5390   -5.7090 C.3    35  ILE35       0.0020
     19  CD1       20.8010   32.6710   -6.6400 C.3    35  ILE35       0.0001
     20  N         24.6910   34.7920   -2.4130 N.am   36  PRO36      -0.2718
     21  CA        25.0430   36.0430   -1.7320 C.3    36  PRO36       0.1535
     22  C         24.9830   37.2470   -2.6640 C.2    36  PRO36       0.2599
     23  O         25.0880   37.0930   -3.8770 O.2    36  PRO36      -0.2715
     24  CB        26.4990   35.7940   -1.2700 C.3    36  PRO36       0.0310
     25  CG        26.6110   34.2840   -1.1850 C.3    36  PRO36       0.0237
     26  CD        25.7840   33.7980   -2.3540 C.3    36  PRO36       0.0939
     27  N         24.8070   38.4330   -2.0910 N.am   37  ASP37      -0.1958
     28  CA        24.9860   39.6850   -2.8160 C.3    37  ASP37       0.1840
     29  C         26.3830   39.6310   -3.4400 C.2    37  ASP37       0.2622
     30  O         27.3510   39.2860   -2.7550 O.2    37  ASP37      -0.2715
     31  CB        24.8670   40.8610   -1.8380 C.3    37  ASP37       0.1450
     32  CG        24.8690   42.2210   -2.5250 C.2    37  ASP37       0.3671
     33  OD1       23.9460   43.0070   -2.2480 O.co2  37  ASP37      -0.2456
     34  OD2       25.7800   42.5300   -3.3250 O.co2  37  ASP37      -0.2456
     35  N         26.4890   39.9490   -4.7320 N.am   38  PHE38      -0.1960
     36  CA        27.7640   39.8380   -5.4600 C.3    38  PHE38       0.1771
     37  C         28.9130   40.5680   -4.7680 C.2    38  PHE38       0.2619
     38  O         30.0660   40.1870   -4.9310 O.2    38  PHE38      -0.2715
     39  CB        27.6440   40.3320   -6.9100 C.3    38  PHE38       0.0574
     40  CG        26.6950   39.5320   -7.7630 C.ar   38  PHE38      -0.0200
     41  CD1       26.2520   38.2710   -7.3620 C.ar   38  PHE38      -0.0042
     42  CD2       26.2590   40.0390   -8.9850 C.ar   38  PHE38      -0.0042
     43  CE1       25.3820   37.5430   -8.1470 C.ar   38  PHE38      -0.0003
     44  CE2       25.3940   39.3130   -9.7930 C.ar   38  PHE38      -0.0003
     45  CZ        24.9540   38.0590   -9.3770 C.ar   38  PHE38      -0.0000
     46  N         28.5820   41.6040   -3.9950 N.am   39  ARG39      -0.1977
     47  CA        29.5670   42.4430   -3.3050 C.3    39  ARG39       0.1597
     48  C         29.9230   41.9710   -1.8850 C.2    39  ARG39       0.2287
     49  O         30.7850   42.5660   -1.2350 O.2    39  ARG39      -0.2864
     50  CB        29.0860   43.8950   -3.2470 C.3    39  ARG39       0.0334
     51  CG        29.0510   44.6220   -4.5890 C.3    39  ARG39       0.0492
     52  CD        28.0070   45.7460   -4.5580 C.3    39  ARG39       0.2205
     53  NE        26.7440   45.2690   -3.9890 N.pl3  39  ARG39      -0.0865
     54  CZ        25.7480   46.0480   -3.5740 C.cat  39  ARG39       0.5346
     55  NH1       24.6480   45.4980   -3.0760 N.pl3  39  ARG39       0.1354
     56  NH2       25.8400   47.3720   -3.6570 N.pl3  39  ARG39       0.1354
     57  N         31.7350   38.8800   -6.7890 N.3    46  TYR46      -0.1241
     58  CA        32.7890   39.8280   -7.1470 C.3    46  TYR46       0.1605
     59  C         34.1050   39.5850   -6.3910 C.2    46  TYR46       0.2264
     60  O         35.1480   40.1420   -6.7550 O.2    46  TYR46      -0.2867
     61  CB        32.3200   41.2680   -6.9350 C.3    46  TYR46       0.0534
     62  CG        31.2420   41.7570   -7.8850 C.ar   46  TYR46      -0.0201
     63  CD1       30.9540   41.0790   -9.0800 C.ar   46  TYR46      -0.0009
     64  CD2       30.5350   42.9300   -7.6100 C.ar   46  TYR46      -0.0009
     65  CE1       29.9760   41.5480   -9.9480 C.ar   46  TYR46       0.0417
     66  CE2       29.5610   43.4050   -8.4770 C.ar   46  TYR46       0.0417
     67  CZ        29.2860   42.7120   -9.6380 C.ar   46  TYR46       0.1957
     68  OH        28.3210   43.1900  -10.4910 O.3    46  TYR46      -0.2866
     69  N         30.3430   41.4430  -16.7170 N.3    61  PHE61      -0.1241
     70  CA        29.1530   42.1170  -17.2320 C.3    61  PHE61       0.1605
     71  C         29.4860   43.2630  -18.1790 C.2    61  PHE61       0.2264
     72  O         28.7220   44.2170  -18.3140 O.2    61  PHE61      -0.2867
     73  CB        28.2680   42.6110  -16.0780 C.3    61  PHE61       0.0534
     74  CG        27.7680   41.5100  -15.1770 C.ar   61  PHE61      -0.0203
     75  CD1       27.1630   40.3660  -15.7130 C.ar   61  PHE61      -0.0042
     76  CD2       27.8840   41.6250  -13.7870 C.ar   61  PHE61      -0.0042
     77  CE1       26.6890   39.3460  -14.8730 C.ar   61  PHE61      -0.0003
     78  CE2       27.4170   40.6160  -12.9430 C.ar   61  PHE61      -0.0003
     79  CZ        26.8230   39.4780  -13.4780 C.ar   61  PHE61      -0.0000
     80  N         23.7120   29.8660  -12.5530 N.3    80  LEU80      -0.1245
     81  CA        22.4970   30.6070  -12.2610 C.3    80  LEU80       0.1561
     82  C         21.2990   30.1420  -13.0630 C.2    80  LEU80       0.2260
     83  O         20.1750   30.5420  -12.7740 O.2    80  LEU80      -0.2867
     84  CB        22.7190   32.1030  -12.4770 C.3    80  LEU80       0.0270
     85  CG        23.5540   32.8300  -11.4250 C.3    80  LEU80       0.0019
     86  CD1       23.4810   34.3310  -11.6570 C.3    80  LEU80       0.0001
     87  CD2       23.0830   32.4650  -10.0020 C.3    80  LEU80       0.0001
     88  N         15.5080   43.3850   -9.4720 N.3   109  GLN109     -0.1231
     89  CA        16.9050   43.6580   -9.7910 C.3   109  GLN109      0.1698
     90  C         17.7360   42.3670   -9.8820 C.2   109  GLN109      0.2592
     91  O         18.8880   42.3930  -10.3100 O.2   109  GLN109     -0.2718
     92  CB        17.5070   44.5880   -8.7470 C.3   109  GLN109      0.0381
     93  CG        17.0630   46.0380   -8.8870 C.3   109  GLN109      0.0905
     94  CD        17.3840   46.8620   -7.6490 C.2   109  GLN109      0.2608
     95  OE1       17.1390   46.4270   -6.5140 O.2   109  GLN109     -0.2717
     96  NE2       17.9450   48.0490   -7.8580 N.am  109  GLN109     -0.0878
     97  N         17.1510   41.2440   -9.4790 N.am  110  ASN110     -0.1960
     98  CA        17.8780   39.9680   -9.4890 C.3   110  ASN110      0.1819
     99  C         17.9300   39.3060  -10.8580 C.2   110  ASN110      0.2621
    100  O         16.9790   39.3970  -11.6500 O.2   110  ASN110     -0.2715
    101  CB        17.3080   38.9900   -8.4620 C.3   110  ASN110      0.1195
    102  CG        17.4160   39.5090   -7.0540 C.2   110  ASN110      0.2630
    103  OD1       18.2000   40.4250   -6.7770 O.2   110  ASN110     -0.2716
    104  ND2       16.6120   38.9540   -6.1550 N.am  110  ASN110     -0.0877
    105  N         19.0440   38.6360  -11.1290 N.am  111  ILE111     -0.1963
    106  CA        19.1700   37.8880  -12.3680 C.3   111  ILE111      0.1727
    107  C         19.0170   36.3740  -12.1760 C.2   111  ILE111      0.2616
    108  O         18.9940   35.6170  -13.1540 O.2   111  ILE111     -0.2715
    109  CB        20.4610   38.2750  -13.1690 C.3   111  ILE111      0.0290
    110  CG1       21.7440   37.9860  -12.3770 C.3   111  ILE111      0.0022
    111  CG2       20.4100   39.7470  -13.6060 C.3   111  ILE111      0.0023
    112  CD1       23.0380   38.0290  -13.2460 C.3   111  ILE111      0.0001
    113  N         18.8620   35.9390  -10.9260 N.am  112  ASP112     -0.1971
    114  CA        18.7530   34.5140  -10.6110 C.3   112  ASP112      0.1709
    115  C         17.4910   33.8390  -11.1560 C.2   112  ASP112      0.2293
    116  O         17.4100   32.6210  -11.1830 O.2   112  ASP112     -0.2864
    117  CB        18.8780   34.2770   -9.0990 C.3   112  ASP112      0.1436
    118  CG        17.8110   35.0140   -8.2780 C.2   112  ASP112      0.3671
    119  OD1       16.6150   35.0480   -8.6760 O.co2 112  ASP112     -0.2456
    120  OD2       18.1810   35.5520   -7.2110 O.co2 112  ASP112     -0.2456
    121  N         17.1960   43.8910  -14.8570 N.3   129  HIS129     -0.1241
    122  CA        18.5880   43.6410  -15.2220 C.3   129  HIS129      0.1621
    123  C         18.7240   42.4580  -16.1660 C.2   129  HIS129      0.2264
    124  O         19.8220   41.9310  -16.3750 O.2   129  HIS129     -0.2867
    125  CB        19.4280   43.4210  -13.9810 C.3   129  HIS129      0.0745
    126  CG        19.6380   44.6610  -13.1820 C.ar  129  HIS129      0.0817
    127  ND1       19.6420   44.6630  -11.8080 N.ar  129  HIS129     -0.2268
    128  CD2       19.8470   45.9430  -13.5640 C.ar  129  HIS129      0.1154
    129  CE1       19.8650   45.8910  -11.3740 C.ar  129  HIS129      0.1986
    130  NE2       19.9830   46.6890  -12.4210 N.ar  129  HIS129     -0.2212
    131  N         20.7850   39.1610  -20.1470 N.3   172  ILE172     -0.1231
    132  CA        21.2430   39.9190  -18.9940 C.3   172  ILE172      0.1692
    133  C         21.6980   41.2860  -19.4970 C.2   172  ILE172      0.2592
    134  O         22.3840   41.3700  -20.5330 O.2   172  ILE172     -0.2718
    135  CB        22.4530   39.2220  -18.3120 C.3   172  ILE172      0.0266
    136  CG1       22.0970   37.7970  -17.8550 C.3   172  ILE172      0.0019
    137  CG2       23.0300   40.0800  -17.1920 C.3   172  ILE172      0.0020
    138  CD1       20.9860   37.6830  -16.8310 C.3   172  ILE172      0.0001
    139  N         21.3060   42.3480  -18.7820 N.am  173  VAL173     -0.1966
    140  CA        21.7230   43.7020  -19.1370 C.3   173  VAL173      0.1727
    141  C         23.1580   43.9110  -18.6630 C.2   173  VAL173      0.2616
    142  O         23.4590   43.7530  -17.4830 O.2   173  VAL173     -0.2715
    143  CB        20.7750   44.8070  -18.5640 C.3   173  VAL173      0.0290
    144  CG1       21.2040   46.1890  -19.0420 C.3   173  VAL173      0.0023
    145  CG2       19.3070   44.5560  -18.9710 C.3   173  VAL173      0.0023
    146  N         24.0380   44.2430  -19.5990 N.am  174  PHE174     -0.1960
    147  CA        25.4510   44.5130  -19.2980 C.3   174  PHE174      0.1771
    148  C         25.6710   46.0070  -19.0440 C.2   174  PHE174      0.2620
    149  O         24.8540   46.8260  -19.4680 O.2   174  PHE174     -0.2715
    150  CB        26.3330   44.0270  -20.4620 C.3   174  PHE174      0.0574
    151  CG        26.6920   42.5540  -20.3950 C.ar  174  PHE174     -0.0200
    152  CD1       25.8880   41.6450  -19.7200 C.ar  174  PHE174     -0.0042
    153  CD2       27.8320   42.0800  -21.0230 C.ar  174  PHE174     -0.0042
    154  CE1       26.2250   40.2780  -19.6600 C.ar  174  PHE174     -0.0003
    155  CE2       28.1750   40.7190  -20.9750 C.ar  174  PHE174     -0.0003
    156  CZ        27.3690   39.8190  -20.2930 C.ar  174  PHE174     -0.0000
    157  N         26.7550   46.3530  -18.3440 N.am  175  PHE175     -0.1960
    158  CA        27.1200   47.7570  -18.0700 C.3   175  PHE175      0.1771
    159  C         27.0540   48.6010  -19.3370 C.2   175  PHE175      0.2620
    160  O         27.5670   48.1980  -20.3780 O.2   175  PHE175     -0.2715
    161  CB        28.5170   47.8610  -17.4250 C.3   175  PHE175      0.0574
    162  CG        28.6000   47.2540  -16.0360 C.ar  175  PHE175     -0.0200
    163  CD1       27.8180   47.7470  -14.9920 C.ar  175  PHE175     -0.0042
    164  CD2       29.4590   46.1940  -15.7740 C.ar  175  PHE175     -0.0042
    165  CE1       27.8900   47.1910  -13.7130 C.ar  175  PHE175     -0.0003
    166  CE2       29.5380   45.6320  -14.5000 C.ar  175  PHE175     -0.0003
    167  CZ        28.7480   46.1300  -13.4660 C.ar  175  PHE175     -0.0000
    168  N         26.3690   49.7440  -19.2550 N.am  176  GLY176     -0.1940
    169  CA        26.2520   50.6640  -20.3840 C.3   176  GLY176      0.2014
    170  C         25.1590   50.3700  -21.3980 C.2   176  GLY176      0.2638
    171  O         24.9460   51.1490  -22.3250 O.2   176  GLY176     -0.2714
    172  N         24.4700   49.2460  -21.2440 N.am  177  GLU177     -0.1977
    173  CA        23.3520   48.9170  -22.1290 C.3   177  GLU177      0.1602
    174  C         22.0530   49.5850  -21.6580 C.2   177  GLU177      0.2287
    175  O         21.9530   49.9700  -20.4940 O.2   177  GLU177     -0.2864
    176  CB        23.1650   47.4020  -22.2060 C.3   177  GLU177      0.0415
    177  CG        24.2500   46.6830  -22.9750 C.3   177  GLU177      0.1163
    178  CD        23.8030   45.3070  -23.4500 C.2   177  GLU177      0.3649
    179  OE1       23.5690   44.4060  -22.6050 O.co2 177  GLU177     -0.2457
    180  OE2       23.6900   45.1290  -24.6800 O.co2 177  GLU177     -0.2457
    181  N         18.1660   49.6530  -20.3820 N.3   179  LEU179     -0.1245
    182  CA        17.3050   48.7710  -19.6010 C.3   179  LEU179      0.1561
    183  C         16.2690   48.1570  -20.5300 C.2   179  LEU179      0.2260
    184  O         15.9450   48.7600  -21.5440 O.2   179  LEU179     -0.2867
    185  CB        16.6430   49.5340  -18.4480 C.3   179  LEU179      0.0270
    186  CG        17.5450   50.0290  -17.3040 C.3   179  LEU179      0.0019
    187  CD1       16.7180   50.8040  -16.2980 C.3   179  LEU179      0.0001
    188  CD2       18.2950   48.9010  -16.6080 C.3   179  LEU179      0.0001
    189  N         20.0850   53.1930   -6.1400 N.3   205  VAL205     -0.1245
    190  CA        20.5680   53.6250   -7.4520 C.3   205  VAL205      0.1561
    191  C         19.4050   53.9200   -8.4160 C.2   205  VAL205      0.2260
    192  O         18.3570   53.2670   -8.3490 O.2   205  VAL205     -0.2867
    193  CB        21.6630   52.6600   -8.0710 C.3   205  VAL205      0.0252
    194  CG1       22.2910   51.7720   -6.9970 C.3   205  VAL205      0.0019
    195  CG2       21.1100   51.8040   -9.2200 C.3   205  VAL205      0.0019
    196  N         15.6900   53.2060  -10.1320 N.3   208  PHE208     -0.1241
    197  CA        14.8760   52.5550   -9.0910 C.3   208  PHE208      0.1605
    198  C         14.5620   53.4840   -7.9240 C.2   208  PHE208      0.2264
    199  O         13.4700   53.4290   -7.3550 O.2   208  PHE208     -0.2867
    200  CB        15.5580   51.2770   -8.5810 C.3   208  PHE208      0.0534
    201  CG        15.9030   50.3080   -9.6710 C.ar  208  PHE208     -0.0203
    202  CD1       14.9250   49.4770  -10.2110 C.ar  208  PHE208     -0.0042
    203  CD2       17.2040   50.2490  -10.1820 C.ar  208  PHE208     -0.0042
    204  CE1       15.2370   48.5790  -11.2490 C.ar  208  PHE208     -0.0003
    205  CE2       17.5350   49.3560  -11.2200 C.ar  208  PHE208     -0.0003
    206  CZ        16.5490   48.5170  -11.7540 C.ar  208  PHE208     -0.0000
@<TRIPOS>BOND
     1   180   178   ar
     2   178   177    1
     3   178   179   ar
     4   177   176    1
     5   171   170    2
     6   176   173    1
     7   173   174    1
     8   173   172    1
     9   174   175    2
    10   184   183    2
    11   170   172   am
    12   170   169    1
    13   153   155   ar
    14   153   151   ar
    15   155   156   ar
    16   134   133    2
    17   183   182    1
    18   150   151    1
    19   150   147    1
    20   151   152   ar
    21   169   168    1
    22   181   182    1
    23   160   159    2
    24   156   154   ar
    25   131   132    1
    26   152   154   ar
    27   182   185    1
    28   146   147    1
    29   146   141   am
    30   133   132    1
    31   133   139   am
    32   149   148    2
    33   159   168   am
    34   159   158    1
    35   147   148    1
    36   140   139    1
    37   140   141    1
    38   140   143    1
    39   148   157   am
    40   144   143    1
    41   132   135    1
    42   145   143    1
    43   141   142    2
    44   185   186    1
    45   157   158    1
    46    72    71    2
    47   135   136    1
    48   135   137    1
    49    71    70    1
    50   158   161    1
    51   136   138    1
    52   161   162    1
    53   186   188    1
    54   186   187    1
    55    70    69    1
    56    70    73    1
    57   124   123    2
    58   123   122    1
    59    73    74    1
    60   162   164   ar
    61   162   163   ar
    62   164   166   ar
    63    75    74   ar
    64    75    77   ar
    65   122   121    1
    66   122   125    1
    67    74    76   ar
    68   163   165   ar
    69    77    79   ar
    70   166   167   ar
    71   125   126    1
    72    76    78   ar
    73   165   167   ar
    74   111   109    1
    75   128   126   ar
    76   128   130   ar
    77    79    78   ar
    78   112   110    1
    79   126   127   ar
    80   109   110    1
    81   109   106    1
    82   108   107    2
    83    82    83    2
    84    82    81    1
    85    80    81    1
    86    84    81    1
    87    84    85    1
    88   130   129   ar
    89   106   107    1
    90   106   105    1
    91   107   113   am
    92   127   129   ar
    93   206   204   ar
    94   206   205   ar
    95    86    85    1
    96   100    99    2
    97    85    87    1
    98   204   202   ar
    99   205   203   ar
   100   116   115    2
   101   115   114    1
   102   105    99   am
   103   113   114    1
   104    99    98    1
   105   114   117    1
   106    68    67    1
   107    91    90    2
   108   202   201   ar
   109   203   201   ar
   110   196   197    1
   111    65    67   ar
   112    65    63   ar
   113    90    89    1
   114    90    97   am
   115    44    45   ar
   116    44    42   ar
   117    89    88    1
   118    89    92    1
   119   201   200    1
   120    67    66   ar
   121    98    97    1
   122    98   101    1
   123    45    43   ar
   124   195   193    1
   125   117   118    1
   126   197   200    1
   127   197   198    1
   128    63    62   ar
   129    42    40   ar
   130    93    92    1
   131    93    94    1
   132   119   118   ar
   133    66    64   ar
   134   101   102    1
   135   191   192    2
   136   191   190    1
   137   118   120   ar
   138    43    41   ar
   139   193   190    1
   140   193   194    1
   141   198   199    2
   142    62    64   ar
   143    62    61    1
   144    96    94   am
   145    40    41   ar
   146    40    39    1
   147    94    95    2
   148   190   189    1
   149    58    61    1
   150    58    57    1
   151    58    59    1
   152   102   103    2
   153   102   104   am
   154    39    36    1
   155    60    59    2
   156    19    17    1
   157    18    16    1
   158    36    37    1
   159    36    35    1
   160    17    16    1
   161    38    37    2
   162    11    10    1
   163    37    46   am
   164    16    13    1
   165    35    29   am
   166    51    52    1
   167    51    50    1
   168    52    53    1
   169    10     7    1
   170     1     2    1
   171    46    47    1
   172    53    54    2
   173    23    22    2
   174     2     5    1
   175     2     3    1
   176    56    54    1
   177    54    55    1
   178    13    14    1
   179    13    12    1
   180    29    28    1
   181    29    30    2
   182    34    32   ar
   183    47    50    1
   184    47    48    1
   185    28    27    1
   186    28    31    1
   187    14    15    2
   188    14    20   am
   189    22    27   am
   190    22    21    1
   191     7     6    1
   192     7     8    1
   193    32    33   ar
   194    32    31    1
   195    20    26    1
   196    20    21    1
   197     3     4    2
   198    26    25    1
   199     9     8    2
   200    48    49    2
   201    21    24    1
   202    24    25    1
