@<TRIPOS>MOLECULE
tmp/4jt9A00.pdb
 179 176 0 0 0
SMALL
GASTEIGER

@<TRIPOS>ATOM
      1  N         19.4990   43.9580   -3.9260 N.3    27  ALA27      -0.1245
      2  CA        20.3480   42.8220   -3.5370 C.3    27  ALA27       0.1562
      3  C         19.9480   42.1850   -2.1910 C.2    27  ALA27       0.2260
      4  O         20.1210   40.9860   -1.9780 O.2    27  ALA27      -0.2867
      5  CB        21.8170   43.2490   -3.5360 C.3    27  ALA27       0.0290
      6  N         17.8780   38.8310   -1.8010 N.3    30  SER30      -0.1217
      7  CA        18.4390   37.5600   -2.2730 C.3    30  SER30       0.1889
      8  C         19.6040   37.0190   -1.4540 C.2    30  SER30       0.2288
      9  O         19.9870   35.8660   -1.6330 O.2    30  SER30      -0.2866
     10  CB        18.8510   37.6650   -3.7460 C.3    30  SER30       0.2089
     11  OG        17.7100   37.7050   -4.5900 O.3    30  SER30      -0.2183
     12  N         23.0890   34.3460   -2.2310 N.3    35  ILE35      -0.1231
     13  CA        23.7630   35.3080   -3.1130 C.3    35  ILE35       0.1678
     14  C         24.1450   36.6200   -2.4050 C.2    35  ILE35       0.2434
     15  O         23.2990   37.4920   -2.1980 O.2    35  ILE35      -0.2733
     16  CB        22.9360   35.6150   -4.3880 C.3    35  ILE35       0.0265
     17  CG1       22.6600   34.3330   -5.1850 C.3    35  ILE35       0.0019
     18  CG2       23.6560   36.6220   -5.2670 C.3    35  ILE35       0.0020
     19  CD1       21.5160   34.4600   -6.1860 C.3    35  ILE35       0.0001
     20  N         25.4390   36.7880   -2.0690 N.am   36  PRO36      -0.2718
     21  CA        25.8120   38.0010   -1.3480 C.3    36  PRO36       0.1535
     22  C         25.8200   39.2130   -2.2640 C.2    36  PRO36       0.2599
     23  O         25.9920   39.0720   -3.4810 O.2    36  PRO36      -0.2715
     24  CB        27.2420   37.7020   -0.8530 C.3    36  PRO36       0.0310
     25  CG        27.4900   36.2210   -1.1550 C.3    36  PRO36       0.0237
     26  CD        26.6080   35.9280   -2.3350 C.3    36  PRO36       0.0939
     27  N         25.6270   40.3940   -1.6870 N.am   37  ASP37      -0.1958
     28  CA        25.8440   41.6230   -2.4290 C.3    37  ASP37       0.1840
     29  C         27.2310   41.5800   -3.0940 C.2    37  ASP37       0.2622
     30  O         28.2290   41.2390   -2.4350 O.2    37  ASP37      -0.2715
     31  CB        25.7270   42.8210   -1.4970 C.3    37  ASP37       0.1450
     32  CG        25.6670   44.1370   -2.2370 C.2    37  ASP37       0.3671
     33  OD1       24.6120   44.7990   -2.1620 O.co2  37  ASP37      -0.2456
     34  OD2       26.6630   44.5320   -2.8820 O.co2  37  ASP37      -0.2456
     35  N         27.2900   41.9110   -4.3880 N.am   38  PHE38      -0.1960
     36  CA        28.5370   41.7860   -5.1600 C.3    38  PHE38       0.1771
     37  C         29.6330   42.6010   -4.4800 C.2    38  PHE38       0.2619
     38  O         30.8130   42.3480   -4.6960 O.2    38  PHE38      -0.2715
     39  CB        28.4050   42.2550   -6.6360 C.3    38  PHE38       0.0574
     40  CG        27.4300   41.4520   -7.4950 C.ar   38  PHE38      -0.0200
     41  CD1       26.9170   40.2260   -7.0780 C.ar   38  PHE38      -0.0042
     42  CD2       27.0440   41.9380   -8.7480 C.ar   38  PHE38      -0.0042
     43  CE1       26.0270   39.5110   -7.8770 C.ar   38  PHE38      -0.0003
     44  CE2       26.1510   41.2340   -9.5510 C.ar   38  PHE38      -0.0003
     45  CZ        25.6370   40.0120   -9.1120 C.ar   38  PHE38      -0.0000
     46  N         29.2310   43.5780   -3.6680 N.am   39  ARG39      -0.1977
     47  CA        30.1650   44.4780   -2.9980 C.3    39  ARG39       0.1597
     48  C         30.5770   44.0290   -1.5950 C.2    39  ARG39       0.2287
     49  O         31.4400   44.6420   -0.9810 O.2    39  ARG39      -0.2864
     50  CB        29.6110   45.8980   -2.9120 C.3    39  ARG39       0.0334
     51  CG        29.4460   46.6090   -4.2280 C.3    39  ARG39       0.0492
     52  CD        28.4710   47.7610   -4.0600 C.3    39  ARG39       0.2205
     53  NE        27.1480   47.2850   -3.6370 N.pl3  39  ARG39      -0.0865
     54  CZ        26.0930   48.0720   -3.4080 C.cat  39  ARG39       0.5346
     55  NH1       24.9330   47.5370   -3.0340 N.pl3  39  ARG39       0.1354
     56  NH2       26.1920   49.3900   -3.5480 N.pl3  39  ARG39       0.1354
     57  N         32.6480   40.8530   -6.3890 N.3    46  TYR46      -0.1241
     58  CA        33.7040   41.8320   -6.6900 C.3    46  TYR46       0.1605
     59  C         35.0100   41.6420   -5.9010 C.2    46  TYR46       0.2264
     60  O         36.0540   42.1880   -6.2760 O.2    46  TYR46      -0.2867
     61  CB        33.2180   43.2720   -6.5060 C.3    46  TYR46       0.0534
     62  CG        32.1450   43.7360   -7.4590 C.ar   46  TYR46      -0.0201
     63  CD1       31.9500   43.1110   -8.6930 C.ar   46  TYR46      -0.0009
     64  CD2       31.3360   44.8300   -7.1380 C.ar   46  TYR46      -0.0009
     65  CE1       30.9700   43.5510   -9.5680 C.ar   46  TYR46       0.0417
     66  CE2       30.3550   45.2780   -8.0040 C.ar   46  TYR46       0.0417
     67  CZ        30.1770   44.6360   -9.2160 C.ar   46  TYR46       0.1957
     68  OH        29.2110   45.0750  -10.0770 O.3    46  TYR46      -0.2866
     69  N         31.2860   43.0350  -16.4790 N.3    61  PHE61      -0.1241
     70  CA        30.1530   43.6770  -17.1340 C.3    61  PHE61       0.1605
     71  C         30.5700   44.7610  -18.1060 C.2    61  PHE61       0.2264
     72  O         29.8450   45.7480  -18.2920 O.2    61  PHE61      -0.2867
     73  CB        29.2310   44.3240  -16.0920 C.3    61  PHE61       0.0534
     74  CG        28.7320   43.3860  -15.0610 C.ar   61  PHE61      -0.0203
     75  CD1       28.1130   42.1980  -15.4290 C.ar   61  PHE61      -0.0042
     76  CD2       28.8590   43.7060  -13.7040 C.ar   61  PHE61      -0.0042
     77  CE1       27.6270   41.3240  -14.4490 C.ar   61  PHE61      -0.0003
     78  CE2       28.3800   42.8440  -12.7120 C.ar   61  PHE61      -0.0003
     79  CZ        27.7630   41.6490  -13.0810 C.ar   61  PHE61      -0.0000
     80  N         24.4720   31.7530  -12.0990 N.3    80  LEU80      -0.1245
     81  CA        23.2180   32.4820  -11.8900 C.3    80  LEU80       0.1561
     82  C         22.0330   31.9730  -12.7070 C.2    80  LEU80       0.2260
     83  O         20.8830   32.3230  -12.4100 O.2    80  LEU80      -0.2867
     84  CB        23.4120   33.9880  -12.0850 C.3    80  LEU80       0.0270
     85  CG        24.2880   34.6760  -11.0250 C.3    80  LEU80       0.0019
     86  CD1       24.3920   36.1720  -11.2860 C.3    80  LEU80       0.0001
     87  CD2       23.7740   34.4150   -9.6080 C.3    80  LEU80       0.0001
     88  N         16.3040   45.3900   -9.3970 N.3   109  GLN109     -0.1231
     89  CA        17.6980   45.6700   -9.7730 C.3   109  GLN109      0.1698
     90  C         18.5790   44.4100   -9.7560 C.2   109  GLN109      0.2592
     91  O         19.7740   44.4750  -10.0830 O.2   109  GLN109     -0.2718
     92  CB        18.3150   46.6720   -8.7930 C.3   109  GLN109      0.0381
     93  CG        17.6190   48.0270   -8.7160 C.3   109  GLN109      0.0905
     94  CD        17.9190   48.7450   -7.4080 C.2   109  GLN109      0.2608
     95  OE1       17.6420   48.2350   -6.3070 O.2   109  GLN109     -0.2717
     96  NE2       18.4930   49.9230   -7.5170 N.am  109  GLN109     -0.0878
     97  N         18.0080   43.2900   -9.3190 N.am  110  ASN110     -0.1960
     98  CA        18.7140   42.0160   -9.3070 C.3   110  ASN110      0.1819
     99  C         18.7890   41.3370  -10.6670 C.2   110  ASN110      0.2621
    100  O         17.8900   41.4890  -11.5060 O.2   110  ASN110     -0.2715
    101  CB        18.0980   41.0400   -8.3100 C.3   110  ASN110      0.1195
    102  CG        18.2080   41.5230   -6.8780 C.2   110  ASN110      0.2630
    103  OD1       19.0300   42.3910   -6.5690 O.2   110  ASN110     -0.2716
    104  ND2       17.3590   40.9790   -5.9970 N.am  110  ASN110     -0.0877
    105  N         19.8500   40.5450  -10.8420 N.am  111  ILE111     -0.1963
    106  CA        20.0090   39.7160  -12.0300 C.3   111  ILE111      0.1727
    107  C         19.9650   38.2170  -11.7520 C.2   111  ILE111      0.2616
    108  O         20.1220   37.4150  -12.6730 O.2   111  ILE111     -0.2715
    109  CB        21.2780   40.0840  -12.8480 C.3   111  ILE111      0.0290
    110  CG1       22.5530   39.9530  -12.0010 C.3   111  ILE111      0.0022
    111  CG2       21.1300   41.4920  -13.4780 C.3   111  ILE111      0.0023
    112  CD1       23.8500   39.9050  -12.8570 C.3   111  ILE111      0.0001
    113  N         19.7070   37.8320  -10.5040 N.am  112  ASP112     -0.1971
    114  CA        19.5620   36.4070  -10.1570 C.3   112  ASP112      0.1709
    115  C         18.3380   35.7440  -10.8000 C.2   112  ASP112      0.2293
    116  O         18.2350   34.5050  -10.8350 O.2   112  ASP112     -0.2864
    117  CB        19.5830   36.1710   -8.6430 C.3   112  ASP112      0.1436
    118  CG        18.5730   37.0420   -7.8750 C.2   112  ASP112      0.3671
    119  OD1       17.3850   37.1220   -8.2830 O.co2 112  ASP112     -0.2456
    120  OD2       18.9880   37.6380   -6.8480 O.co2 112  ASP112     -0.2456
    121  N         18.3300   45.8210  -14.7600 N.3   129  HIS129     -0.1241
    122  CA        19.6910   45.5510  -15.2540 C.3   129  HIS129      0.1621
    123  C         19.7410   44.3130  -16.1590 C.2   129  HIS129      0.2264
    124  O         20.8070   43.7730  -16.4090 O.2   129  HIS129     -0.2867
    125  CB        20.6730   45.3810  -14.0980 C.3   129  HIS129      0.0745
    126  CG        20.8260   46.6040  -13.2500 C.ar  129  HIS129      0.0817
    127  ND1       20.5300   46.6120  -11.9040 N.ar  129  HIS129     -0.2268
    128  CD2       21.2410   47.8570  -13.5520 C.ar  129  HIS129      0.1154
    129  CE1       20.7610   47.8170  -11.4100 C.ar  129  HIS129      0.1986
    130  NE2       21.1810   48.5930  -12.3920 N.ar  129  HIS129     -0.2212
    131  N         22.0790   40.7790  -20.0390 N.3   172  ILE172     -0.1231
    132  CA        22.4730   41.6060  -18.9110 C.3   172  ILE172      0.1692
    133  C         22.9370   42.9650  -19.4310 C.2   172  ILE172      0.2592
    134  O         23.7340   43.0380  -20.3830 O.2   172  ILE172     -0.2718
    135  CB        23.6150   40.9410  -18.0970 C.3   172  ILE172      0.0266
    136  CG1       23.1940   39.5590  -17.5680 C.3   172  ILE172      0.0019
    137  CG2       24.0710   41.8490  -16.9790 C.3   172  ILE172      0.0020
    138  CD1       22.0210   39.5670  -16.5690 C.3   172  ILE172      0.0001
    139  N         22.4480   44.0390  -18.8100 N.am  173  VAL173     -0.1966
    140  CA        22.8690   45.3840  -19.1840 C.3   173  VAL173      0.1727
    141  C         24.3420   45.5740  -18.7870 C.2   173  VAL173      0.2616
    142  O         24.6790   45.4490  -17.6310 O.2   173  VAL173     -0.2715
    143  CB        21.9750   46.4790  -18.5090 C.3   173  VAL173      0.0290
    144  CG1       22.4890   47.8770  -18.8340 C.3   173  VAL173      0.0023
    145  CG2       20.5290   46.3180  -18.9490 C.3   173  VAL173      0.0023
    146  N         25.2130   45.8490  -19.7500 N.am  174  PHE174     -0.1960
    147  CA        26.6300   46.1220  -19.4620 C.3   174  PHE174      0.1771
    148  C         26.8880   47.6260  -19.3060 C.2   174  PHE174      0.2620
    149  O         25.9960   48.4550  -19.5830 O.2   174  PHE174     -0.2715
    150  CB        27.5270   45.4960  -20.5440 C.3   174  PHE174      0.0574
    151  CG        27.8740   44.0270  -20.2900 C.ar  174  PHE174     -0.0200
    152  CD1       27.0230   43.1950  -19.5370 C.ar  174  PHE174     -0.0042
    153  CD2       29.0460   43.4790  -20.8130 C.ar  174  PHE174     -0.0042
    154  CE1       27.3480   41.8270  -19.2930 C.ar  174  PHE174     -0.0003
    155  CE2       29.3840   42.1200  -20.5670 C.ar  174  PHE174     -0.0003
    156  CZ        28.5190   41.2960  -19.8180 C.ar  174  PHE174     -0.0000
    157  N         28.0920   47.9750  -18.8510 N.am  175  PHE175     -0.1960
    158  CA        28.4410   49.3730  -18.6120 C.3   175  PHE175      0.1771
    159  C         28.3160   50.2230  -19.8680 C.2   175  PHE175      0.2620
    160  O         28.8280   49.8620  -20.9300 O.2   175  PHE175     -0.2715
    161  CB        29.8390   49.5110  -17.9760 C.3   175  PHE175      0.0574
    162  CG        29.8660   49.1570  -16.5290 C.ar  175  PHE175     -0.0200
    163  CD1       29.3360   50.0330  -15.5790 C.ar  175  PHE175     -0.0042
    164  CD2       30.3860   47.9360  -16.1020 C.ar  175  PHE175     -0.0042
    165  CE1       29.3410   49.7010  -14.2170 C.ar  175  PHE175     -0.0003
    166  CE2       30.3860   47.5920  -14.7490 C.ar  175  PHE175     -0.0003
    167  CZ        29.8580   48.4800  -13.8030 C.ar  175  PHE175     -0.0000
    168  N         27.5930   51.3350  -19.7390 N.am  176  GLY176     -0.1954
    169  CA        27.4070   52.2770  -20.8380 C.3   176  GLY176      0.1869
    170  C         26.2580   51.9620  -21.7720 C.2   176  GLY176      0.2309
    171  O         25.9350   52.7640  -22.6360 O.2   176  GLY176     -0.2863
    172  N         19.4640   51.3520  -20.4400 N.3   179  LEU179     -0.1245
    173  CA        18.5020   50.5800  -19.6370 C.3   179  LEU179      0.1561
    174  C         17.5030   49.8730  -20.5520 C.2   179  LEU179      0.2260
    175  O         17.2790   50.3240  -21.6680 O.2   179  LEU179     -0.2867
    176  CB        17.7840   51.4820  -18.6270 C.3   179  LEU179      0.0270
    177  CG        18.6510   51.9170  -17.4320 C.3   179  LEU179      0.0019
    178  CD1       17.9040   52.9030  -16.5420 C.3   179  LEU179      0.0001
    179  CD2       19.1680   50.7400  -16.6090 C.3   179  LEU179      0.0001
@<TRIPOS>BOND
     1   171   170    2
     2   170   169    1
     3   175   174    2
     4   160   159    2
     5   169   168    1
     6   153   155   ar
     7   153   151   ar
     8   155   156   ar
     9   174   173    1
    10   150   151    1
    11   150   147    1
    12   172   173    1
    13   134   133    2
    14   151   152   ar
    15   131   132    1
    16   159   168   am
    17   159   158    1
    18   156   154   ar
    19   146   147    1
    20   146   141   am
    21   173   176    1
    22   149   148    2
    23   152   154   ar
    24   147   148    1
    25   133   132    1
    26   133   139   am
    27   148   157   am
    28   140   139    1
    29   140   141    1
    30   140   143    1
    31   145   143    1
    32   132   135    1
    33   157   158    1
    34   144   143    1
    35   141   142    2
    36   176   177    1
    37   158   161    1
    38    72    71    2
    39    71    70    1
    40   135   136    1
    41   135   137    1
    42   161   162    1
    43   136   138    1
    44   177   179    1
    45   177   178    1
    46    70    69    1
    47    70    73    1
    48   162   164   ar
    49   162   163   ar
    50   124   123    2
    51   123   122    1
    52   164   166   ar
    53    73    74    1
    54   163   165   ar
    55    75    74   ar
    56    75    77   ar
    57   122   121    1
    58   122   125    1
    59    74    76   ar
    60   166   167   ar
    61    77    79   ar
    62   165   167   ar
    63   125   126    1
    64    76    78   ar
    65   128   126   ar
    66   128   130   ar
    67   111   109    1
    68   126   127   ar
    69    79    78   ar
    70   112   110    1
    71   109   106    1
    72   109   110    1
    73    82    83    2
    74    82    81    1
    75   108   107    2
    76   130   129   ar
    77    80    81    1
    78    84    81    1
    79    84    85    1
    80   106   107    1
    81   106   105    1
    82   127   129   ar
    83   107   113   am
    84   100    99    2
    85    86    85    1
    86    85    87    1
    87   105    99   am
    88   116   115    2
    89   115   114    1
    90    99    98    1
    91   113   114    1
    92   114   117    1
    93    91    90    2
    94    68    67    1
    95    89    90    1
    96    89    88    1
    97    89    92    1
    98    90    97   am
    99    65    67   ar
   100    65    63   ar
   101    44    45   ar
   102    44    42   ar
   103    97    98    1
   104    98   101    1
   105    67    66   ar
   106    45    43   ar
   107    92    93    1
   108    42    40   ar
   109    93    94    1
   110    63    62   ar
   111   117   118    1
   112   101   102    1
   113   119   118   ar
   114    66    64   ar
   115    43    41   ar
   116   118   120   ar
   117    96    94   am
   118    40    41   ar
   119    40    39    1
   120    62    64   ar
   121    62    61    1
   122    94    95    2
   123   102   103    2
   124   102   104   am
   125    58    61    1
   126    58    57    1
   127    58    59    1
   128    39    36    1
   129    60    59    2
   130    19    17    1
   131    18    16    1
   132    17    16    1
   133    36    37    1
   134    36    35    1
   135    38    37    2
   136    11    10    1
   137    37    46   am
   138    16    13    1
   139    35    29   am
   140    51    52    1
   141    51    50    1
   142    52    53    1
   143     1     2    1
   144    10     7    1
   145    46    47    1
   146    53    54    2
   147    56    54    1
   148     2     5    1
   149     2     3    1
   150    23    22    2
   151    54    55    1
   152    13    14    1
   153    13    12    1
   154    29    30    2
   155    29    28    1
   156    47    50    1
   157    47    48    1
   158    34    32   ar
   159    28    27    1
   160    28    31    1
   161    14    15    2
   162    14    20   am
   163    26    20    1
   164    26    25    1
   165     7     6    1
   166     7     8    1
   167    22    27   am
   168    22    21    1
   169    32    33   ar
   170    32    31    1
   171     3     4    2
   172    20    21    1
   173     9     8    2
   174    48    49    2
   175    21    24    1
   176    25    24    1
