@<TRIPOS>MOLECULE
tmp/4jtdB09.pdb
 100 96 0 0 0
SMALL
GASTEIGER

@<TRIPOS>ATOM
      1  N        -33.3290   48.1250  185.0400 N.3   183  GLN183     -0.1231
      2  CA       -34.2670   47.3490  184.2310 C.3   183  GLN183      0.1698
      3  C        -35.4350   46.8500  185.0760 C.2   183  GLN183      0.2593
      4  O        -35.2350   46.2820  186.1500 O.2   183  GLN183     -0.2718
      5  CB       -33.5660   46.1430  183.6010 C.3   183  GLN183      0.0381
      6  CG       -32.5140   46.4840  182.5700 C.3   183  GLN183      0.0905
      7  CD       -31.8910   45.2440  181.9660 C.2   183  GLN183      0.2608
      8  OE1      -31.3000   44.4250  182.6700 O.2   183  GLN183     -0.2717
      9  NE2      -32.0240   45.0950  180.6550 N.am  183  GLN183     -0.0878
     10  N        -36.6510   47.0590  184.5830 N.am  184  SER184     -0.1938
     11  CA       -37.8510   46.6240  185.2910 C.3   184  SER184      0.2055
     12  C        -39.0870   46.8390  184.4300 C.2   184  SER184      0.2643
     13  O        -39.2600   47.9040  183.8360 O.2   184  SER184     -0.2714
     14  CB       -38.0030   47.3940  186.6120 C.3   184  SER184      0.2130
     15  OG       -38.0620   48.7960  186.3970 O.3   184  SER184     -0.2179
     16  N        -39.9430   45.8240  184.3610 N.am  185  THR185     -0.1950
     17  CA       -41.1690   45.9170  183.5760 C.3   185  THR185      0.1897
     18  C        -42.1000   46.9610  184.1830 C.2   185  THR185      0.2313
     19  O        -43.1980   47.1960  183.6820 O.2   185  THR185     -0.2863
     20  CB       -41.9060   44.5670  183.5170 C.3   185  THR185      0.1794
     21  OG1      -42.0930   44.0660  184.8460 O.3   185  THR185     -0.2208
     22  CG2      -41.1100   43.5630  182.6980 C.3   185  THR185      0.0378
     23  N        -40.9670   50.0300  184.6080 N.3   187  PHE187     -0.1241
     24  CA       -40.4910   51.2540  183.9650 C.3   187  PHE187      0.1605
     25  C        -40.4820   52.4530  184.9000 C.2   187  PHE187      0.2264
     26  O        -40.9640   53.5310  184.5530 O.2   187  PHE187     -0.2867
     27  CB       -41.3400   51.5570  182.7250 C.3   187  PHE187      0.0534
     28  CG       -41.0620   50.6380  181.5690 C.ar  187  PHE187     -0.0203
     29  CD1      -39.9430   50.8310  180.7650 C.ar  187  PHE187     -0.0042
     30  CD2      -41.8890   49.5500  181.3130 C.ar  187  PHE187     -0.0042
     31  CE1      -39.6500   49.9530  179.7250 C.ar  187  PHE187     -0.0003
     32  CE2      -41.6040   48.6650  180.2760 C.ar  187  PHE187     -0.0003
     33  CZ       -40.4820   48.8660  179.4800 C.ar  187  PHE187     -0.0000
     34  N        -34.1990   54.2220  181.8350 N.3   192  PHE192     -0.1241
     35  CA       -34.5470   52.9430  181.2300 C.3   192  PHE192      0.1605
     36  C        -35.6970   53.1450  180.2510 C.2   192  PHE192      0.2264
     37  O        -35.8710   52.3730  179.3120 O.2   192  PHE192     -0.2867
     38  CB       -34.9480   51.9340  182.3050 C.3   192  PHE192      0.0534
     39  CG       -35.2730   50.5760  181.7640 C.ar  192  PHE192     -0.0203
     40  CD1      -34.3930   49.9310  180.9010 C.ar  192  PHE192     -0.0042
     41  CD2      -36.4600   49.9400  182.1090 C.ar  192  PHE192     -0.0042
     42  CE1      -34.6880   48.6700  180.3840 C.ar  192  PHE192     -0.0003
     43  CE2      -36.7670   48.6790  181.5990 C.ar  192  PHE192     -0.0003
     44  CZ       -35.8780   48.0420  180.7330 C.ar  192  PHE192     -0.0000
     45  N        -35.1640   52.5900  176.3500 N.3   196  THR196     -0.1218
     46  CA       -36.0330   51.5720  175.7750 C.3   196  THR196      0.1862
     47  C        -36.8050   52.1080  174.5740 C.2   196  THR196      0.2287
     48  O        -36.9990   51.3940  173.5910 O.2   196  THR196     -0.2866
     49  CB       -37.0230   51.0260  176.8250 C.3   196  THR196      0.1770
     50  OG1      -36.2960   50.3610  177.8670 O.3   196  THR196     -0.2211
     51  CG2      -37.9820   50.0360  176.1880 C.3   196  THR196      0.0375
     52  N        -36.3670   50.7630  170.7250 N.3   200  ILE200     -0.1245
     53  CA       -37.5580   50.3010  170.0130 C.3   200  ILE200      0.1561
     54  C        -37.4500   50.8270  168.5900 C.2   200  ILE200      0.2260
     55  O        -37.5680   50.0750  167.6240 O.2   200  ILE200     -0.2867
     56  CB       -38.8700   50.8500  170.6450 C.3   200  ILE200      0.0252
     57  CG1      -39.1040   50.2220  172.0220 C.3   200  ILE200      0.0019
     58  CG2      -40.0520   50.5660  169.7280 C.3   200  ILE200      0.0019
     59  CD1      -39.2320   48.7140  172.0060 C.3   200  ILE200      0.0001
     60  N        -28.3080   46.5430  174.5150 N.3   235  TYR235     -0.1227
     61  CA       -29.6170   46.4940  175.1670 C.3   235  TYR235      0.1736
     62  C        -30.1200   45.0760  175.4630 C.2   235  TYR235      0.2595
     63  O        -30.3090   44.7020  176.6240 O.2   235  TYR235     -0.2718
     64  CB       -30.6530   47.2170  174.3050 C.3   235  TYR235      0.0548
     65  CG       -32.0020   47.3790  174.9650 C.ar  235  TYR235     -0.0200
     66  CD1      -32.2150   48.3650  175.9290 C.ar  235  TYR235     -0.0009
     67  CD2      -33.0690   46.5430  174.6280 C.ar  235  TYR235     -0.0009
     68  CE1      -33.4600   48.5180  176.5420 C.ar  235  TYR235      0.0417
     69  CE2      -34.3180   46.6840  175.2330 C.ar  235  TYR235      0.0417
     70  CZ       -34.5070   47.6730  176.1880 C.ar  235  TYR235      0.1957
     71  OH       -35.7390   47.8190  176.7850 O.3   235  TYR235     -0.2866
     72  N        -30.3350   44.2880  174.4140 N.am  236  TYR236     -0.1976
     73  CA       -30.8340   42.9290  174.5810 C.3   236  TYR236      0.1639
     74  C        -29.8590   41.9890  175.2750 C.2   236  TYR236      0.2290
     75  O        -30.2750   41.1320  176.0550 O.2   236  TYR236     -0.2864
     76  CB       -31.2540   42.3510  173.2280 C.3   236  TYR236      0.0560
     77  CG       -32.3340   43.1690  172.5600 C.ar  236  TYR236     -0.0198
     78  CD1      -32.0710   43.8880  171.3960 C.ar  236  TYR236     -0.0009
     79  CD2      -33.6110   43.2630  173.1170 C.ar  236  TYR236     -0.0009
     80  CE1      -33.0450   44.6810  170.8000 C.ar  236  TYR236      0.0417
     81  CE2      -34.5960   44.0570  172.5290 C.ar  236  TYR236      0.0417
     82  CZ       -34.3020   44.7620  171.3710 C.ar  236  TYR236      0.1957
     83  OH       -35.2560   45.5570  170.7820 O.3   236  TYR236     -0.2866
     84  N        -30.1290   42.5700  179.0390 N.3   239  ILE239     -0.1245
     85  CA       -31.3000   41.8980  179.5860 C.3   239  ILE239      0.1561
     86  C        -30.9760   40.4160  179.7870 C.2   239  ILE239      0.2260
     87  O        -31.1150   39.8790  180.8880 O.2   239  ILE239     -0.2867
     88  CB       -32.4940   42.0110  178.6280 C.3   239  ILE239      0.0252
     89  CG1      -32.8540   43.4830  178.4190 C.3   239  ILE239      0.0019
     90  CG2      -33.6780   41.2330  179.1830 C.3   239  ILE239      0.0019
     91  CD1      -33.9500   43.7100  177.4070 C.3   239  ILE239      0.0001
     92  N        -30.9280   38.7780  183.5240 N.3   243  GLU243     -0.1245
     93  CA       -31.9550   37.7810  183.7990 C.3   243  GLU243      0.1567
     94  C        -31.3690   36.3770  183.9570 C.2   243  GLU243      0.2260
     95  O        -31.9390   35.5370  184.6520 O.2   243  GLU243     -0.2867
     96  CB       -33.0120   37.8020  182.6930 C.3   243  GLU243      0.0388
     97  CG       -33.7280   39.1470  182.5850 C.3   243  GLU243      0.1160
     98  CD       -34.3410   39.5930  183.9100 C.2   243  GLU243      0.3649
     99  OE1      -35.2480   38.8880  184.4050 O.co2 243  GLU243     -0.2457
    100  OE2      -33.9160   40.6400  184.4590 O.co2 243  GLU243     -0.2457
@<TRIPOS>BOND
     1    55    54    2
     2    54    53    1
     3    58    56    1
     4    53    56    1
     5    53    52    1
     6    56    57    1
     7    83    82    1
     8    80    82   ar
     9    80    78   ar
    10    82    81   ar
    11    78    77   ar
    12    59    57    1
    13    81    79   ar
    14    77    79   ar
    15    77    76    1
    16    76    73    1
    17    48    47    2
    18    64    65    1
    19    64    61    1
    20    72    73    1
    21    72    62   am
    22    60    61    1
    23    47    46    1
    24    73    74    1
    25    67    65   ar
    26    67    69   ar
    27    65    66   ar
    28    61    62    1
    29    69    70   ar
    30    74    75    2
    31    62    63    2
    32    46    45    1
    33    46    49    1
    34    66    68   ar
    35    51    49    1
    36    70    68   ar
    37    70    71    1
    38    49    50    1
    39    91    89    1
    40    89    88    1
    41    88    90    1
    42    88    85    1
    43    84    85    1
    44    37    36    2
    45    33    31   ar
    46    33    32   ar
    47    85    86    1
    48    31    29   ar
    49    86    87    2
    50    36    35    1
    51    32    30   ar
    52    42    44   ar
    53    42    40   ar
    54     9     7   am
    55    44    43   ar
    56    29    28   ar
    57    40    39   ar
    58    35    34    1
    59    35    38    1
    60    30    28   ar
    61    28    27    1
    62    43    41   ar
    63    39    41   ar
    64    39    38    1
    65     7     6    1
    66     7     8    2
    67     6     5    1
    68    97    96    1
    69    97    98    1
    70    96    93    1
    71    22    20    1
    72    27    24    1
    73    20    17    1
    74    20    21    1
    75    92    93    1
    76    17    18    1
    77    17    16    1
    78     5     2    1
    79    19    18    2
    80    93    94    1
    81    13    12    2
    82    98    99   ar
    83    98   100   ar
    84    94    95    2
    85    24    23    1
    86    24    25    1
    87     2     1    1
    88     2     3    1
    89    16    12   am
    90    12    11    1
    91    26    25    2
    92    10     3   am
    93    10    11    1
    94     3     4    2
    95    11    14    1
    96    15    14    1
