@<TRIPOS>MOLECULE
tmp/4jtpA01.pdb
 108 104 0 0 0
SMALL
GASTEIGER

@<TRIPOS>ATOM
      1  N        -21.6720  -19.5330  -13.2890 N.3    69  VAL69      -0.1231
      2  CA       -21.2680  -18.2500  -13.8290 C.3    69  VAL69       0.1692
      3  C        -19.8650  -17.8530  -13.3440 C.2    69  VAL69       0.2592
      4  O        -19.5100  -16.6720  -13.3130 O.2    69  VAL69      -0.2718
      5  CB       -22.2890  -17.1050  -13.5220 C.3    69  VAL69       0.0266
      6  CG1      -22.3150  -16.0950  -14.6590 C.3    69  VAL69       0.0020
      7  CG2      -23.7090  -17.6270  -13.3490 C.3    69  VAL69       0.0020
      8  N        -19.0480  -18.8320  -13.0040 N.am   70  TYR70      -0.1962
      9  CA       -17.6520  -18.5220  -12.6230 C.3    70  TYR70       0.1771
     10  C        -16.8170  -18.3560  -13.8740 C.2    70  TYR70       0.2619
     11  O        -16.9480  -19.0870  -14.8230 O.2    70  TYR70      -0.2715
     12  CB       -17.0050  -19.6130  -11.8260 C.3    70  TYR70       0.0574
     13  CG       -17.6250  -19.8930  -10.4960 C.ar   70  TYR70      -0.0198
     14  CD1      -18.5240  -19.0090   -9.9160 C.ar   70  TYR70      -0.0009
     15  CD2      -17.3390  -21.0990   -9.8440 C.ar   70  TYR70      -0.0009
     16  CE1      -19.1050  -19.2930   -8.6960 C.ar   70  TYR70       0.0417
     17  CE2      -17.9470  -21.4110   -8.6540 C.ar   70  TYR70       0.0417
     18  CZ       -18.8150  -20.4880   -8.0910 C.ar   70  TYR70       0.1957
     19  OH       -19.3940  -20.7930   -6.9200 O.3    70  TYR70      -0.2866
     20  N        -15.9620  -17.3480  -13.8240 N.am   71  ILE71      -0.1977
     21  CA       -15.0200  -17.0980  -14.8920 C.3    71  ILE71       0.1596
     22  C        -13.8630  -18.0270  -14.6840 C.2    71  ILE71       0.2287
     23  O        -13.2630  -18.0690  -13.5870 O.2    71  ILE71      -0.2864
     24  CB       -14.6150  -15.6250  -14.8350 C.3    71  ILE71       0.0276
     25  CG1      -15.7980  -14.8200  -15.3320 C.3    71  ILE71       0.0022
     26  CG2      -13.3320  -15.3400  -15.6120 C.3    71  ILE71       0.0022
     27  CD1      -15.6620  -13.3460  -15.1110 C.3    71  ILE71       0.0001
     28  N         -7.2530  -19.1700  -14.2450 N.3    83  PHE83      -0.1241
     29  CA        -6.9900  -19.1280  -12.7990 C.3    83  PHE83       0.1605
     30  C         -6.2770  -20.3750  -12.3360 C.2    83  PHE83       0.2264
     31  O         -6.3220  -21.4430  -13.0150 O.2    83  PHE83      -0.2867
     32  CB        -8.3060  -18.9690  -12.0350 C.3    83  PHE83       0.0534
     33  CG        -8.9120  -17.5960  -12.1200 C.ar   83  PHE83      -0.0203
     34  CD1       -8.2640  -16.4900  -11.5990 C.ar   83  PHE83      -0.0042
     35  CD2      -10.1920  -17.4050  -12.7420 C.ar   83  PHE83      -0.0042
     36  CE1       -8.8280  -15.2310  -11.7020 C.ar   83  PHE83      -0.0003
     37  CE2      -10.7830  -16.1390  -12.7550 C.ar   83  PHE83      -0.0003
     38  CZ       -10.0780  -15.0610  -12.2640 C.ar   83  PHE83      -0.0000
     39  N         -6.6060  -22.9440  -10.2770 N.3    85  GLU85      -0.1245
     40  CA        -7.6330  -23.7510   -9.5900 C.3    85  GLU85       0.1567
     41  C         -8.0710  -24.9180  -10.5210 C.2    85  GLU85       0.2260
     42  O         -8.0930  -24.7850  -11.7410 O.2    85  GLU85      -0.2867
     43  CB        -8.8260  -22.8610   -9.1600 C.3    85  GLU85       0.0388
     44  CG        -9.5560  -22.2550  -10.3540 C.3    85  GLU85       0.1160
     45  CD       -10.6220  -21.1860  -10.0540 C.2    85  GLU85       0.3649
     46  OE1      -10.5500  -20.5440   -9.0270 O.co2  85  GLU85      -0.2457
     47  OE2      -11.5430  -20.9750  -10.8980 O.co2  85  GLU85      -0.2457
     48  N         -9.4680  -17.8860   -8.5970 N.3   109  GLY109     -0.1210
     49  CA       -10.4740  -16.8970   -8.8320 C.3   109  GLY109      0.1956
     50  C        -11.3290  -16.4220   -7.6670 C.2   109  GLY109      0.2612
     51  O        -12.2560  -15.6820   -7.8770 O.2   109  GLY109     -0.2717
     52  N        -11.0770  -16.8400   -6.4540 N.am  110  ASN110     -0.1960
     53  CA       -11.9600  -16.3840   -5.4300 C.3   110  ASN110      0.1819
     54  C        -11.6490  -14.9660   -5.0530 C.2   110  ASN110      0.2621
     55  O        -10.5140  -14.4630   -5.1310 O.2   110  ASN110     -0.2715
     56  CB       -12.0140  -17.3290   -4.2730 C.3   110  ASN110      0.1195
     57  CG       -10.8370  -17.2130   -3.4160 C.2   110  ASN110      0.2630
     58  OD1      -10.7910  -16.3740   -2.5000 O.2   110  ASN110     -0.2716
     59  ND2       -9.8810  -18.0860   -3.6490 N.am  110  ASN110     -0.0877
     60  N        -12.7010  -14.2770   -4.6860 N.am  111  TYR111     -0.1960
     61  CA       -12.5800  -12.9100   -4.2880 C.3   111  TYR111      0.1771
     62  C        -11.4180  -12.6660   -3.2890 C.2   111  TYR111      0.2619
     63  O        -10.7100  -11.6780   -3.3700 O.2   111  TYR111     -0.2715
     64  CB       -13.9130  -12.4400   -3.7000 C.3   111  TYR111      0.0574
     65  CG       -14.9490  -12.0090   -4.7430 C.ar  111  TYR111     -0.0198
     66  CD1      -14.5770  -11.2650   -5.8660 C.ar  111  TYR111     -0.0009
     67  CD2      -16.2990  -12.2800   -4.5710 C.ar  111  TYR111     -0.0009
     68  CE1      -15.5280  -10.8110   -6.7910 C.ar  111  TYR111      0.0417
     69  CE2      -17.2570  -11.8410   -5.4870 C.ar  111  TYR111      0.0417
     70  CZ       -16.8700  -11.1040   -6.5940 C.ar  111  TYR111      0.1957
     71  OH       -17.7980  -10.6800   -7.5070 O.3   111  TYR111     -0.2866
     72  N        -11.2840  -13.5100   -2.2890 N.am  112  GLU112     -0.1977
     73  CA       -10.3220  -13.1560   -1.2420 C.3   112  GLU112      0.1602
     74  C         -8.8900  -13.2000   -1.8480 C.2   112  GLU112      0.2287
     75  O         -8.0560  -12.3050   -1.6000 O.2   112  GLU112     -0.2864
     76  CB       -10.4860  -14.0440    0.0060 C.3   112  GLU112      0.0415
     77  CG       -11.8860  -13.9620    0.6150 C.3   112  GLU112      0.1163
     78  CD       -12.8470  -15.0290    0.0540 C.2   112  GLU112      0.3649
     79  OE1      -13.2250  -14.9810   -1.1640 O.co2 112  GLU112     -0.2457
     80  OE2      -13.2120  -15.9370    0.8470 O.co2 112  GLU112     -0.2457
     81  N        -15.5150   -9.5390  -13.1950 N.3   155  ILE155     -0.1245
     82  CA       -16.4260  -10.4270  -12.5350 C.3   155  ILE155      0.1561
     83  C        -17.7040   -9.7250  -12.0950 C.2   155  ILE155      0.2260
     84  O        -18.7930  -10.2790  -12.2900 O.2   155  ILE155     -0.2867
     85  CB       -15.7500  -11.1160  -11.3550 C.3   155  ILE155      0.0252
     86  CG1      -14.7070  -12.1170  -11.8780 C.3   155  ILE155      0.0019
     87  CG2      -16.7450  -11.9330  -10.5390 C.3   155  ILE155      0.0019
     88  CD1      -13.6740  -12.4410  -10.8020 C.3   155  ILE155      0.0001
     89  N        -21.6970  -11.0270  -11.8540 N.3   160  GLU160     -0.1245
     90  CA       -22.5220  -10.5680  -10.7200 C.3   160  GLU160      0.1567
     91  C        -23.8160   -9.7930  -11.1870 C.2   160  GLU160      0.2260
     92  O        -24.9110   -9.9260  -10.5500 O.2   160  GLU160     -0.2867
     93  CB       -21.7650   -9.7960   -9.6470 C.3   160  GLU160      0.0388
     94  CG       -20.5380  -10.5080   -9.0820 C.3   160  GLU160      0.1160
     95  CD       -20.8490  -11.6490   -8.1120 C.2   160  GLU160      0.3649
     96  OE1      -22.0120  -12.1040   -8.0470 O.co2 160  GLU160     -0.2457
     97  OE2      -19.8920  -12.0720   -7.3890 O.co2 160  GLU160     -0.2457
     98  N        -26.3060  -12.2090  -12.2870 N.3   163  ARG163     -0.1245
     99  CA       -26.9880  -12.8320  -11.1190 C.3   163  ARG163      0.1563
    100  C        -28.0280  -11.9990  -10.4490 C.2   163  ARG163      0.2260
    101  O        -29.0340  -12.5600   -9.8910 O.2   163  ARG163     -0.2867
    102  CB       -25.9560  -13.2000  -10.0550 C.3   163  ARG163      0.0307
    103  CG       -25.0420  -14.3320  -10.5030 C.3   163  ARG163      0.0489
    104  CD       -23.9270  -14.5710   -9.5030 C.3   163  ARG163      0.2205
    105  NE       -23.0510  -15.6560   -9.8950 N.pl3 163  ARG163     -0.0865
    106  CZ       -21.7360  -15.6290   -9.7230 C.cat 163  ARG163      0.5346
    107  NH1      -21.1930  -14.5700   -9.1820 N.pl3 163  ARG163      0.1354
    108  NH2      -20.9640  -16.6380  -10.0940 N.pl3 163  ARG163      0.1354
@<TRIPOS>BOND
     1    26    24    1
     2    25    27    1
     3    25    24    1
     4    21    24    1
     5    21    22    1
     6    21    20    1
     7    11    10    2
     8    22    23    2
     9     6     5    1
    10    28    29    1
    11    10    20   am
    12    10     9    1
    13     2     5    1
    14     2     3    1
    15     2     1    1
    16     5     7    1
    17     3     4    2
    18     3     8   am
    19    81    82    1
    20    31    30    2
    21     8     9    1
    22    29    30    1
    23    29    32    1
    24    37    35   ar
    25    37    38   ar
    26    35    33   ar
    27     9    12    1
    28    82    83    1
    29    82    85    1
    30    84    83    2
    31    98    99    1
    32    38    36   ar
    33    33    32    1
    34    33    34   ar
    35    86    85    1
    36    86    88    1
    37    89    90    1
    38    12    13    1
    39    42    41    2
    40    36    34   ar
    41    85    87    1
    42    91    90    1
    43    91    92    2
    44    99   100    1
    45    99   102    1
    46    47    45   ar
    47    90    93    1
    48    41    40    1
    49   103   102    1
    50   103   104    1
    51    13    14   ar
    52    13    15   ar
    53   100   101    2
    54    44    45    1
    55    44    43    1
    56    39    40    1
    57   108   106    1
    58    45    46   ar
    59    14    16   ar
    60   105   106    2
    61   105   104    1
    62    15    17   ar
    63   106   107    1
    64    93    94    1
    65    40    43    1
    66    94    95    1
    67    49    48    1
    68    49    50    1
    69    16    18   ar
    70    17    18   ar
    71    95    96   ar
    72    95    97   ar
    73    18    19    1
    74    51    50    2
    75    50    52   am
    76    71    70    1
    77    68    70   ar
    78    68    66   ar
    79    70    69   ar
    80    52    53    1
    81    66    65   ar
    82    69    67   ar
    83    53    54    1
    84    53    56    1
    85    55    54    2
    86    54    60   am
    87    65    67   ar
    88    65    64    1
    89    60    61    1
    90    61    64    1
    91    61    62    1
    92    56    57    1
    93    59    57   am
    94    57    58    2
    95    63    62    2
    96    62    72   am
    97    72    73    1
    98    74    75    2
    99    74    73    1
   100    73    76    1
   101    79    78   ar
   102    76    77    1
   103    78    77    1
   104    78    80   ar
