@<TRIPOS>MOLECULE
tmp/4jtqB00.pdb
 184 180 0 0 0
SMALL
GASTEIGER

@<TRIPOS>ATOM
      1  N        -78.9900  154.9420  252.2720 N.3    22  TYR22      -0.1241
      2  CA       -78.5610  154.4380  253.5900 C.3    22  TYR22       0.1605
      3  C        -78.7040  155.5410  254.6670 C.2    22  TYR22       0.2264
      4  O        -78.2960  156.6930  254.4500 O.2    22  TYR22      -0.2867
      5  CB       -77.1240  153.9700  253.6020 C.3    22  TYR22       0.0534
      6  CG       -76.6670  153.5290  254.9950 C.ar   22  TYR22      -0.0201
      7  CD1      -77.1620  152.3350  255.6000 C.ar   22  TYR22      -0.0009
      8  CD2      -75.7780  154.3140  255.7210 C.ar   22  TYR22      -0.0009
      9  CE1      -76.7700  151.9780  256.8970 C.ar   22  TYR22       0.0417
     10  CE2      -75.3860  153.9910  257.0160 C.ar   22  TYR22       0.0417
     11  CZ       -75.8650  152.8240  257.6160 C.ar   22  TYR22       0.1957
     12  OH       -75.4280  152.5120  258.8910 O.3    22  TYR22      -0.2866
     13  N        -78.8210  153.4380  261.7970 N.3    25  ALA25      -0.1245
     14  CA       -80.0320  152.7580  262.3920 C.3    25  ALA25       0.1562
     15  C        -80.8240  153.6400  263.3440 C.2    25  ALA25       0.2260
     16  O        -82.0320  153.4240  263.5050 O.2    25  ALA25      -0.2867
     17  CB       -79.7000  151.4340  263.1010 C.3    25  ALA25       0.0290
     18  N        -78.3860  145.1300  253.1700 N.3    52  VAL52      -0.1231
     19  CA       -77.7560  145.4480  254.4570 C.3    52  VAL52       0.1692
     20  C        -78.2710  146.7700  255.0360 C.2    52  VAL52       0.2592
     21  O        -78.1110  147.0230  256.2190 O.2    52  VAL52      -0.2718
     22  CB       -76.2100  145.3330  254.3320 C.3    52  VAL52       0.0266
     23  CG1      -75.6300  146.5520  253.6940 C.3    52  VAL52       0.0020
     24  CG2      -75.5120  145.0230  255.6660 C.3    52  VAL52       0.0020
     25  N        -78.8500  147.6070  254.1540 N.am   53  TYR53      -0.1976
     26  CA       -79.3730  148.8950  254.5970 C.3    53  TYR53       0.1639
     27  C        -80.6370  148.7680  255.3910 C.2    53  TYR53       0.2290
     28  O        -81.0330  149.7420  256.0530 O.2    53  TYR53      -0.2864
     29  CB       -79.5590  149.9170  253.4590 C.3    53  TYR53       0.0560
     30  CG       -78.3170  150.2250  252.6410 C.ar   53  TYR53      -0.0198
     31  CD1      -77.0140  149.9210  253.0950 C.ar   53  TYR53      -0.0009
     32  CD2      -78.4240  150.9080  251.4400 C.ar   53  TYR53      -0.0009
     33  CE1      -75.9260  150.1680  252.3290 C.ar   53  TYR53       0.0417
     34  CE2      -77.2890  151.2060  250.6840 C.ar   53  TYR53       0.0417
     35  CZ       -76.0600  150.8690  251.1280 C.ar   53  TYR53       0.1957
     36  OH       -74.9820  151.1200  250.3160 O.3    53  TYR53      -0.2866
     37  N        -75.4100  141.0210  250.0210 N.3    84  TRP84      -0.1241
     38  CA       -74.5700  141.1670  251.2170 C.3    84  TRP84       0.1605
     39  C        -73.6480  139.8980  251.2910 C.2    84  TRP84       0.2264
     40  O        -73.9160  138.8460  250.6490 O.2    84  TRP84      -0.2867
     41  CB       -75.3820  141.4390  252.5150 C.3    84  TRP84       0.0550
     42  CG       -74.4250  141.7470  253.6200 C.ar   84  TRP84       0.0003
     43  CD1      -74.2170  140.9940  254.7460 C.ar   84  TRP84       0.0946
     44  CD2      -73.3510  142.7130  253.5800 C.ar   84  TRP84       0.0152
     45  NE1      -73.1780  141.4960  255.4640 N.ar   84  TRP84      -0.2442
     46  CE2      -72.6400  142.5660  254.7900 C.ar   84  TRP84       0.0810
     47  CE3      -72.9920  143.7620  252.7040 C.ar   84  TRP84       0.0012
     48  CZ2      -71.5220  143.3400  255.0850 C.ar   84  TRP84       0.0191
     49  CZ3      -71.9140  144.5750  253.0130 C.ar   84  TRP84       0.0001
     50  CH2      -71.1520  144.3240  254.1450 C.ar   84  TRP84       0.0015
     51  N        -71.8120  143.3920  246.9450 N.3   115  HIS115     -0.1226
     52  CA       -71.6100  144.5690  247.8020 C.3   115  HIS115      0.1752
     53  C        -70.1940  144.7980  248.2160 C.2   115  HIS115      0.2596
     54  O        -69.7280  145.9260  248.2530 O.2   115  HIS115     -0.2718
     55  CB       -72.5970  144.5130  248.9630 C.3   115  HIS115      0.0759
     56  CG       -72.9040  145.8210  249.5920 C.ar  115  HIS115      0.0818
     57  ND1      -74.0930  146.0330  250.2650 N.ar  115  HIS115     -0.2268
     58  CD2      -72.2090  146.9860  249.6700 C.ar  115  HIS115      0.1154
     59  CE1      -74.1030  147.2450  250.7770 C.ar  115  HIS115      0.1986
     60  NE2      -72.9720  147.8450  250.4330 N.ar  115  HIS115     -0.2212
     61  N        -69.5390  143.7420  248.6550 N.am  116  PHE116     -0.1976
     62  CA       -68.2560  143.7610  249.3010 C.3   116  PHE116      0.1639
     63  C        -67.5610  142.4220  249.0830 C.2   116  PHE116      0.2290
     64  O        -68.1480  141.4090  249.2930 O.2   116  PHE116     -0.2864
     65  CB       -68.3880  144.1690  250.7660 C.3   116  PHE116      0.0560
     66  CG       -67.0780  144.5580  251.3890 C.ar  116  PHE116     -0.0200
     67  CD1      -66.4890  145.7620  251.1040 C.ar  116  PHE116     -0.0042
     68  CD2      -66.4260  143.6650  252.2120 C.ar  116  PHE116     -0.0042
     69  CE1      -65.2530  146.0590  251.6720 C.ar  116  PHE116     -0.0003
     70  CE2      -65.2150  143.9680  252.7650 C.ar  116  PHE116     -0.0003
     71  CZ       -64.6170  145.1650  252.4510 C.ar  116  PHE116     -0.0000
     72  N        -77.7080  137.3410  260.7210 N.3   125  GLU125     -0.1231
     73  CA       -76.8310  138.4140  261.1720 C.3   125  GLU125      0.1699
     74  C        -75.8550  138.8740  260.0740 C.2   125  GLU125      0.2592
     75  O        -75.1470  138.0230  259.5860 O.2   125  GLU125     -0.2718
     76  CB       -76.0680  137.9800  262.4200 C.3   125  GLU125      0.0402
     77  CG       -75.0390  138.9630  262.9100 C.3   125  GLU125      0.1161
     78  CD       -75.5900  140.3540  263.2610 C.2   125  GLU125      0.3649
     79  OE1      -76.5500  140.4010  264.0480 O.co2 125  GLU125     -0.2457
     80  OE2      -75.0500  141.3660  262.7630 O.co2 125  GLU125     -0.2457
     81  N        -75.8590  140.1700  259.6810 N.am  126  VAL126     -0.1966
     82  CA       -75.0300  140.6690  258.6210 C.3   126  VAL126      0.1727
     83  C        -73.5420  140.7790  258.9960 C.2   126  VAL126      0.2616
     84  O        -72.7280  140.7200  258.0960 O.2   126  VAL126     -0.2715
     85  CB       -75.5640  141.9440  258.0710 C.3   126  VAL126      0.0290
     86  CG1      -76.9300  141.6830  257.4680 C.3   126  VAL126      0.0023
     87  CG2      -75.6460  143.0140  259.1070 C.3   126  VAL126      0.0023
     88  N        -73.2060  140.9410  260.2610 N.am  127  ILE127     -0.1977
     89  CA       -71.7920  140.9350  260.6840 C.3   127  ILE127      0.1596
     90  C        -71.6950  139.9520  261.8580 C.2   127  ILE127      0.2287
     91  O        -71.6960  140.3540  263.0290 O.2   127  ILE127     -0.2864
     92  CB       -71.2510  142.3120  261.1170 C.3   127  ILE127      0.0276
     93  CG1      -71.4300  143.4000  260.0240 C.3   127  ILE127      0.0022
     94  CG2      -69.7670  142.2150  261.4060 C.3   127  ILE127      0.0022
     95  CD1      -70.8560  144.7720  260.3700 C.3   127  ILE127      0.0001
     96  N        -66.7840  148.0090  245.6720 N.3   165  ASN165     -0.1240
     97  CA       -65.6000  147.8180  246.5440 C.3   165  ASN165      0.1653
     98  C        -64.5810  146.7970  246.0350 C.2   165  ASN165      0.2266
     99  O        -63.8950  146.1730  246.8270 O.2   165  ASN165     -0.2867
    100  CB       -65.9810  147.5740  248.0080 C.3   165  ASN165      0.1155
    101  CG       -66.8290  148.7140  248.5500 C.2   165  ASN165      0.2627
    102  OD1      -66.3570  149.8660  248.5660 O.2   165  ASN165     -0.2716
    103  ND2      -68.0840  148.4470  248.9340 N.am  165  ASN165     -0.0877
    104  N        -68.9490  150.1720  241.9760 N.3   188  GLN188     -0.1245
    105  CA       -69.3970  151.2270  242.8750 C.3   188  GLN188      0.1566
    106  C        -68.3770  151.3240  244.0450 C.2   188  GLN188      0.2260
    107  O        -68.2390  150.3750  244.8610 O.2   188  GLN188     -0.2867
    108  CB       -70.8010  150.9740  243.4030 C.3   188  GLN188      0.0367
    109  CG       -71.2420  152.0890  244.3400 C.3   188  GLN188      0.0905
    110  CD       -72.5960  151.9200  244.9630 C.2   188  GLN188      0.2608
    111  OE1      -72.7400  152.0520  246.1760 O.2   188  GLN188     -0.2717
    112  NE2      -73.6060  151.6720  244.1470 N.am  188  GLN188     -0.0878
    113  N        -69.6010  156.5280  245.4880 N.3   214  TYR214     -0.1241
    114  CA       -70.2570  156.7830  246.7590 C.3   214  TYR214      0.1605
    115  C        -69.4230  157.6900  247.6480 C.2   214  TYR214      0.2264
    116  O        -68.2080  157.9120  247.3950 O.2   214  TYR214     -0.2867
    117  CB       -70.6370  155.4720  247.4590 C.3   214  TYR214      0.0534
    118  CG       -69.5720  154.6050  248.0560 C.ar  214  TYR214     -0.0201
    119  CD1      -68.8960  154.9530  249.2250 C.ar  214  TYR214     -0.0009
    120  CD2      -69.3860  153.3650  247.5950 C.ar  214  TYR214     -0.0009
    121  CE1      -67.9750  154.0940  249.8180 C.ar  214  TYR214      0.0417
    122  CE2      -68.4710  152.4850  248.2150 C.ar  214  TYR214      0.0417
    123  CZ       -67.7770  152.8470  249.3370 C.ar  214  TYR214      0.1957
    124  OH       -66.9110  152.0070  250.0160 O.3   214  TYR214     -0.2866
    125  N        -71.3510  159.9110  255.0130 N.3   220  HIS220     -0.1241
    126  CA       -72.2360  160.1070  256.1880 C.3   220  HIS220      0.1621
    127  C        -71.4850  160.4030  257.4800 C.2   220  HIS220      0.2264
    128  O        -72.1100  160.8210  258.4630 O.2   220  HIS220     -0.2867
    129  CB       -73.1290  158.8590  256.4090 C.3   220  HIS220      0.0745
    130  CG       -72.4180  157.5350  256.2310 C.ar  220  HIS220      0.0817
    131  ND1      -71.3770  157.1140  257.0460 N.ar  220  HIS220     -0.2268
    132  CD2      -72.6180  156.5310  255.3350 C.ar  220  HIS220      0.1154
    133  CE1      -70.9510  155.9270  256.6410 C.ar  220  HIS220      0.1986
    134  NE2      -71.6960  155.5460  255.6120 N.ar  220  HIS220     -0.2212
    135  N        -70.4640  158.3850  259.7850 N.3   222  GLU222     -0.1245
    136  CA       -71.0500  157.5770  260.8800 C.3   222  GLU222      0.1567
    137  C        -69.8860  156.8800  261.6100 C.2   222  GLU222      0.2260
    138  O        -69.0230  156.2300  260.9880 O.2   222  GLU222     -0.2867
    139  CB       -72.1310  156.5770  260.3590 C.3   222  GLU222      0.0388
    140  CG       -73.1200  156.0360  261.4190 C.3   222  GLU222      0.1160
    141  CD       -73.8120  154.6890  261.0930 C.2   222  GLU222      0.3649
    142  OE1      -73.9460  154.2280  259.9210 O.co2 222  GLU222     -0.2457
    143  OE2      -74.2690  154.0610  262.0680 O.co2 222  GLU222     -0.2457
    144  N        -67.4980  153.7550  261.7260 N.3   225  TRP225     -0.1241
    145  CA       -67.0790  153.4420  260.3310 C.3   225  TRP225      0.1605
    146  C        -66.1050  154.4960  259.7260 C.2   225  TRP225      0.2264
    147  O        -65.2300  154.1820  258.9190 O.2   225  TRP225     -0.2867
    148  CB       -68.3230  153.3820  259.4300 C.3   225  TRP225      0.0550
    149  CG       -69.3510  152.3880  259.8910 C.ar  225  TRP225      0.0003
    150  CD1      -70.4510  152.5940  260.7170 C.ar  225  TRP225      0.0946
    151  CD2      -69.3540  151.0120  259.5620 C.ar  225  TRP225      0.0152
    152  NE1      -71.1320  151.3960  260.8900 N.ar  225  TRP225     -0.2442
    153  CE2      -70.4680  150.4160  260.2070 C.ar  225  TRP225      0.0810
    154  CE3      -68.5060  150.2220  258.7990 C.ar  225  TRP225      0.0012
    155  CZ2      -70.7570  149.0440  260.1070 C.ar  225  TRP225      0.0191
    156  CZ3      -68.7920  148.8290  258.6810 C.ar  225  TRP225      0.0001
    157  CH2      -69.9380  148.2780  259.3270 C.ar  225  TRP225      0.0015
    158  N        -64.0560  155.5290  254.1710 N.3   304  LEU304     -0.1245
    159  CA       -64.5720  154.2230  254.5210 C.3   304  LEU304      0.1561
    160  C        -63.5670  153.1130  254.2680 C.2   304  LEU304      0.2260
    161  O        -63.5490  152.5290  253.1820 O.2   304  LEU304     -0.2867
    162  CB       -65.7630  153.9490  253.6690 C.3   304  LEU304      0.0270
    163  CG       -67.1490  154.0670  254.2920 C.3   304  LEU304      0.0019
    164  CD1      -67.9940  153.0830  253.4780 C.3   304  LEU304      0.0001
    165  CD2      -67.3540  153.7850  255.8010 C.3   304  LEU304      0.0001
    166  N        -63.5700  150.2770  255.8360 N.3   306  LEU306     -0.1245
    167  CA       -64.1760  148.9820  256.1760 C.3   306  LEU306      0.1561
    168  C        -63.1960  148.0110  256.8240 C.2   306  LEU306      0.2260
    169  O        -63.1950  146.7800  256.5670 O.2   306  LEU306     -0.2867
    170  CB       -64.9370  148.4040  254.9600 C.3   306  LEU306      0.0270
    171  CG       -65.9440  149.3980  254.3190 C.3   306  LEU306      0.0019
    172  CD1      -66.4000  148.8830  252.9540 C.3   306  LEU306      0.0001
    173  CD2      -67.1330  149.7070  255.2400 C.3   306  LEU306      0.0001
    174  N        -63.2520  144.4660  258.2860 N.3   309  PHE309     -0.1241
    175  CA       -63.1760  143.2950  257.4160 C.3   309  PHE309      0.1605
    176  C        -61.7580  143.0020  256.9250 C.2   309  PHE309      0.2264
    177  O        -61.6070  142.1920  255.9730 O.2   309  PHE309     -0.2867
    178  CB       -64.1340  143.4170  256.2170 C.3   309  PHE309      0.0534
    179  CG       -65.5630  143.6370  256.5800 C.ar  309  PHE309     -0.0203
    180  CD1      -66.3260  142.6220  257.0400 C.ar  309  PHE309     -0.0042
    181  CD2      -66.1720  144.8690  256.3610 C.ar  309  PHE309     -0.0042
    182  CE1      -67.6670  142.8040  257.3610 C.ar  309  PHE309     -0.0003
    183  CE2      -67.5240  145.0730  256.6690 C.ar  309  PHE309     -0.0003
    184  CZ       -68.2650  144.0200  257.1930 C.ar  309  PHE309     -0.0000
@<TRIPOS>BOND
     1   104   105    1
     2   105   108    1
     3   105   106    1
     4   108   109    1
     5   106   107    2
     6   112   110   am
     7   109   110    1
     8   110   111    2
     9   113   114    1
    10    96    97    1
    11    98    97    1
    12    98    99    2
    13    97   100    1
    14   114   117    1
    15   114   115    1
    16    51    52    1
    17   116   115    2
    18   117   118    1
    19   120   118   ar
    20   120   122   ar
    21    52    53    1
    22    52    55    1
    23   100   101    1
    24   118   119   ar
    25   122   123   ar
    26    53    54    2
    27    53    61   am
    28   101   102    2
    29   101   103   am
    30    61    62    1
    31    55    56    1
    32    63    64    2
    33    63    62    1
    34   119   121   ar
    35    62    65    1
    36   123   121   ar
    37   123   124    1
    38    56    58   ar
    39    56    57   ar
    40    58    60   ar
    41    37    38    1
    42    57    59   ar
    43    36    35    1
    44    60    59   ar
    45    40    39    2
    46    34    35   ar
    47    34    32   ar
    48    65    66    1
    49    67    66   ar
    50    67    69   ar
    51    35    33   ar
    52    38    39    1
    53    38    41    1
    54    66    68   ar
    55    32    30   ar
    56    69    71   ar
    57    68    70   ar
    58     1     2    1
    59    33    31   ar
    60    71    70   ar
    61    41    42    1
    62    30    31   ar
    63    30    29    1
    64    47    49   ar
    65    47    44   ar
    66   172   171    1
    67    49    50   ar
    68    18    19    1
    69   161   160    2
    70    29    26    1
    71   164   163    1
    72    44    42   ar
    73    44    46   ar
    74     2     5    1
    75     2     3    1
    76     5     6    1
    77    42    43   ar
    78   162   163    1
    79   162   159    1
    80    23    22    1
    81    50    48   ar
    82    25    26    1
    83    25    20   am
    84   158   159    1
    85   160   159    1
    86   163   165    1
    87   171   170    1
    88   171   173    1
    89    22    19    1
    90    22    24    1
    91     4     3    2
    92    19    20    1
    93    26    27    1
    94    43    45   ar
    95    46    48   ar
    96    46    45   ar
    97   170   167    1
    98     6     7   ar
    99     6     8   ar
   100   125   126    1
   101    20    21    2
   102   132   134   ar
   103   132   130   ar
   104    27    28    2
   105     7     9   ar
   106   134   133   ar
   107     8    10   ar
   108   166   167    1
   109   177   176    2
   110   167   168    1
   111   126   129    1
   112   126   127    1
   113   178   179    1
   114   178   175    1
   115   130   129    1
   116   130   131   ar
   117   181   179   ar
   118   181   183   ar
   119   169   168    2
   120   179   180   ar
   121   133   131   ar
   122   183   184   ar
   123     9    11   ar
   124   176   175    1
   125    10    11   ar
   126   180   182   ar
   127   184   182   ar
   128   175   174    1
   129    86    85    1
   130   127   128    2
   131    11    12    1
   132    85    82    1
   133    85    87    1
   134    84    83    2
   135    82    83    1
   136    82    81    1
   137   156   154   ar
   138   156   157   ar
   139   154   151   ar
   140   147   146    2
   141    83    88   am
   142   157   155   ar
   143   148   149    1
   144   148   145    1
   145   151   149   ar
   146   151   153   ar
   147    75    74    2
   148    81    74   am
   149   146   145    1
   150   135   136    1
   151   149   150   ar
   152   142   141   ar
   153    93    95    1
   154    93    92    1
   155    74    73    1
   156   155   153   ar
   157   153   152   ar
   158    88    89    1
   159   145   144    1
   160   139   136    1
   161   139   140    1
   162    89    92    1
   163    89    90    1
   164   150   152   ar
   165    72    73    1
   166   136   137    1
   167   138   137    2
   168   141   140    1
   169   141   143   ar
   170    92    94    1
   171    73    76    1
   172    13    14    1
   173    90    91    2
   174    14    17    1
   175    14    15    1
   176    76    77    1
   177    80    78   ar
   178    77    78    1
   179    78    79   ar
   180    15    16    2
