@<TRIPOS>MOLECULE
tmp/4jtrA00.pdb
 150 147 0 0 0
SMALL
GASTEIGER

@<TRIPOS>ATOM
      1  N        -76.0090  168.1070  204.6040 N.3    21  TYR21      -0.1241
      2  CA       -75.5250  168.8730  203.4310 C.3    21  TYR21       0.1605
      3  C        -74.7170  167.9260  202.5160 C.2    21  TYR21       0.2264
      4  O        -73.8950  167.1020  203.0140 O.2    21  TYR21      -0.2867
      5  CB       -74.5830  169.9540  203.8570 C.3    21  TYR21       0.0534
      6  CG       -74.0590  170.7290  202.6160 C.ar   21  TYR21      -0.0201
      7  CD1      -74.8950  171.5600  201.9040 C.ar   21  TYR21      -0.0009
      8  CD2      -72.8230  170.4600  202.0940 C.ar   21  TYR21      -0.0009
      9  CE1      -74.4480  172.2190  200.7690 C.ar   21  TYR21       0.0417
     10  CE2      -72.3590  171.1090  200.9540 C.ar   21  TYR21       0.0417
     11  CZ       -73.1720  172.0160  200.3150 C.ar   21  TYR21       0.1957
     12  OH       -72.6900  172.5830  199.1380 O.3    21  TYR21      -0.2866
     13  N        -80.6170  176.7680  203.1540 N.3    51  VAL51      -0.1231
     14  CA       -79.6500  176.9430  202.0300 C.3    51  VAL51       0.1692
     15  C        -79.1480  175.6210  201.4940 C.2    51  VAL51       0.2592
     16  O        -78.4770  175.5790  200.4610 O.2    51  VAL51      -0.2718
     17  CB       -78.5230  177.9380  202.4700 C.3    51  VAL51       0.0266
     18  CG1      -77.5360  177.2620  203.4150 C.3    51  VAL51       0.0020
     19  CG2      -77.8770  178.7200  201.3590 C.3    51  VAL51       0.0020
     20  N        -79.3580  174.5220  202.1900 N.am   52  TYR52      -0.1976
     21  CA       -78.9390  173.1820  201.7320 C.3    52  TYR52       0.1639
     22  C        -79.7890  172.6600  200.5630 C.2    52  TYR52       0.2290
     23  O        -79.4620  171.6970  199.9610 O.2    52  TYR52      -0.2864
     24  CB       -78.9170  172.1210  202.8700 C.3    52  TYR52       0.0560
     25  CG       -77.9760  172.4290  204.0300 C.ar   52  TYR52      -0.0198
     26  CD1      -77.0890  173.4710  203.9600 C.ar   52  TYR52      -0.0009
     27  CD2      -78.0020  171.6830  205.1870 C.ar   52  TYR52      -0.0009
     28  CE1      -76.2390  173.7920  204.9970 C.ar   52  TYR52       0.0417
     29  CE2      -77.1680  171.9870  206.2440 C.ar   52  TYR52       0.0417
     30  CZ       -76.3010  173.0420  206.1590 C.ar   52  TYR52       0.1957
     31  OH       -75.4770  173.3670  207.1860 O.3    52  TYR52      -0.2866
     32  N        -81.3370  181.5780  206.6890 N.3    83  TRP83      -0.1241
     33  CA       -80.3160  182.0400  205.7780 C.3    83  TRP83       0.1605
     34  C        -80.2700  183.5970  205.8040 C.2    83  TRP83       0.2264
     35  O        -81.1870  184.2580  206.1720 O.2    83  TRP83      -0.2867
     36  CB       -80.4820  181.4370  204.3380 C.3    83  TRP83       0.0550
     37  CG       -79.2860  181.7580  203.4680 C.ar   83  TRP83       0.0003
     38  CD1      -79.2470  182.5440  202.3490 C.ar   83  TRP83       0.0946
     39  CD2      -77.9260  181.5200  203.8190 C.ar   83  TRP83       0.0152
     40  NE1      -77.9620  182.7780  201.9830 N.ar   83  TRP83      -0.2442
     41  CE2      -77.1060  182.1460  202.8410 C.ar   83  TRP83       0.0810
     42  CE3      -77.2810  180.7950  204.8560 C.ar   83  TRP83       0.0012
     43  CZ2      -75.7020  182.1000  202.8970 C.ar   83  TRP83       0.0191
     44  CZ3      -75.8960  180.7390  204.9100 C.ar   83  TRP83       0.0001
     45  CH2      -75.1240  181.4000  203.9010 C.ar   83  TRP83       0.0015
     46  N        -77.9080  181.2280  210.6940 N.3   114  HIS114     -0.1241
     47  CA       -76.8960  180.4340  210.0360 C.3   114  HIS114      0.1621
     48  C        -75.5040  181.0720  209.9920 C.2   114  HIS114      0.2264
     49  O        -74.5020  180.3820  210.1990 O.2   114  HIS114     -0.2867
     50  CB       -77.3920  180.0260  208.6430 C.3   114  HIS114      0.0745
     51  CG       -76.7660  178.8470  208.0230 C.ar  114  HIS114      0.0817
     52  ND1      -77.3730  178.0600  207.0770 N.ar  114  HIS114     -0.2268
     53  CD2      -75.5600  178.2790  208.2250 C.ar  114  HIS114      0.1154
     54  CE1      -76.5790  177.1070  206.7000 C.ar  114  HIS114      0.1986
     55  NE2      -75.4670  177.1990  207.3910 N.ar  114  HIS114     -0.2212
     56  N        -80.0970  182.9890  197.2280 N.3   125  VAL125     -0.1231
     57  CA       -79.3950  182.8550  198.4730 C.3   125  VAL125      0.1692
     58  C        -78.0130  183.5460  198.4790 C.2   125  VAL125      0.2591
     59  O        -77.5990  183.9790  199.5320 O.2   125  VAL125     -0.2718
     60  CB       -79.2230  181.3920  198.8280 C.3   125  VAL125      0.0266
     61  CG1      -80.6030  180.7130  199.2250 C.3   125  VAL125      0.0020
     62  CG2      -78.3920  180.5430  197.8830 C.3   125  VAL125      0.0020
     63  N        -77.4230  183.7650  197.3110 N.am  126  ILE126     -0.1980
     64  CA       -76.1730  184.5430  197.2460 C.3   126  ILE126      0.1595
     65  C        -76.4430  185.6340  196.1690 C.2   126  ILE126      0.2287
     66  O        -76.0310  185.4840  194.9970 O.2   126  ILE126     -0.2864
     67  CB       -74.9080  183.7060  196.8140 C.3   126  ILE126      0.0276
     68  CG1      -74.7040  182.4740  197.6690 C.3   126  ILE126      0.0022
     69  CG2      -73.6970  184.5680  196.8340 C.3   126  ILE126      0.0022
     70  CD1      -74.4610  182.7410  199.1000 C.3   126  ILE126      0.0001
     71  N        -71.7710  179.9610  213.6570 N.3   164  ASN164     -0.1240
     72  CA       -70.6950  180.7530  213.1110 C.3   164  ASN164      0.1653
     73  C        -70.5840  182.0790  213.8260 C.2   164  ASN164      0.2266
     74  O        -70.1590  183.0970  213.1840 O.2   164  ASN164     -0.2867
     75  CB       -70.7930  180.9150  211.5920 C.3   164  ASN164      0.1155
     76  CG       -70.7320  179.5900  210.8990 C.2   164  ASN164      0.2627
     77  OD1      -69.7410  178.8750  211.0270 O.2   164  ASN164     -0.2716
     78  ND2      -71.7890  179.1850  210.2190 N.am  164  ASN164     -0.0877
     79  N        -69.5260  171.1540  213.7570 N.3   213  TYR213     -0.1241
     80  CA       -69.6080  170.7120  212.3850 C.3   213  TYR213      0.1605
     81  C        -68.2220  170.5460  211.7910 C.2   213  TYR213      0.2264
     82  O        -67.2090  170.9650  212.3660 O.2   213  TYR213     -0.2867
     83  CB       -70.4500  171.6780  211.5360 C.3   213  TYR213      0.0534
     84  CG       -69.8860  173.0440  211.1580 C.ar  213  TYR213     -0.0201
     85  CD1      -68.7780  173.1630  210.2720 C.ar  213  TYR213     -0.0009
     86  CD2      -70.4290  174.1690  211.6060 C.ar  213  TYR213     -0.0009
     87  CE1      -68.3770  174.4170  209.8660 C.ar  213  TYR213      0.0417
     88  CE2      -70.0780  175.4550  211.1510 C.ar  213  TYR213      0.0417
     89  CZ       -68.9770  175.5460  210.3390 C.ar  213  TYR213      0.1957
     90  OH       -68.6280  176.7630  209.7880 O.3   213  TYR213     -0.2866
     91  N        -66.7640  168.1940  204.3050 N.3   219  HIS219     -0.1241
     92  CA       -67.0320  167.7330  202.9640 C.3   219  HIS219      0.1621
     93  C        -65.8990  167.9550  201.9630 C.2   219  HIS219      0.2264
     94  O        -65.8900  167.2940  200.9150 O.2   219  HIS219     -0.2867
     95  CB       -68.3640  168.3580  202.3930 C.3   219  HIS219      0.0745
     96  CG       -68.4910  169.8450  202.5770 C.ar  219  HIS219      0.0817
     97  ND1      -67.7000  170.7710  201.9150 N.ar  219  HIS219     -0.2268
     98  CD2      -69.3610  170.5800  203.3300 C.ar  219  HIS219      0.1154
     99  CE1      -68.0630  172.0000  202.2610 C.ar  219  HIS219      0.1986
    100  NE2      -69.0510  171.9110  203.1350 N.ar  219  HIS219     -0.2212
    101  N        -65.5760  170.3170  199.8900 N.3   221  GLU221     -0.1245
    102  CA       -66.1170  170.7200  198.5760 C.3   221  GLU221      0.1567
    103  C        -65.3870  172.0050  198.0810 C.2   221  GLU221      0.2260
    104  O        -65.2470  172.9910  198.8170 O.2   221  GLU221     -0.2867
    105  CB       -67.6480  170.9950  198.6670 C.3   221  GLU221      0.0388
    106  CG       -68.3370  171.2120  197.3350 C.3   221  GLU221      0.1160
    107  CD       -69.7300  171.7910  197.4620 C.2   221  GLU221      0.3649
    108  OE1      -70.2410  172.0920  198.6050 O.co2 221  GLU221     -0.2457
    109  OE2      -70.2840  171.9770  196.3480 O.co2 221  GLU221     -0.2457
    110  N        -65.2130  175.9430  198.4140 N.3   224  TRP224     -0.1241
    111  CA       -65.4530  176.3340  199.8220 C.3   224  TRP224      0.1605
    112  C        -64.3000  175.9860  200.7780 C.2   224  TRP224      0.2264
    113  O        -64.0140  176.7250  201.7340 O.2   224  TRP224     -0.2867
    114  CB       -66.7790  175.7150  200.3190 C.3   224  TRP224      0.0550
    115  CG       -67.8800  176.0090  199.3860 C.ar  224  TRP224      0.0003
    116  CD1      -68.4820  175.1510  198.5390 C.ar  224  TRP224      0.0946
    117  CD2      -68.5010  177.2770  199.1950 C.ar  224  TRP224      0.0152
    118  NE1      -69.4710  175.8160  197.7970 N.ar  224  TRP224     -0.2442
    119  CE2      -69.5060  177.1220  198.2050 C.ar  224  TRP224      0.0810
    120  CE3      -68.3130  178.5320  199.7740 C.ar  224  TRP224      0.0012
    121  CZ2      -70.3310  178.1900  197.7830 C.ar  224  TRP224      0.0191
    122  CZ3      -69.0920  179.5720  199.3480 C.ar  224  TRP224      0.0001
    123  CH2      -70.1080  179.4110  198.3680 C.ar  224  TRP224      0.0015
    124  N        -63.5350  175.8380  206.8270 N.3   303  LEU303     -0.1245
    125  CA       -64.6770  176.5610  206.3080 C.3   303  LEU303      0.1561
    126  C        -64.5650  178.0390  206.6170 C.2   303  LEU303      0.2260
    127  O        -64.8970  178.4690  207.6910 O.2   303  LEU303     -0.2867
    128  CB       -65.9670  175.9940  206.8840 C.3   303  LEU303      0.0270
    129  CG       -67.2190  176.6210  206.2640 C.3   303  LEU303      0.0019
    130  CD1      -67.3790  178.0030  206.8530 C.3   303  LEU303      0.0001
    131  CD2      -67.1750  176.6270  204.7120 C.3   303  LEU303      0.0001
    132  N        -65.9020  180.5990  204.3660 N.3   305  LEU305     -0.1245
    133  CA       -66.9990  181.3250  203.7720 C.3   305  LEU305      0.1561
    134  C        -66.4940  182.7200  203.3900 C.2   305  LEU305      0.2260
    135  O        -67.1690  183.7330  203.5950 O.2   305  LEU305     -0.2867
    136  CB       -68.1890  181.3800  204.7620 C.3   305  LEU305      0.0270
    137  CG       -68.6270  179.9310  205.0530 C.3   305  LEU305      0.0019
    138  CD1      -69.5240  179.8020  206.2770 C.3   305  LEU305      0.0001
    139  CD2      -69.2460  179.4620  203.7680 C.3   305  LEU305      0.0001
    140  N        -68.0790  186.0260  202.0390 N.3   308  PHE308     -0.1241
    141  CA       -68.7420  186.9940  202.8950 C.3   308  PHE308      0.1605
    142  C        -67.8230  187.8200  203.7770 C.2   308  PHE308      0.2264
    143  O        -68.2650  188.5430  204.6650 O.2   308  PHE308     -0.2867
    144  CB       -69.7870  186.3320  203.7890 C.3   308  PHE308      0.0534
    145  CG       -70.7230  185.4330  203.0500 C.ar  308  PHE308     -0.0203
    146  CD1      -71.6580  185.9620  202.1490 C.ar  308  PHE308     -0.0042
    147  CD2      -70.7340  184.0920  203.2830 C.ar  308  PHE308     -0.0042
    148  CE1      -72.5160  185.1470  201.4520 C.ar  308  PHE308     -0.0003
    149  CE2      -71.5960  183.2730  202.5720 C.ar  308  PHE308     -0.0003
    150  CZ       -72.4950  183.7970  201.7030 C.ar  308  PHE308     -0.0000
@<TRIPOS>BOND
     1    66    65    2
     2    65    64    1
     3   109   107   ar
     4    67    69    1
     5    67    64    1
     6    67    68    1
     7    56    57    1
     8    64    63    1
     9    63    58   am
    10   106   107    1
    11   106   105    1
    12   107   108   ar
    13    68    70    1
    14   121   119   ar
    15   121   123   ar
    16   118   119   ar
    17   118   116   ar
    18    62    60    1
    19   103   102    1
    20   103   104    2
    21   119   117   ar
    22   123   122   ar
    23   110   111    1
    24    57    58    1
    25    57    60    1
    26    58    59    2
    27   116   115   ar
    28   102   105    1
    29   102   101    1
    30    60    61    1
    31    12    11    1
    32   117   115   ar
    33   117   120   ar
    34   122   120   ar
    35   115   114    1
    36   111   114    1
    37   111   112    1
    38    23    22    2
    39    11     9   ar
    40    11    10   ar
    41    16    15    2
    42    22    21    1
    43     9     7   ar
    44   112   113    2
    45    94    93    2
    46    10     8   ar
    47    19    17    1
    48   148   150   ar
    49   148   146   ar
    50    15    14    1
    51    15    20   am
    52   150   149   ar
    53    21    20    1
    54    21    24    1
    55     7     6   ar
    56    97    99   ar
    57    97    96   ar
    58    93    92    1
    59    40    38   ar
    60    40    41   ar
    61    14    17    1
    62    14    13    1
    63   140   141    1
    64     8     6   ar
    65   146   145   ar
    66    99   100   ar
    67    38    37   ar
    68    95    96    1
    69    95    92    1
    70    17    18    1
    71     3     4    2
    72     3     2    1
    73   149   147   ar
    74    96    98   ar
    75     6     5    1
    76    41    43   ar
    77    41    39   ar
    78    24    25    1
    79   141   142    1
    80   141   144    1
    81    43    45   ar
    82    92    91    1
    83   145   147   ar
    84   145   144    1
    85   100    98   ar
    86   134   135    2
    87   134   133    1
    88     2     5    1
    89     2     1    1
    90    37    39   ar
    91    37    36    1
    92   139   137    1
    93   133   132    1
    94   133   136    1
    95   142   143    2
    96    39    42   ar
    97    45    44   ar
    98    26    25   ar
    99    26    28   ar
   100    25    27   ar
   101    36    33    1
   102   131   129    1
   103   136   137    1
   104    42    44   ar
   105    28    30   ar
   106   137   138    1
   107    27    29   ar
   108    33    34    1
   109    33    32    1
   110    34    35    2
   111    30    29   ar
   112    30    31    1
   113   129   130    1
   114   129   128    1
   115   125   126    1
   116   125   124    1
   117   125   128    1
   118   126   127    2
   119    54    52   ar
   120    54    55   ar
   121    52    51   ar
   122    55    53   ar
   123    51    53   ar
   124    51    50    1
   125    50    47    1
   126    90    89    1
   127    87    85   ar
   128    87    89   ar
   129    48    47    1
   130    48    49    2
   131    47    46    1
   132    78    76   am
   133    85    84   ar
   134    89    88   ar
   135    76    77    2
   136    76    75    1
   137    88    86   ar
   138    84    83    1
   139    84    86   ar
   140    83    80    1
   141    75    72    1
   142    81    82    2
   143    81    80    1
   144    80    79    1
   145    72    71    1
   146    72    73    1
   147    74    73    2
