@<TRIPOS>MOLECULE
tmp/4jtuA02.pdb
 101 97 0 0 0
SMALL
GASTEIGER

@<TRIPOS>ATOM
      1  N        -40.3130  -12.7430    0.7730 N.3    26  ARG26      -0.1245
      2  CA       -41.2430  -11.7730    0.1700 C.3    26  ARG26       0.1563
      3  C        -40.7500  -10.3360    0.3250 C.2    26  ARG26       0.2260
      4  O        -40.8030   -9.5590   -0.6270 O.2    26  ARG26      -0.2867
      5  CB       -42.6440  -11.9200    0.7660 C.3    26  ARG26       0.0307
      6  CG       -43.2750  -13.2840    0.5150 C.3    26  ARG26       0.0489
      7  CD       -44.6300  -13.4360    1.2140 C.3    26  ARG26       0.2205
      8  NE       -45.6190  -12.5080    0.6590 N.pl3  26  ARG26      -0.0865
      9  CZ       -46.2600  -12.6860   -0.4970 C.cat  26  ARG26       0.5346
     10  NH1      -46.0320  -13.7670   -1.2430 N.pl3  26  ARG26       0.1354
     11  NH2      -47.1360  -11.7780   -0.9130 N.pl3  26  ARG26       0.1354
     12  N        -41.3830  -14.8380  -10.0260 N.3    70  HIS70      -0.1241
     13  CA       -42.3970  -14.2400  -10.9100 C.3    70  HIS70       0.1621
     14  C        -41.9040  -13.0800  -11.7470 C.2    70  HIS70       0.2264
     15  O        -42.7100  -12.3710  -12.3550 O.2    70  HIS70      -0.2867
     16  CB       -43.6840  -13.8490  -10.1310 C.3    70  HIS70       0.0745
     17  CG       -43.9930  -14.7430   -8.9280 C.ar   70  HIS70       0.0817
     18  ND1      -44.3820  -16.0280   -9.0470 N.ar   70  HIS70      -0.2268
     19  CD2      -43.9630  -14.4690   -7.5590 C.ar   70  HIS70       0.1154
     20  CE1      -44.5880  -16.5540   -7.8250 C.ar   70  HIS70       0.1986
     21  NE2      -44.3400  -15.5880   -6.9110 N.ar   70  HIS70      -0.2212
     22  N        -40.2640  -10.2370  -10.8120 N.3    72  GLU72      -0.1245
     23  CA       -40.5770   -8.9200  -10.2210 C.3    72  GLU72       0.1567
     24  C        -39.3600   -8.0710   -9.8730 C.2    72  GLU72       0.2260
     25  O        -39.5040   -6.8850   -9.6240 O.2    72  GLU72      -0.2867
     26  CB       -41.4030   -9.1020   -8.9490 C.3    72  GLU72       0.0388
     27  CG       -42.7500   -9.7560   -9.2050 C.3    72  GLU72       0.1160
     28  CD       -43.4210  -10.2020   -7.9310 C.2    72  GLU72       0.3649
     29  OE1      -42.8900  -11.1070   -7.2360 O.co2  72  GLU72      -0.2457
     30  OE2      -44.4940   -9.6450   -7.6300 O.co2  72  GLU72      -0.2457
     31  N        -51.6020  -19.9240  -13.1110 N.3    94  PRO94      -0.2102
     32  CA       -51.2500  -19.5990  -11.7220 C.3    94  PRO94       0.1504
     33  C        -51.5800  -20.7570  -10.7820 C.2    94  PRO94       0.2576
     34  O        -52.5240  -21.5050  -11.0260 O.2    94  PRO94      -0.2718
     35  CB       -52.1560  -18.3970  -11.3810 C.3    94  PRO94       0.0282
     36  CG       -52.6590  -17.8790  -12.7000 C.3    94  PRO94       0.0208
     37  CD       -52.6630  -19.0450  -13.6500 C.3    94  PRO94       0.0893
     38  N        -50.7920  -20.9150   -9.7230 N.am   95  GLN95      -0.1966
     39  CA       -51.0820  -21.9200   -8.7020 C.3    95  GLN95       0.1733
     40  C        -50.4110  -21.5070   -7.4120 C.2    95  GLN95       0.2616
     41  O        -49.3910  -20.8070   -7.4160 O.2    95  GLN95      -0.2715
     42  CB       -50.6820  -23.3500   -9.1110 C.3    95  GLN95       0.0408
     43  CG       -49.1900  -23.5650   -9.3680 C.3    95  GLN95       0.0908
     44  CD       -48.8300  -25.0300   -9.6240 C.2    95  GLN95       0.2608
     45  OE1      -49.5730  -25.7780  -10.2760 O.2    95  GLN95      -0.2717
     46  NE2      -47.6870  -25.4510   -9.0840 N.am   95  GLN95      -0.0878
     47  N        -51.0140  -21.9240   -6.3090 N.am   96  GLU96      -0.1977
     48  CA       -50.6390  -21.4060   -5.0010 C.3    96  GLU96       0.1602
     49  C        -49.3870  -22.0800   -4.4200 C.2    96  GLU96       0.2287
     50  O        -48.7110  -21.4830   -3.5840 O.2    96  GLU96      -0.2864
     51  CB       -51.8140  -21.5820   -4.0210 C.3    96  GLU96       0.0415
     52  CG       -52.9230  -20.5440   -4.1870 C.3    96  GLU96       0.1163
     53  CD       -52.5340  -19.1770   -3.6410 C.2    96  GLU96       0.3649
     54  OE1      -51.7420  -19.1230   -2.6710 O.co2  96  GLU96      -0.2457
     55  OE2      -53.0290  -18.1460   -4.1670 O.co2  96  GLU96      -0.2457
     56  N        -48.5120  -23.5720    3.9390 N.3   100  ARG100     -0.1245
     57  CA       -47.4780  -23.0330    4.7980 C.3   100  ARG100      0.1563
     58  C        -47.4990  -23.7070    6.1750 C.2   100  ARG100      0.2260
     59  O        -48.5560  -24.1660    6.6050 O.2   100  ARG100     -0.2867
     60  CB       -47.6940  -21.5400    4.9640 C.3   100  ARG100      0.0307
     61  CG       -47.4670  -20.7410    3.7020 C.3   100  ARG100      0.0489
     62  CD       -47.5210  -19.2680    4.0400 C.3   100  ARG100      0.2205
     63  NE       -47.3410  -18.4350    2.8630 N.pl3 100  ARG100     -0.0865
     64  CZ       -48.3030  -17.7160    2.2920 C.cat 100  ARG100      0.5346
     65  NH1      -49.5340  -17.7160    2.7940 N.pl3 100  ARG100      0.1354
     66  NH2      -48.0270  -16.9860    1.2180 N.pl3 100  ARG100      0.1354
     67  N        -43.5660  -23.7940    4.5090 N.3   102  ARG102     -0.1245
     68  CA       -43.0730  -24.6160    3.4140 C.3   102  ARG102      0.1563
     69  C        -41.6110  -24.2770    3.1110 C.2   102  ARG102      0.2260
     70  O        -41.0840  -24.6960    2.0890 O.2   102  ARG102     -0.2867
     71  CB       -43.9610  -24.4270    2.1700 C.3   102  ARG102      0.0307
     72  CG       -44.1910  -22.9720    1.7970 C.3   102  ARG102      0.0489
     73  CD       -45.3240  -22.8430    0.7740 C.3   102  ARG102      0.2205
     74  NE       -45.5160  -21.4360    0.4110 N.pl3 102  ARG102     -0.0865
     75  CZ       -46.3120  -21.0040   -0.5710 C.cat 102  ARG102      0.5346
     76  NH1      -46.3790  -19.7100   -0.8410 N.pl3 102  ARG102      0.1354
     77  NH2      -47.0230  -21.8610   -1.2810 N.pl3 102  ARG102      0.1354
     78  N        -45.2100  -22.4180   -6.4630 N.3   119  ASN119     -0.1225
     79  CA       -46.0940  -21.2600   -6.3780 C.3   119  ASN119      0.1785
     80  C        -45.7170  -20.3290   -7.5410 C.2   119  ASN119      0.2598
     81  O        -44.5400  -20.0010   -7.7360 O.2   119  ASN119     -0.2718
     82  CB       -45.9510  -20.5540   -5.0270 C.3   119  ASN119      0.1169
     83  CG       -44.5200  -20.1130   -4.7410 C.2   119  ASN119      0.2627
     84  OD1      -43.5900  -20.9160   -4.7880 O.2   119  ASN119     -0.2716
     85  ND2      -44.3420  -18.8220   -4.4330 N.am  119  ASN119     -0.0877
     86  N        -46.6930  -19.9330   -8.3460 N.am  120  SER120     -0.1938
     87  CA       -46.3770  -19.1970   -9.5700 C.3   120  SER120      0.2055
     88  C        -47.5320  -18.2690   -9.9500 C.2   120  SER120      0.2643
     89  O        -48.7010  -18.6620   -9.8940 O.2   120  SER120     -0.2714
     90  CB       -46.0920  -20.1700  -10.7280 C.3   120  SER120      0.2130
     91  OG       -45.8240  -19.4460  -11.9460 O.3   120  SER120     -0.2179
     92  N        -47.1970  -17.0460  -10.3300 N.am  121  HIS121     -0.1973
     93  CA       -48.2020  -16.1350  -10.9070 C.3   121  HIS121      0.1656
     94  C        -48.7010  -16.6130  -12.2620 C.2   121  HIS121      0.2291
     95  O        -49.7040  -16.1010  -12.7830 O.2   121  HIS121     -0.2864
     96  CB       -47.6180  -14.7330  -11.0400 C.3   121  HIS121      0.0771
     97  CG       -47.3820  -14.0420   -9.7230 C.ar  121  HIS121      0.0820
     98  ND1      -46.8540  -12.7970   -9.6400 N.ar  121  HIS121     -0.2267
     99  CD2      -47.6070  -14.4610   -8.4140 C.ar  121  HIS121      0.1154
    100  CE1      -46.7530  -12.4300   -8.3500 C.ar  121  HIS121      0.1986
    101  NE2      -47.2040  -13.4530   -7.5930 N.ar  121  HIS121     -0.2212
@<TRIPOS>BOND
     1    37    31    1
     2    37    36    1
     3    31    32    1
     4    95    94    2
     5    36    35    1
     6    15    14    2
     7    94    93    1
     8    91    90    1
     9    14    13    1
    10    32    35    1
    11    32    33    1
    12    96    93    1
    13    96    97    1
    14    34    33    2
    15    13    16    1
    16    13    12    1
    17    93    92    1
    18    22    23    1
    19    33    38   am
    20    90    87    1
    21    92    88   am
    22    45    44    2
    23    23    24    1
    24    23    26    1
    25    16    17    1
    26    88    89    2
    27    88    87    1
    28    24    25    2
    29    38    39    1
    30    97    98   ar
    31    97    99   ar
    32    98   100   ar
    33    44    43    1
    34    44    46   am
    35    87    86    1
    36    43    42    1
    37    27    26    1
    38    27    28    1
    39    42    39    1
    40    18    17   ar
    41    18    20   ar
    42    17    19   ar
    43    39    40    1
    44    99   101   ar
    45   100   101   ar
    46    86    80   am
    47    28    30   ar
    48    28    29   ar
    49    20    21   ar
    50    81    80    2
    51    19    21   ar
    52    80    79    1
    53    41    40    2
    54    40    47   am
    55    78    79    1
    56    79    82    1
    57    47    48    1
    58    82    83    1
    59    48    49    1
    60    48    51    1
    61    84    83    2
    62    83    85   am
    63    49    50    2
    64    52    51    1
    65    52    53    1
    66    55    53   ar
    67    53    54   ar
    68    77    75    1
    69    10     9    1
    70    11     9    1
    71    76    75    1
    72     4     3    2
    73    75    74    2
    74     9     8    2
    75     2     3    1
    76     2     5    1
    77     2     1    1
    78    74    73    1
    79     6     5    1
    80     6     7    1
    81     8     7    1
    82    73    72    1
    83    66    64    1
    84    72    71    1
    85    70    69    2
    86    71    68    1
    87    64    65    1
    88    64    63    2
    89    63    62    1
    90    69    68    1
    91    68    67    1
    92    61    62    1
    93    61    60    1
    94    56    57    1
    95    57    60    1
    96    57    58    1
    97    58    59    2
