@<TRIPOS>MOLECULE
tmp/4jtuA03.pdb
 196 187 0 0 0
SMALL
GASTEIGER

@<TRIPOS>ATOM
      1  N        -23.4450   -6.9530    7.2040 N.3     7  TYR7       -0.1241
      2  CA       -24.5670   -7.7710    6.7670 C.3     7  TYR7        0.1605
      3  C        -24.5170   -9.1670    7.3670 C.2     7  TYR7        0.2264
      4  O        -25.5280   -9.6780    7.8580 O.2     7  TYR7       -0.2867
      5  CB       -24.6030   -7.8400    5.2410 C.3     7  TYR7        0.0534
      6  CG       -25.3420   -6.6860    4.6140 C.ar    7  TYR7       -0.0201
      7  CD1      -24.7600   -5.4110    4.5270 C.ar    7  TYR7       -0.0009
      8  CD2      -26.6280   -6.8660    4.1060 C.ar    7  TYR7       -0.0009
      9  CE1      -25.4430   -4.3510    3.9410 C.ar    7  TYR7        0.0417
     10  CE2      -27.3140   -5.8180    3.5120 C.ar    7  TYR7        0.0417
     11  CZ       -26.7180   -4.5680    3.4360 C.ar    7  TYR7        0.1957
     12  OH       -27.4150   -3.5390    2.8600 O.3     7  TYR7       -0.2866
     13  N        -26.9360   -7.4150   10.2690 N.3    11  LEU11      -0.1231
     14  CA       -28.2110   -7.2160    9.5940 C.3    11  LEU11       0.1693
     15  C        -28.9680   -8.5190    9.2970 C.2    11  LEU11       0.2591
     16  O        -30.1330   -8.6620    9.6830 O.2    11  LEU11      -0.2718
     17  CB       -28.0290   -6.3860    8.3180 C.3    11  LEU11       0.0284
     18  CG       -29.2770   -5.9070    7.5640 C.3    11  LEU11       0.0019
     19  CD1      -30.3710   -5.3780    8.4860 C.3    11  LEU11       0.0001
     20  CD2      -28.8710   -4.8370    6.5640 C.3    11  LEU11       0.0001
     21  N        -28.3110   -9.4600    8.6170 N.am   12  MET12      -0.1979
     22  CA       -28.9910  -10.6890    8.1810 C.3    12  MET12       0.1605
     23  C        -29.4690  -11.5700    9.3410 C.2    12  MET12       0.2287
     24  O        -30.6360  -11.9910    9.3340 O.2    12  MET12      -0.2864
     25  CB       -28.1470  -11.4830    7.1670 C.3    12  MET12       0.0413
     26  CG       -27.7820  -10.6890    5.9140 C.3    12  MET12       0.0598
     27  SD       -29.1800   -9.9710    5.0130 S.3    12  MET12      -0.1393
     28  CE       -30.0000  -11.4680    4.4660 C.3    12  MET12       0.0692
     29  N        -32.5670   -9.9260   10.7800 N.3    15  LEU15      -0.1231
     30  CA       -33.7630  -10.1380    9.9580 C.3    15  LEU15       0.1693
     31  C        -34.2730  -11.5710   10.0920 C.2    15  LEU15       0.2591
     32  O        -35.4830  -11.8010   10.1500 O.2    15  LEU15      -0.2718
     33  CB       -33.5010   -9.8090    8.4800 C.3    15  LEU15       0.0284
     34  CG       -33.2490   -8.3360    8.1210 C.3    15  LEU15       0.0019
     35  CD1      -32.7200   -8.2040    6.6940 C.3    15  LEU15       0.0001
     36  CD2      -34.5080   -7.4910    8.3280 C.3    15  LEU15       0.0001
     37  N        -33.3450  -12.5240   10.1440 N.am   16  GLN16      -0.1979
     38  CA       -33.7030  -13.9400   10.2910 C.3    16  GLN16       0.1601
     39  C        -34.3390  -14.2370   11.6550 C.2    16  GLN16       0.2287
     40  O        -35.2530  -15.0500   11.7440 O.2    16  GLN16      -0.2864
     41  CB       -32.4930  -14.8400   10.0570 C.3    16  GLN16       0.0394
     42  CG       -32.0120  -14.8150    8.6140 C.3    16  GLN16       0.0908
     43  CD       -30.8620  -15.7660    8.3620 C.2    16  GLN16       0.2608
     44  OE1      -29.9000  -15.8040    9.1290 O.2    16  GLN16      -0.2717
     45  NE2      -30.9400  -16.5190    7.2630 N.am   16  GLN16      -0.0878
     46  N        -38.8010  -17.4770    7.2910 N.3    21  PRO21      -0.2116
     47  CA       -38.0840  -17.3180    6.0120 C.3    21  PRO21       0.1372
     48  C        -38.9700  -16.9340    4.8130 C.2    21  PRO21       0.2244
     49  O        -38.5170  -16.1740    3.9670 O.2    21  PRO21      -0.2868
     50  CB       -37.4050  -18.6760    5.7880 C.3    21  PRO21       0.0268
     51  CG       -37.9830  -19.6080    6.7980 C.3    21  PRO21       0.0207
     52  CD       -38.5580  -18.7970    7.9140 C.3    21  PRO21       0.0892
     53  N        -39.4900  -13.2020    5.0140 N.3    24  ALA24      -0.1231
     54  CA       -38.2360  -12.5250    4.7080 C.3    24  ALA24       0.1694
     55  C        -37.9810  -12.5340    3.1970 C.2    24  ALA24       0.2592
     56  O        -37.5200  -11.5420    2.6400 O.2    24  ALA24      -0.2718
     57  CB       -37.0880  -13.1970    5.4430 C.3    24  ALA24       0.0304
     58  N        -38.2540  -13.6770    2.5670 N.am   25  HIS25      -0.1976
     59  CA       -38.1790  -13.8480    1.1050 C.3    25  HIS25       0.1656
     60  C        -39.0480  -12.8310    0.3750 C.2    25  HIS25       0.2291
     61  O        -38.5740  -12.1150   -0.5260 O.2    25  HIS25      -0.2864
     62  CB       -38.5940  -15.2770    0.7540 C.3    25  HIS25       0.0771
     63  CG       -38.4690  -15.6260   -0.7140 C.ar   25  HIS25       0.0820
     64  ND1      -38.9380  -16.7970   -1.2210 N.ar   25  HIS25      -0.2267
     65  CD2      -37.8830  -14.9370   -1.7780 C.ar   25  HIS25       0.1154
     66  CE1      -38.6660  -16.8450   -2.5550 C.ar   25  HIS25       0.1986
     67  NE2      -38.0350  -15.6970   -2.8920 N.ar   25  HIS25      -0.2212
     68  N        -40.2640   -9.9920    1.5170 N.3    27  LEU27      -0.1231
     69  CA       -39.7250   -8.6530    1.7810 C.3    27  LEU27       0.1693
     70  C        -38.4750   -8.3780    0.9490 C.2    27  LEU27       0.2591
     71  O        -38.2970   -7.2620    0.4470 O.2    27  LEU27      -0.2718
     72  CB       -39.4030   -8.4870    3.2730 C.3    27  LEU27       0.0284
     73  CG       -38.7220   -7.2200    3.8350 C.3    27  LEU27       0.0019
     74  CD1      -39.1190   -7.0280    5.2940 C.3    27  LEU27       0.0001
     75  CD2      -37.1970   -7.2590    3.7160 C.3    27  LEU27       0.0001
     76  N        -37.6040   -9.3890    0.8250 N.am   28  ALA28      -0.1980
     77  CA       -36.3850   -9.2560    0.0380 C.3    28  ALA28       0.1597
     78  C        -36.7070   -9.0120   -1.4360 C.2    28  ALA28       0.2287
     79  O        -36.0350   -8.2200   -2.0820 O.2    28  ALA28      -0.2864
     80  CB       -35.5030  -10.5040    0.1750 C.3    28  ALA28       0.0319
     81  N        -38.0190   -5.3150   -1.5990 N.3    31  PHE31      -0.1227
     82  CA       -36.9120   -4.3700   -1.4430 C.3    31  PHE31       0.1736
     83  C        -36.0070   -4.3350   -2.6520 C.2    31  PHE31       0.2596
     84  O        -35.5360   -3.2650   -3.0520 O.2    31  PHE31      -0.2718
     85  CB       -36.0520   -4.7110   -0.2260 C.3    31  PHE31       0.0547
     86  CG       -36.3730   -3.8970    0.9910 C.ar   31  PHE31      -0.0202
     87  CD1      -37.6170   -4.0060    1.6130 C.ar   31  PHE31      -0.0042
     88  CD2      -35.4310   -3.0190    1.5200 C.ar   31  PHE31      -0.0042
     89  CE1      -37.9170   -3.2490    2.7420 C.ar   31  PHE31      -0.0003
     90  CE2      -35.7240   -2.2590    2.6480 C.ar   31  PHE31      -0.0003
     91  CZ       -36.9660   -2.3800    3.2600 C.ar   31  PHE31      -0.0000
     92  N        -35.7300   -5.5140   -3.2020 N.am   32  THR32      -0.1953
     93  CA       -34.8760   -5.6100   -4.3710 C.3    32  THR32       0.1897
     94  C        -35.5430   -4.9280   -5.5620 C.2    32  THR32       0.2313
     95  O        -34.8850   -4.1900   -6.3030 O.2    32  THR32      -0.2863
     96  CB       -34.5220   -7.0800   -4.6730 C.3    32  THR32       0.1794
     97  OG1      -33.8260   -7.6170   -3.5450 O.3    32  THR32      -0.2208
     98  CG2      -33.6200   -7.2070   -5.9160 C.3    32  THR32       0.0378
     99  N        -31.7480   -1.2300   -2.0580 N.3    37  LEU37      -0.1245
    100  CA       -30.3180   -1.4920   -1.9080 C.3    37  LEU37       0.1561
    101  C        -29.4800   -0.4240   -2.6030 C.2    37  LEU37       0.2260
    102  O        -29.8330    0.0120   -3.7040 O.2    37  LEU37      -0.2867
    103  CB       -29.9550   -2.8050   -2.5940 C.3    37  LEU37       0.0270
    104  CG       -30.1560   -4.1800   -1.9860 C.3    37  LEU37       0.0019
    105  CD1      -31.4670   -4.8050   -2.4370 C.3    37  LEU37       0.0001
    106  CD2      -28.9940   -5.0020   -2.4920 C.3    37  LEU37       0.0001
    107  N        -35.6080  -17.4250   -6.4430 N.3    67  PHE67      -0.1241
    108  CA       -35.5780  -16.2180   -5.6470 C.3    67  PHE67       0.1605
    109  C        -36.6340  -15.2640   -6.2080 C.2    67  PHE67       0.2264
    110  O        -37.5430  -14.8270   -5.4970 O.2    67  PHE67      -0.2867
    111  CB       -34.1920  -15.5500   -5.6030 C.3    67  PHE67       0.0534
    112  CG       -34.2220  -14.2310   -4.8810 C.ar   67  PHE67      -0.0203
    113  CD1      -34.2390  -14.1850   -3.4790 C.ar   67  PHE67      -0.0042
    114  CD2      -34.3490  -13.0410   -5.5970 C.ar   67  PHE67      -0.0042
    115  CE1      -34.3190  -12.9620   -2.8130 C.ar   67  PHE67      -0.0003
    116  CE2      -34.4290  -11.8150   -4.9390 C.ar   67  PHE67      -0.0003
    117  CZ       -34.4180  -11.7880   -3.5460 C.ar   67  PHE67      -0.0000
    118  N        -27.5030   -5.5670   -7.8360 N.3    80  MET80      -0.1245
    119  CA       -26.7170   -6.2890   -6.8100 C.3    80  MET80       0.1570
    120  C        -25.3840   -6.7980   -7.3140 C.2    80  MET80       0.2261
    121  O        -24.5250   -7.1830   -6.5060 O.2    80  MET80      -0.2867
    122  CB       -27.4680   -7.5340   -6.3220 C.3    80  MET80       0.0387
    123  CG       -28.5150   -7.2970   -5.2730 C.3    80  MET80       0.0595
    124  SD       -28.9080   -8.8430   -4.4150 S.3    80  MET80      -0.1393
    125  CE       -30.6060   -8.4820   -4.0380 C.3    80  MET80       0.0692
    126  N        -40.9830  -23.5290    4.0180 N.3   103  VAL103     -0.1245
    127  CA       -39.5580  -23.2600    3.9100 C.3   103  VAL103      0.1561
    128  C        -38.9710  -23.1330    5.3140 C.2   103  VAL103      0.2260
    129  O        -39.6270  -22.6420    6.2470 O.2   103  VAL103     -0.2867
    130  CB       -39.2400  -22.0750    2.9580 C.3   103  VAL103      0.0252
    131  CG1      -39.6940  -20.7350    3.5410 C.3   103  VAL103      0.0019
    132  CG2      -37.7630  -22.0750    2.5860 C.3   103  VAL103      0.0019
    133  N        -35.2010  -22.8310    7.7330 N.3   105  ARG105     -0.1245
    134  CA       -33.7900  -22.5160    7.8210 C.3   105  ARG105      0.1563
    135  C        -33.0640  -23.5500    8.6510 C.2   105  ARG105      0.2260
    136  O        -33.6090  -24.0330    9.6460 O.2   105  ARG105     -0.2867
    137  CB       -33.5850  -21.1960    8.5320 C.3   105  ARG105      0.0307
    138  CG       -34.0490  -20.0010    7.7820 C.3   105  ARG105      0.0489
    139  CD       -33.4180  -18.7920    8.4600 C.3   105  ARG105      0.2205
    140  NE       -34.1740  -17.6240    8.1030 N.pl3 105  ARG105     -0.0865
    141  CZ       -35.1840  -17.1330    8.7990 C.cat 105  ARG105      0.5346
    142  NH1      -35.5620  -17.6960    9.9440 N.pl3 105  ARG105      0.1354
    143  NH2      -35.8020  -16.0610    8.3530 N.pl3 105  ARG105      0.1354
    144  N        -30.9590  -24.5230    3.7470 N.3   112  VAL112     -0.1245
    145  CA       -32.3880  -24.2980    3.7200 C.3   112  VAL112      0.1561
    146  C        -33.0400  -25.5720    3.2140 C.2   112  VAL112      0.2260
    147  O        -32.4700  -26.2680    2.3530 O.2   112  VAL112     -0.2867
    148  CB       -32.7350  -23.0780    2.8070 C.3   112  VAL112      0.0252
    149  CG1      -34.2390  -22.9880    2.5230 C.3   112  VAL112      0.0019
    150  CG2      -32.2400  -21.7780    3.4650 C.3   112  VAL112      0.0019
    151  N        -41.8160  -25.3580   -1.5720 N.3   116  TYR116     -0.1241
    152  CA       -42.7860  -24.3740   -2.1010 C.3   116  TYR116      0.1605
    153  C        -43.8400  -25.0010   -2.9970 C.2   116  TYR116      0.2264
    154  O        -45.0360  -24.6520   -2.9120 O.2   116  TYR116     -0.2867
    155  CB       -42.0580  -23.2850   -2.8690 C.3   116  TYR116      0.0534
    156  CG       -41.7110  -22.0750   -2.0500 C.ar  116  TYR116     -0.0201
    157  CD1      -42.7040  -21.2160   -1.5640 C.ar  116  TYR116     -0.0009
    158  CD2      -40.3880  -21.7470   -1.8140 C.ar  116  TYR116     -0.0009
    159  CE1      -42.3760  -20.0720   -0.8230 C.ar  116  TYR116      0.0417
    160  CE2      -40.0470  -20.6030   -1.0980 C.ar  116  TYR116      0.0417
    161  CZ       -41.0370  -19.7780   -0.6060 C.ar  116  TYR116      0.1957
    162  OH       -40.6430  -18.6730    0.1010 O.3   116  TYR116     -0.2866
    163  N        -28.0150  -19.0020   -4.4690 N.3   325  TYR325     -0.1241
    164  CA       -29.2360  -18.4990   -3.9000 C.3   325  TYR325      0.1605
    165  C        -29.1000  -18.5230   -2.3670 C.2   325  TYR325      0.2264
    166  O        -29.0820  -17.4670   -1.7300 O.2   325  TYR325     -0.2867
    167  CB       -30.4140  -19.3460   -4.4030 C.3   325  TYR325      0.0534
    168  CG       -31.8060  -18.9590   -3.9210 C.ar  325  TYR325     -0.0201
    169  CD1      -32.0120  -17.9520   -2.9480 C.ar  325  TYR325     -0.0009
    170  CD2      -32.9110  -19.6440   -4.4050 C.ar  325  TYR325     -0.0009
    171  CE1      -33.3020  -17.6550   -2.4970 C.ar  325  TYR325      0.0417
    172  CE2      -34.1920  -19.3430   -3.9790 C.ar  325  TYR325      0.0417
    173  CZ       -34.3750  -18.3650   -3.0250 C.ar  325  TYR325      0.1957
    174  OH       -35.6410  -18.0830   -2.6230 O.3   325  TYR325     -0.2866
    175  N        -27.1070  -15.9750   -0.3010 N.3   328  LEU328     -0.1231
    176  CA       -27.7080  -14.6360   -0.2270 C.3   328  LEU328      0.1693
    177  C        -28.5930  -14.5080    1.0210 C.2   328  LEU328      0.2592
    178  O        -28.6600  -13.4450    1.6520 O.2   328  LEU328     -0.2718
    179  CB       -28.5030  -14.3470   -1.5200 C.3   328  LEU328      0.0284
    180  CG       -29.1360  -12.9750   -1.7610 C.3   328  LEU328      0.0019
    181  CD1      -28.0430  -11.9260   -1.8920 C.3   328  LEU328      0.0001
    182  CD2      -29.9930  -13.0080   -3.0340 C.3   328  LEU328      0.0001
    183  N        -29.2400  -15.6000    1.4070 N.am  329  THR329     -0.1953
    184  CA       -30.1270  -15.5720    2.5580 C.3   329  THR329      0.1897
    185  C        -29.3730  -15.4800    3.8820 C.2   329  THR329      0.2313
    186  O        -29.8990  -14.9190    4.8510 O.2   329  THR329     -0.2863
    187  CB       -31.1270  -16.7510    2.5580 C.3   329  THR329      0.1794
    188  OG1      -30.4550  -17.9350    2.9940 O.3   329  THR329     -0.2208
    189  CG2      -31.7240  -16.9590    1.1510 C.3   329  THR329      0.0378
    190  N        -26.8000   -9.2960    0.2710 N.3   333  PRO333     -0.2116
    191  CA       -26.2740   -8.7820   -0.9990 C.3   333  PRO333      0.1372
    192  C        -24.7450   -8.6720   -1.1210 C.2   333  PRO333      0.2244
    193  O        -24.2330   -8.8930   -2.2110 O.2   333  PRO333     -0.2868
    194  CB       -26.9300   -7.3990   -1.1140 C.3   333  PRO333      0.0268
    195  CG       -28.2330   -7.5780   -0.3990 C.3   333  PRO333      0.0207
    196  CD       -27.9260   -8.4700    0.7670 C.3   333  PRO333      0.0892
@<TRIPOS>BOND
     1   118   119    1
     2   120   119    1
     3   120   121    2
     4   119   122    1
     5   107   108    1
     6   122   123    1
     7    95    94    2
     8   109   108    1
     9   109   110    2
    10    98    96    1
    11   108   111    1
    12   111   112    1
    13   114   116   ar
    14   114   112   ar
    15    94    93    1
    16   123   124    1
    17   116   117   ar
    18   112   113   ar
    19    96    93    1
    20    96    97    1
    21   163   164    1
    22   124   125    1
    23   170   172   ar
    24   170   168   ar
    25   167   168    1
    26   167   164    1
    27    93    92    1
    28   172   173   ar
    29   168   169   ar
    30   164   165    1
    31   102   101    2
    32   117   115   ar
    33   113   115   ar
    34    92    83   am
    35    84    83    2
    36   182   180    1
    37   173   174    1
    38   173   171   ar
    39   153   154    2
    40   153   152    1
    41   169   171   ar
    42    67    66   ar
    43    67    65   ar
    44   155   152    1
    45   155   156    1
    46    83    82    1
    47   101   100    1
    48   103   104    1
    49   103   100    1
    50    66    64   ar
    51   106   104    1
    52   105   104    1
    53   165   166    2
    54   193   192    2
    55   152   151    1
    56    79    78    2
    57    99   100    1
    58   156   158   ar
    59   156   157   ar
    60   181   180    1
    61   158   160   ar
    62    65    63   ar
    63   180   179    1
    64    81    82    1
    65   157   159   ar
    66   179   176    1
    67    82    85    1
    68    78    77    1
    69    64    63   ar
    70   192   191    1
    71   194   191    1
    72   194   195    1
    73   160   161   ar
    74   191   190    1
    75   159   161   ar
    76    63    62    1
    77   161   162    1
    78    61    60    2
    79   195   196    1
    80   175   176    1
    81   176   177    1
    82    85    86    1
    83    77    80    1
    84    77    76    1
    85   190   196    1
    86    60    59    1
    87    71    70    2
    88    62    59    1
    89    76    70   am
    90    70    69    1
    91    86    88   ar
    92    86    87   ar
    93   177   183   am
    94   177   178    2
    95    59    58    1
    96   189   187    1
    97   183   184    1
    98    68    69    1
    99    88    90   ar
   100    87    89   ar
   101    69    72    1
   102   147   146    2
   103   149   148    1
   104   184   187    1
   105   184   185    1
   106   187   188    1
   107    58    55   am
   108   132   130    1
   109    56    55    2
   110    90    91   ar
   111    89    91   ar
   112   148   150    1
   113   148   145    1
   114    12    11    1
   115   130   131    1
   116   130   127    1
   117    55    54    1
   118   146   145    1
   119    72    73    1
   120    11    10   ar
   121    11     9   ar
   122    10     8   ar
   123    75    73    1
   124   145   144    1
   125    73    74    1
   126   185   186    2
   127   127   126    1
   128   127   128    1
   129     9     7   ar
   130    49    48    2
   131     8     6   ar
   132    28    27    1
   133     7     6   ar
   134     6     5    1
   135    54    53    1
   136    54    57    1
   137    48    47    1
   138    27    26    1
   139     5     2    1
   140   128   129    2
   141    50    47    1
   142    50    51    1
   143    26    25    1
   144    47    46    1
   145    20    18    1
   146    35    34    1
   147     2     1    1
   148     2     3    1
   149    51    52    1
   150    25    22    1
   151    45    43   am
   152    46    52    1
   153     3     4    2
   154    18    17    1
   155    18    19    1
   156   133   134    1
   157   138   139    1
   158   138   137    1
   159   134   137    1
   160   134   135    1
   161   140   139    1
   162   140   141    2
   163    34    36    1
   164    34    33    1
   165    22    21    1
   166    22    23    1
   167    17    14    1
   168   143   141    1
   169    43    42    1
   170    43    44    2
   171    33    30    1
   172    42    41    1
   173    21    15   am
   174   135   136    2
   175   141   142    1
   176    15    14    1
   177    15    16    2
   178    24    23    2
   179    14    13    1
   180    30    31    1
   181    30    29    1
   182    41    38    1
   183    31    37   am
   184    31    32    2
   185    37    38    1
   186    38    39    1
   187    39    40    2
