@<TRIPOS>MOLECULE
tmp/4jtwA00.pdb
 124 119 0 0 0
SMALL
GASTEIGER

@<TRIPOS>ATOM
      1  N        -25.4930   48.3970   48.0390 N.3   416  LEU416     -0.1245
      2  CA       -25.4460   49.4710   49.0100 C.3   416  LEU416      0.1561
      3  C        -25.7330   50.8090   48.3160 C.2   416  LEU416      0.2260
      4  O        -26.7810   51.4280   48.5270 O.2   416  LEU416     -0.2867
      5  CB       -24.0710   49.4860   49.6740 C.3   416  LEU416      0.0270
      6  CG       -23.8100   50.6200   50.6580 C.3   416  LEU416      0.0019
      7  CD1      -24.9630   50.7050   51.6340 C.3   416  LEU416      0.0001
      8  CD2      -22.5030   50.3760   51.3870 C.3   416  LEU416      0.0001
      9  N        -29.3580   51.4940   46.8530 N.3   419  ARG419     -0.1231
     10  CA       -30.4110   51.7460   47.8300 C.3   419  ARG419      0.1694
     11  C        -30.1940   53.0260   48.6340 C.2   419  ARG419      0.2591
     12  O        -31.1440   53.7510   48.9160 O.2   419  ARG419     -0.2718
     13  CB       -30.5030   50.5850   48.8070 C.3   419  ARG419      0.0321
     14  CG       -30.4510   49.2220   48.1770 C.3   419  ARG419      0.0489
     15  CD       -30.2040   48.1710   49.2320 C.3   419  ARG419      0.2205
     16  NE       -31.2350   48.1550   50.2610 N.pl3 419  ARG419     -0.0865
     17  CZ       -31.1590   47.4190   51.3630 C.cat 419  ARG419      0.5346
     18  NH1      -30.1020   46.6480   51.5670 N.pl3 419  ARG419      0.1354
     19  NH2      -32.1360   47.4470   52.2590 N.pl3 419  ARG419      0.1354
     20  N        -28.9480   53.3030   49.0070 N.am  420  MET420     -0.1979
     21  CA       -28.6430   54.4920   49.8030 C.3   420  MET420      0.1605
     22  C        -28.6920   55.8230   49.0650 C.2   420  MET420      0.2287
     23  O        -29.2240   56.8000   49.5890 O.2   420  MET420     -0.2864
     24  CB       -27.2680   54.3640   50.4540 C.3   420  MET420      0.0413
     25  CG       -26.8730   55.5980   51.2350 C.3   420  MET420      0.0598
     26  SD       -25.1000   55.7090   51.4260 S.3   420  MET420     -0.1393
     27  CE       -24.9150   55.0150   52.9720 C.3   420  MET420      0.0692
     28  N        -30.8040   43.4780   52.9640 N.3   471  LEU471     -0.1231
     29  CA       -29.3780   43.1640   53.0560 C.3   471  LEU471      0.1693
     30  C        -28.6150   44.1660   53.9370 C.2   471  LEU471      0.2592
     31  O        -29.0320   45.3200   54.1060 O.2   471  LEU471     -0.2718
     32  CB       -28.7340   43.1130   51.6670 C.3   471  LEU471      0.0284
     33  CG       -29.1880   42.0270   50.6870 C.3   471  LEU471      0.0019
     34  CD1      -28.2020   41.9870   49.5280 C.3   471  LEU471      0.0001
     35  CD2      -29.2550   40.6630   51.3750 C.3   471  LEU471      0.0001
     36  N        -27.5000   43.7030   54.4980 N.am  472  HIS472     -0.1962
     37  CA       -26.6580   44.5170   55.3680 C.3   472  HIS472      0.1787
     38  C        -25.3420   43.7870   55.6590 C.2   472  HIS472      0.2621
     39  O        -25.1880   42.6030   55.3440 O.2   472  HIS472     -0.2715
     40  CB       -27.3750   44.7770   56.6770 C.3   472  HIS472      0.0785
     41  CG       -27.5200   43.5520   57.5170 C.ar  472  HIS472      0.0821
     42  ND1      -26.4570   42.9810   58.1810 N.ar  472  HIS472     -0.2267
     43  CD2      -28.5830   42.7420   57.7390 C.ar  472  HIS472      0.1154
     44  CE1      -26.8570   41.8700   58.7740 C.ar  472  HIS472      0.1986
     45  NE2      -28.1430   41.7010   58.5210 N.ar  472  HIS472     -0.2212
     46  N        -24.4080   44.4990   56.2850 N.am  473  SER473     -0.1936
     47  CA       -23.0970   43.9480   56.6220 C.3   473  SER473      0.2055
     48  C        -22.3390   43.5920   55.3560 C.2   473  SER473      0.2643
     49  O        -21.7890   42.4950   55.2240 O.2   473  SER473     -0.2714
     50  CB       -23.2460   42.7120   57.5040 C.3   473  SER473      0.2130
     51  OG       -23.9650   43.0270   58.6840 O.3   473  SER473     -0.2179
     52  N        -22.3330   44.5340   54.4190 N.am  474  TYR474     -0.1973
     53  CA       -21.6450   44.3650   53.1530 C.3   474  TYR474      0.1639
     54  C        -20.1680   44.1040   53.3910 C.2   474  TYR474      0.2290
     55  O        -19.6330   44.4480   54.4420 O.2   474  TYR474     -0.2864
     56  CB       -21.8060   45.6190   52.3010 C.3   474  TYR474      0.0560
     57  CG       -23.2230   45.8630   51.8430 C.ar  474  TYR474     -0.0198
     58  CD1      -24.1860   46.3550   52.7100 C.ar  474  TYR474     -0.0009
     59  CD2      -23.6020   45.5830   50.5390 C.ar  474  TYR474     -0.0009
     60  CE1      -25.4860   46.5620   52.2870 C.ar  474  TYR474      0.0417
     61  CE2      -24.8950   45.7830   50.1100 C.ar  474  TYR474      0.0417
     62  CZ       -25.8340   46.2740   50.9820 C.ar  474  TYR474      0.1957
     63  OH       -27.1150   46.4920   50.5220 O.3   474  TYR474     -0.2866
     64  N        -17.7660   48.0560   50.8270 N.3   479  ILE479     -0.1245
     65  CA       -17.9260   49.2890   51.6080 C.3   479  ILE479      0.1561
     66  C        -16.8480   50.2980   51.2580 C.2   479  ILE479      0.2260
     67  O        -17.1430   51.4220   50.8570 O.2   479  ILE479     -0.2867
     68  CB       -17.8370   49.0520   53.1230 C.3   479  ILE479      0.0252
     69  CG1      -19.0730   48.3150   53.6220 C.3   479  ILE479      0.0019
     70  CG2      -17.7310   50.3840   53.8410 C.3   479  ILE479      0.0019
     71  CD1      -18.9910   47.9720   55.0800 C.3   479  ILE479      0.0001
     72  N        -17.5150   52.0320   47.8030 N.3   482  VAL482     -0.1231
     73  CA       -18.5630   53.0470   47.7860 C.3   482  VAL482      0.1692
     74  C        -18.1050   54.3590   48.4330 C.2   482  VAL482      0.2591
     75  O        -18.2310   55.4420   47.8380 O.2   482  VAL482     -0.2718
     76  CB       -19.8260   52.5660   48.5040 C.3   482  VAL482      0.0266
     77  CG1      -20.8560   53.6720   48.5170 C.3   482  VAL482      0.0020
     78  CG2      -20.3740   51.3430   47.8100 C.3   482  VAL482      0.0020
     79  N        -17.5640   54.2500   49.6470 N.am  483  ALA483     -0.1980
     80  CA       -17.0880   55.4100   50.3900 C.3   483  ALA483      0.1597
     81  C        -16.0250   56.1640   49.6060 C.2   483  ALA483      0.2287
     82  O        -16.0780   57.3900   49.5030 O.2   483  ALA483     -0.2864
     83  CB       -16.5350   54.9800   51.7280 C.3   483  ALA483      0.0319
     84  N        -17.8070   58.1350   46.7750 N.3   486  LEU486     -0.1245
     85  CA       -18.5510   59.3180   47.2070 C.3   486  LEU486      0.1561
     86  C        -17.5980   60.4440   47.5770 C.2   486  LEU486      0.2260
     87  O        -17.8640   61.6180   47.3180 O.2   486  LEU486     -0.2867
     88  CB       -19.4270   58.9920   48.4150 C.3   486  LEU486      0.0270
     89  CG       -20.2700   57.7220   48.3580 C.3   486  LEU486      0.0019
     90  CD1      -21.2810   57.7900   49.4780 C.3   486  LEU486      0.0001
     91  CD2      -20.9690   57.5930   47.0180 C.3   486  LEU486      0.0001
     92  N        -22.8140   58.9770   54.2170 N.3   494  LEU494     -0.1245
     93  CA       -23.8200   58.0420   54.7220 C.3   494  LEU494      0.1561
     94  C        -24.9470   58.6750   55.5320 C.2   494  LEU494      0.2260
     95  O        -26.1270   58.4770   55.2390 O.2   494  LEU494     -0.2867
     96  CB       -23.1280   56.9700   55.5680 C.3   494  LEU494      0.0270
     97  CG       -23.9420   56.1670   56.5840 C.3   494  LEU494      0.0019
     98  CD1      -25.1560   55.5330   55.9380 C.3   494  LEU494      0.0001
     99  CD2      -23.0420   55.1020   57.1980 C.3   494  LEU494      0.0001
    100  N        -29.2000   58.9170   54.9210 N.3   498  ARG498     -0.1245
    101  CA       -30.1300   58.3000   55.8600 C.3   498  ARG498      0.1563
    102  C        -31.1760   59.3310   56.2650 C.2   498  ARG498      0.2260
    103  O        -32.3810   59.0650   56.2260 O.2   498  ARG498     -0.2867
    104  CB       -29.3830   57.7970   57.0930 C.3   498  ARG498      0.0307
    105  CG       -30.2450   57.0870   58.1320 C.3   498  ARG498      0.0489
    106  CD       -29.3490   56.4570   59.1820 C.3   498  ARG498      0.2205
    107  NE       -28.3770   57.4210   59.7110 N.pl3 498  ARG498     -0.0865
    108  CZ       -27.0560   57.2230   59.7480 C.cat 498  ARG498      0.5346
    109  NH1      -26.5400   56.0910   59.2890 N.pl3 498  ARG498      0.1354
    110  NH2      -26.2430   58.1550   60.2290 N.pl3 498  ARG498      0.1354
    111  N        -34.3240   50.2840   55.1190 N.3   525  TRP525     -0.1241
    112  CA       -32.9700   50.3610   55.6290 C.3   525  TRP525      0.1605
    113  C        -32.7410   51.5780   56.5170 C.2   525  TRP525      0.2264
    114  O        -31.9130   51.5430   57.4230 O.2   525  TRP525     -0.2867
    115  CB       -31.9610   50.3940   54.4780 C.3   525  TRP525      0.0550
    116  CG       -32.0780   51.5920   53.5420 C.ar  525  TRP525      0.0003
    117  CD1      -32.7750   51.6510   52.3670 C.ar  525  TRP525      0.0946
    118  CD2      -31.4480   52.8740   53.6930 C.ar  525  TRP525      0.0152
    119  NE1      -32.6100   52.8790   51.7760 N.ar  525  TRP525     -0.2442
    120  CE2      -31.8010   53.6480   52.5690 C.ar  525  TRP525      0.0810
    121  CE3      -30.6200   53.4400   54.6680 C.ar  525  TRP525      0.0012
    122  CZ2      -31.3550   54.9530   52.3930 C.ar  525  TRP525      0.0191
    123  CZ3      -30.1790   54.7340   54.4890 C.ar  525  TRP525      0.0001
    124  CH2      -30.5470   55.4770   53.3600 C.ar  525  TRP525      0.0015
@<TRIPOS>BOND
     1    84    85    1
     2     9    10    1
     3    91    89    1
     4    85    86    1
     5    85    88    1
     6    87    86    2
     7    73    72    1
     8    73    74    1
     9    73    76    1
    10    78    76    1
    11    10    11    1
    12    10    13    1
    13    75    74    2
    14     1     2    1
    15    14    13    1
    16    14    15    1
    17     3     4    2
    18     3     2    1
    19    89    88    1
    20    89    90    1
    21    74    79   am
    22    76    77    1
    23    11    12    2
    24    11    20   am
    25    20    21    1
    26     2     5    1
    27    22    23    2
    28    22    21    1
    29    15    16    1
    30    82    81    2
    31    34    33    1
    32    81    80    1
    33    79    80    1
    34     5     6    1
    35    21    24    1
    36    61    59   ar
    37    61    62   ar
    38    16    17    2
    39    80    83    1
    40    24    25    1
    41    63    62    1
    42    59    57   ar
    43     6     8    1
    44     6     7    1
    45    33    35    1
    46    33    32    1
    47    64    65    1
    48    67    66    2
    49    62    60   ar
    50    25    26    1
    51    66    65    1
    52    17    18    1
    53    17    19    1
    54    26    27    1
    55    65    68    1
    56    32    29    1
    57   119   117   ar
    58   119   120   ar
    59    57    56    1
    60    57    58   ar
    61    60    58   ar
    62    56    53    1
    63   117   116   ar
    64   122   120   ar
    65   122   124   ar
    66   120   118   ar
    67    28    29    1
    68    29    30    1
    69    68    69    1
    70    68    70    1
    71    53    54    1
    72    53    52    1
    73   124   123   ar
    74    54    55    2
    75   116   118   ar
    76   116   115    1
    77    69    71    1
    78   118   121   ar
    79    30    31    2
    80    30    36   am
    81    92    93    1
    82    52    48   am
    83   115   112    1
    84   123   121   ar
    85    36    37    1
    86    93    94    1
    87    93    96    1
    88   100   101    1
    89   111   112    1
    90    49    48    2
    91    95    94    2
    92    39    38    2
    93    48    47    1
    94    37    38    1
    95    37    40    1
    96    96    97    1
    97   112   113    1
    98    38    46   am
    99   101   102    1
   100   101   104    1
   101    98    97    1
   102   103   102    2
   103    46    47    1
   104   113   114    2
   105    97    99    1
   106    47    50    1
   107    40    41    1
   108   104   105    1
   109    50    51    1
   110    41    43   ar
   111    41    42   ar
   112    43    45   ar
   113   105   106    1
   114    42    44   ar
   115    45    44   ar
   116   106   107    1
   117   109   108    1
   118   107   108    2
   119   108   110    1
