@<TRIPOS>MOLECULE
tmp/4jtzB00.pdb
 160 155 0 0 0
SMALL
GASTEIGER

@<TRIPOS>ATOM
      1  N        -22.7560  -16.1320  -11.9290 N.3   416  LEU416     -0.1245
      2  CA       -22.6600  -17.1930  -12.9110 C.3   416  LEU416      0.1561
      3  C        -22.9340  -16.6880  -14.3270 C.2   416  LEU416      0.2260
      4  O        -22.1230  -16.8650  -15.2280 O.2   416  LEU416     -0.2867
      5  CB       -23.6530  -18.2960  -12.5530 C.3   416  LEU416      0.0270
      6  CG       -23.6130  -19.5590  -13.4070 C.3   416  LEU416      0.0019
      7  CD1      -22.2060  -20.1630  -13.3640 C.3   416  LEU416      0.0001
      8  CD2      -24.6430  -20.5480  -12.8810 C.3   416  LEU416      0.0001
      9  N        -20.1840  -14.4590  -15.8560 N.3   419  ARG419     -0.1231
     10  CA       -18.9960  -15.2120  -16.2370 C.3   419  ARG419      0.1694
     11  C        -19.2610  -16.0600  -17.4810 C.2   419  ARG419      0.2591
     12  O        -18.6570  -15.8580  -18.5360 O.2   419  ARG419     -0.2718
     13  CB       -18.5590  -16.1200  -15.0760 C.3   419  ARG419      0.0321
     14  CG       -18.0830  -15.3820  -13.8270 C.3   419  ARG419      0.0489
     15  CD       -17.8620  -16.3190  -12.6360 C.3   419  ARG419      0.2205
     16  NE       -16.7830  -17.2850  -12.8490 N.pl3 419  ARG419     -0.0865
     17  CZ       -16.3990  -18.1890  -11.9510 C.cat 419  ARG419      0.5346
     18  NH1      -16.9980  -18.2580  -10.7720 N.pl3 419  ARG419      0.1354
     19  NH2      -15.4190  -19.0310  -12.2320 N.pl3 419  ARG419      0.1354
     20  N        -20.1850  -17.0030  -17.3380 N.am  420  MET420     -0.1979
     21  CA       -20.5480  -17.9210  -18.4070 C.3   420  MET420      0.1605
     22  C        -20.8940  -17.2450  -19.7260 C.2   420  MET420      0.2287
     23  O        -20.2230  -17.4650  -20.7360 O.2   420  MET420     -0.2864
     24  CB       -21.7230  -18.8030  -17.9530 C.3   420  MET420      0.0413
     25  CG       -22.2010  -19.8350  -18.9730 C.3   420  MET420      0.0598
     26  SD       -23.3200  -21.0960  -18.2530 S.3   420  MET420     -0.1393
     27  CE       -24.9320  -20.3500  -18.4950 C.3   420  MET420      0.0692
     28  N        -15.4330  -19.3630   -7.8170 N.3   471  LEU471     -0.1231
     29  CA       -16.7650  -19.5900   -7.2780 C.3   471  LEU471      0.1693
     30  C        -17.4880  -20.6570   -8.0900 C.2   471  LEU471      0.2592
     31  O        -17.2110  -20.8590   -9.2750 O.2   471  LEU471     -0.2718
     32  CB       -17.5850  -18.2950   -7.2870 C.3   471  LEU471      0.0284
     33  CG       -17.1950  -17.1610   -6.3320 C.3   471  LEU471      0.0019
     34  CD1      -17.9760  -15.9160   -6.6890 C.3   471  LEU471      0.0001
     35  CD2      -17.4680  -17.5610   -4.8920 C.3   471  LEU471      0.0001
     36  N        -18.4130  -21.3410   -7.4330 N.am  472  HIS472     -0.1962
     37  CA       -19.2080  -22.3890   -8.0510 C.3   472  HIS472      0.1787
     38  C        -20.2450  -22.8340   -7.0290 C.2   472  HIS472      0.2621
     39  O        -20.3890  -22.2100   -5.9770 O.2   472  HIS472     -0.2715
     40  CB       -18.3220  -23.5700   -8.4690 C.3   472  HIS472      0.0785
     41  CG       -17.6630  -24.2830   -7.3250 C.ar  472  HIS472      0.0821
     42  ND1      -18.3750  -24.8990   -6.3170 N.ar  472  HIS472     -0.2267
     43  CD2      -16.3560  -24.5110   -7.0510 C.ar  472  HIS472      0.1154
     44  CE1      -17.5370  -25.4750   -5.4740 C.ar  472  HIS472      0.1986
     45  NE2      -16.3050  -25.2550   -5.8970 N.ar  472  HIS472     -0.2212
     46  N        -20.9690  -23.9050   -7.3350 N.am  473  SER473     -0.1936
     47  CA       -21.9870  -24.4150   -6.4220 C.3   473  SER473      0.2055
     48  C        -22.9390  -23.2990   -6.0010 C.2   473  SER473      0.2643
     49  O        -23.1410  -23.0570   -4.8080 O.2   473  SER473     -0.2714
     50  CB       -21.3290  -25.0150   -5.1740 C.3   473  SER473      0.2130
     51  OG       -20.4550  -26.0820   -5.5090 O.3   473  SER473     -0.2179
     52  N        -23.5220  -22.6200   -6.9830 N.am  474  TYR474     -0.1973
     53  CA       -24.4530  -21.5340   -6.7030 C.3   474  TYR474      0.1639
     54  C        -25.7040  -22.0540   -6.0150 C.2   474  TYR474      0.2290
     55  O        -26.0130  -23.2410   -6.0870 O.2   474  TYR474     -0.2864
     56  CB       -24.8370  -20.8170   -7.9990 C.3   474  TYR474      0.0560
     57  CG       -23.6940  -20.0600   -8.6340 C.ar  474  TYR474     -0.0198
     58  CD1      -22.7090  -20.7220   -9.3490 C.ar  474  TYR474     -0.0009
     59  CD2      -23.5900  -18.6820   -8.4950 C.ar  474  TYR474     -0.0009
     60  CE1      -21.6520  -20.0320   -9.9100 C.ar  474  TYR474      0.0417
     61  CE2      -22.5370  -17.9850   -9.0500 C.ar  474  TYR474      0.0417
     62  CZ       -21.5700  -18.6650   -9.7580 C.ar  474  TYR474      0.1957
     63  OH       -20.5220  -17.9730  -10.3240 O.3   474  TYR474     -0.2866
     64  N        -29.3390  -20.3240   -9.5350 N.3   479  ILE479     -0.1245
     65  CA       -29.2320  -21.1100  -10.7540 C.3   479  ILE479      0.1561
     66  C        -30.5330  -21.0650  -11.5460 C.2   479  ILE479      0.2260
     67  O        -30.5260  -20.7670  -12.7410 O.2   479  ILE479     -0.2867
     68  CB       -28.8780  -22.5750  -10.4310 C.3   479  ILE479      0.0252
     69  CG1      -27.5200  -22.6280   -9.7300 C.3   479  ILE479      0.0019
     70  CG2      -28.8400  -23.4000  -11.7070 C.3   479  ILE479      0.0019
     71  CD1      -27.0710  -24.0180   -9.3810 C.3   479  ILE479      0.0001
     72  N        -31.2880  -17.8870  -13.3510 N.3   482  VAL482     -0.1231
     73  CA       -30.3830  -17.7470  -14.4880 C.3   482  VAL482      0.1692
     74  C        -30.8910  -18.5160  -15.7020 C.2   482  VAL482      0.2591
     75  O        -30.9640  -17.9790  -16.8100 O.2   482  VAL482     -0.2718
     76  CB       -28.9770  -18.2750  -14.1600 C.3   482  VAL482      0.0266
     77  CG1      -28.0340  -17.9670  -15.3160 C.3   482  VAL482      0.0020
     78  CG2      -28.4780  -17.6660  -12.8680 C.3   482  VAL482      0.0020
     79  N        -31.2340  -19.7810  -15.4690 N.am  483  ALA483     -0.1980
     80  CA       -31.7240  -20.6820  -16.5050 C.3   483  ALA483      0.1597
     81  C        -33.0660  -20.2610  -17.0970 C.2   483  ALA483      0.2287
     82  O        -33.2070  -20.1730  -18.3210 O.2   483  ALA483     -0.2864
     83  CB       -31.8260  -22.0910  -15.9440 C.3   483  ALA483      0.0319
     84  N        -32.6930  -17.7370  -19.4700 N.3   486  LEU486     -0.1231
     85  CA       -32.0380  -18.2560  -20.6590 C.3   486  LEU486      0.1693
     86  C        -33.0810  -18.8580  -21.5810 C.2   486  LEU486      0.2591
     87  O        -32.9810  -18.7570  -22.8060 O.2   486  LEU486     -0.2718
     88  CB       -31.0030  -19.3110  -20.2740 C.3   486  LEU486      0.0284
     89  CG       -29.8560  -18.7530  -19.4340 C.3   486  LEU486      0.0019
     90  CD1      -28.6410  -19.6520  -19.5540 C.3   486  LEU486      0.0001
     91  CD2      -29.5160  -17.3590  -19.9220 C.3   486  LEU486      0.0001
     92  N        -34.0950  -19.4680  -20.9770 N.am  487  ARG487     -0.1980
     93  CA       -35.1740  -20.0880  -21.7300 C.3   487  ARG487      0.1597
     94  C        -36.0990  -19.0040  -22.2900 C.2   487  ARG487      0.2287
     95  O        -36.5220  -19.0740  -23.4440 O.2   487  ARG487     -0.2864
     96  CB       -35.9500  -21.0500  -20.8210 C.3   487  ARG487      0.0334
     97  CG       -36.5780  -22.2240  -21.5490 C.3   487  ARG487      0.0492
     98  CD       -36.6110  -23.4560  -20.6630 C.3   487  ARG487      0.2205
     99  NE       -36.9220  -24.6620  -21.4270 N.pl3 487  ARG487     -0.0865
    100  CZ       -38.1440  -25.0200  -21.8160 C.cat 487  ARG487      0.5346
    101  NH1      -39.1950  -24.2670  -21.5090 N.pl3 487  ARG487      0.1354
    102  NH2      -38.3140  -26.1290  -22.5290 N.pl3 487  ARG487      0.1354
    103  N        -31.3420  -18.3090  -24.7110 N.3   491  VAL491     -0.1245
    104  CA       -29.8940  -18.2290  -24.6080 C.3   491  VAL491      0.1561
    105  C        -29.3550  -19.6560  -24.6260 C.2   491  VAL491      0.2260
    106  O        -29.8400  -20.5130  -23.8820 O.2   491  VAL491     -0.2867
    107  CB       -29.4810  -17.5580  -23.2860 C.3   491  VAL491      0.0252
    108  CG1      -28.0010  -17.2200  -23.3070 C.3   491  VAL491      0.0019
    109  CG2      -30.3280  -16.3240  -23.0540 C.3   491  VAL491      0.0019
    110  N        -27.7040  -23.0610  -23.8110 N.3   493  PRO493     -0.2102
    111  CA       -27.4440  -23.6570  -22.4870 C.3   493  PRO493      0.1504
    112  C        -25.9570  -23.7430  -22.0880 C.2   493  PRO493      0.2576
    113  O        -25.0620  -23.4740  -22.8970 O.2   493  PRO493     -0.2718
    114  CB       -28.0890  -25.0460  -22.5970 C.3   493  PRO493      0.0282
    115  CG       -29.1560  -24.8650  -23.6680 C.3   493  PRO493      0.0208
    116  CD       -28.4580  -23.9870  -24.6770 C.3   493  PRO493      0.0893
    117  N        -25.7110  -24.1200  -20.8320 N.am  494  LEU494     -0.1966
    118  CA       -24.3570  -24.2760  -20.2940 C.3   494  LEU494      0.1728
    119  C        -23.4780  -25.0270  -21.2940 C.2   494  LEU494      0.2616
    120  O        -22.3210  -24.6660  -21.5440 O.2   494  LEU494     -0.2715
    121  CB       -24.4180  -25.0620  -18.9870 C.3   494  LEU494      0.0311
    122  CG       -23.0820  -25.5710  -18.4500 C.3   494  LEU494      0.0022
    123  CD1      -22.1860  -24.3960  -18.0990 C.3   494  LEU494      0.0001
    124  CD2      -23.3340  -26.4480  -17.2310 C.3   494  LEU494      0.0001
    125  N        -24.0610  -26.0850  -21.8460 N.am  495  ARG495     -0.1977
    126  CA       -23.4350  -26.9450  -22.8430 C.3   495  ARG495      0.1597
    127  C        -22.6590  -26.1240  -23.8750 C.2   495  ARG495      0.2287
    128  O        -21.4560  -26.3160  -24.0780 O.2   495  ARG495     -0.2864
    129  CB       -24.5370  -27.7360  -23.5590 C.3   495  ARG495      0.0334
    130  CG       -24.3810  -29.2440  -23.5600 C.3   495  ARG495      0.0492
    131  CD       -25.6430  -29.8880  -24.1150 C.3   495  ARG495      0.2205
    132  NE       -26.8030  -29.6150  -23.2690 N.pl3 495  ARG495     -0.0865
    133  CZ       -27.0080  -30.1780  -22.0810 C.cat 495  ARG495      0.5346
    134  NH1      -26.1320  -31.0520  -21.5960 N.pl3 495  ARG495      0.1354
    135  NH2      -28.0800  -29.8670  -21.3710 N.pl3 495  ARG495      0.1354
    136  N        -19.7130  -23.3230  -22.7180 N.3   498  ARG498     -0.1245
    137  CA       -18.5260  -24.0380  -22.2550 C.3   498  ARG498      0.1563
    138  C        -17.6110  -24.2870  -23.4520 C.2   498  ARG498      0.2260
    139  O        -16.4070  -24.0350  -23.4040 O.2   498  ARG498     -0.2867
    140  CB       -18.9390  -25.3670  -21.6260 C.3   498  ARG498      0.0307
    141  CG       -17.7880  -26.3030  -21.3280 C.3   498  ARG498      0.0489
    142  CD       -18.3060  -27.5490  -20.6470 C.3   498  ARG498      0.2205
    143  NE       -18.7920  -27.2540  -19.3030 N.pl3 498  ARG498     -0.0865
    144  CZ       -19.8540  -27.8260  -18.7420 C.cat 498  ARG498      0.5346
    145  NH1      -20.5570  -28.7310  -19.4090 N.pl3 498  ARG498      0.1354
    146  NH2      -20.2130  -27.4900  -17.5090 N.pl3 498  ARG498      0.1354
    147  N        -12.9190  -22.0500  -16.0790 N.3   525  TRP525     -0.1241
    148  CA       -14.0870  -22.8950  -15.8510 C.3   525  TRP525      0.1605
    149  C        -14.3870  -23.6410  -17.1490 C.2   525  TRP525      0.2264
    150  O        -15.2940  -24.4730  -17.2040 O.2   525  TRP525     -0.2867
    151  CB       -15.3100  -22.0620  -15.4420 C.3   525  TRP525      0.0550
    152  CG       -15.5740  -20.8580  -16.3140 C.ar  525  TRP525      0.0003
    153  CD1      -15.0850  -19.5980  -16.1330 C.ar  525  TRP525      0.0946
    154  CD2      -16.3680  -20.8110  -17.5120 C.ar  525  TRP525      0.0152
    155  NE1      -15.5230  -18.7700  -17.1390 N.ar  525  TRP525     -0.2442
    156  CE2      -16.3100  -19.4900  -17.9980 C.ar  525  TRP525      0.0810
    157  CE3      -17.1180  -21.7560  -18.2180 C.ar  525  TRP525      0.0012
    158  CZ2      -16.9740  -19.0900  -19.1560 C.ar  525  TRP525      0.0191
    159  CZ3      -17.7770  -21.3560  -19.3690 C.ar  525  TRP525      0.0001
    160  CH2      -17.7000  -20.0350  -19.8260 C.ar  525  TRP525      0.0015
@<TRIPOS>BOND
     1   103   104    1
     2   116   110    1
     3   116   115    1
     4   105   104    1
     5   105   106    2
     6   104   107    1
     7   131   130    1
     8   131   132    1
     9   128   127    2
    10   127   126    1
    11   110   111    1
    12   115   114    1
    13   130   129    1
    14   129   126    1
    15   138   139    2
    16   138   137    1
    17    95    94    2
    18   108   107    1
    19   107   109    1
    20   132   133    2
    21   113   112    2
    22   126   125    1
    23    87    86    2
    24   136   137    1
    25   114   111    1
    26   102   100    1
    27   111   112    1
    28    94    93    1
    29   137   140    1
    30   112   117   am
    31   133   134    1
    32   133   135    1
    33   125   119   am
    34   100   101    1
    35   100    99    2
    36    93    92    1
    37    93    96    1
    38   140   141    1
    39    86    92   am
    40    86    85    1
    41    97    96    1
    42    97    98    1
    43   120   119    2
    44    99    98    1
    45   141   142    1
    46   119   118    1
    47   117   118    1
    48    23    22    2
    49    85    88    1
    50    85    84    1
    51   142   143    1
    52   118   121    1
    53    88    89    1
    54    91    89    1
    55   160   159   ar
    56   160   158   ar
    57    22    21    1
    58    90    89    1
    59   145   144    1
    60   159   157   ar
    61   143   144    2
    62   158   156   ar
    63   121   122    1
    64    25    26    1
    65    25    24    1
    66   144   146    1
    67    12    11    2
    68    27    26    1
    69   122   123    1
    70   122   124    1
    71    21    24    1
    72    21    20    1
    73    82    81    2
    74   157   154   ar
    75   156   154   ar
    76   156   155   ar
    77   154   152   ar
    78    11    20   am
    79    11    10    1
    80   150   149    2
    81   149   148    1
    82   155   153   ar
    83    81    80    1
    84    75    74    2
    85    80    83    1
    86    80    79    1
    87   152   153   ar
    88   152   151    1
    89    10     9    1
    90    10    13    1
    91   147   148    1
    92   148   151    1
    93    74    79   am
    94    74    73    1
    95    77    76    1
    96     4     3    2
    97    13    14    1
    98    73    76    1
    99    73    72    1
   100     3     2    1
   101    76    78    1
   102    14    15    1
   103     6     7    1
   104     6     8    1
   105     6     5    1
   106     2     5    1
   107     2     1    1
   108    16    15    1
   109    16    17    2
   110    67    66    2
   111    19    17    1
   112    17    18    1
   113    70    68    1
   114    66    65    1
   115    65    68    1
   116    65    64    1
   117    68    69    1
   118    63    62    1
   119    60    62   ar
   120    60    58   ar
   121    62    61   ar
   122    69    71    1
   123    58    57   ar
   124    31    30    2
   125    61    59   ar
   126    57    59   ar
   127    57    56    1
   128    40    37    1
   129    40    41    1
   130    30    36   am
   131    30    29    1
   132    37    36    1
   133    37    38    1
   134    56    53    1
   135    28    29    1
   136    46    38   am
   137    46    47    1
   138    41    43   ar
   139    41    42   ar
   140    32    29    1
   141    32    33    1
   142    43    45   ar
   143    38    39    2
   144    52    53    1
   145    52    48   am
   146    53    54    1
   147    34    33    1
   148    47    48    1
   149    47    50    1
   150    33    35    1
   151    42    44   ar
   152    55    54    2
   153    48    49    2
   154    45    44   ar
   155    51    50    1
