@<TRIPOS>MOLECULE
tmp/4ju0E01.pdb
 159 153 0 0 0
SMALL
GASTEIGER

@<TRIPOS>ATOM
      1  N        -20.8440  -60.4580  -75.1780 N.3    91  TYR91      -0.1241
      2  CA       -19.7590  -59.5850  -75.6140 C.3    91  TYR91       0.1605
      3  C        -19.1410  -58.8780  -74.4090 C.2    91  TYR91       0.2264
      4  O        -19.7810  -58.0350  -73.7870 O.2    91  TYR91      -0.2867
      5  CB       -20.2460  -58.5650  -76.6430 C.3    91  TYR91       0.0534
      6  CG       -19.1250  -57.9340  -77.4390 C.ar   91  TYR91      -0.0201
      7  CD1      -18.9110  -58.2820  -78.7650 C.ar   91  TYR91      -0.0009
      8  CD2      -18.2720  -57.0020  -76.8590 C.ar   91  TYR91      -0.0009
      9  CE1      -17.8860  -57.7120  -79.4940 C.ar   91  TYR91       0.0417
     10  CE2      -17.2450  -56.4280  -77.5780 C.ar   91  TYR91       0.0417
     11  CZ       -17.0570  -56.7860  -78.8950 C.ar   91  TYR91       0.1957
     12  OH       -16.0360  -56.2160  -79.6190 O.3    91  TYR91      -0.2866
     13  N        -24.7280  -55.8630  -90.2580 N.3   130  LYS130     -0.1231
     14  CA       -23.3840  -56.4110  -90.1050 C.3   130  LYS130      0.1693
     15  C        -22.9740  -56.5160  -88.6390 C.2   130  LYS130      0.2593
     16  O        -21.9220  -57.0670  -88.3180 O.2   130  LYS130     -0.2718
     17  CB       -22.3660  -55.5660  -90.8750 C.3   130  LYS130      0.0285
     18  CG       -22.6610  -55.4540  -92.3610 C.3   130  LYS130      0.0035
     19  CD       -21.5500  -54.7250  -93.0970 C.3   130  LYS130      0.0206
     20  CE       -21.8340  -54.6790  -94.5840 C.3   130  LYS130      0.1093
     21  NZ       -22.1440  -56.0360  -95.1110 N.3   130  LYS130     -0.1314
     22  N        -23.8120  -55.9890  -87.7530 N.am  131  GLY131     -0.1942
     23  CA       -23.4950  -55.9520  -86.3380 C.3   131  GLY131      0.2014
     24  C        -23.6400  -57.2920  -85.6450 C.2   131  GLY131      0.2639
     25  O        -24.5530  -57.4890  -84.8400 O.2   131  GLY131     -0.2714
     26  N        -22.7370  -58.2150  -85.9550 N.am  132  VAL132     -0.1963
     27  CA       -22.7270  -59.5220  -85.3040 C.3   132  VAL132      0.1727
     28  C        -21.3210  -59.8810  -84.8290 C.2   132  VAL132      0.2617
     29  O        -20.3450  -59.2510  -85.2280 O.2   132  VAL132     -0.2715
     30  CB       -23.2550  -60.6300  -86.2360 C.3   132  VAL132      0.0290
     31  CG1      -24.7340  -60.4210  -86.5250 C.3   132  VAL132      0.0023
     32  CG2      -22.4450  -60.6710  -87.5260 C.3   132  VAL132      0.0023
     33  N        -21.2230  -60.8960  -83.9770 N.am  133  THR133     -0.1937
     34  CA       -19.9430  -61.2730  -83.3900 C.3   133  THR133      0.2028
     35  C        -19.8790  -62.7600  -83.0770 C.2   133  THR133      0.2642
     36  O        -20.9050  -63.4110  -82.9030 O.2   133  THR133     -0.2714
     37  CB       -19.6620  -60.4770  -82.0980 C.3   133  THR133      0.1808
     38  OG1      -18.5730  -61.0800  -81.3890 O.3   133  THR133     -0.2208
     39  CG2      -20.8870  -60.4700  -81.2020 C.3   133  THR133      0.0379
     40  N        -18.6630  -63.2910  -83.0070 N.am  134  ALA134     -0.1977
     41  CA       -18.4540  -64.6920  -82.6680 C.3   134  ALA134      0.1597
     42  C        -18.6710  -64.9090  -81.1760 C.2   134  ALA134      0.2287
     43  O        -18.8570  -66.0380  -80.7220 O.2   134  ALA134     -0.2864
     44  CB       -17.0590  -65.1300  -83.0690 C.3   134  ALA134      0.0319
     45  N        -22.3680  -66.3910  -86.4340 N.3   142  LYS142     -0.1245
     46  CA       -22.1990  -65.1500  -85.6840 C.3   142  LYS142      0.1561
     47  C        -23.5200  -64.3990  -85.5350 C.2   142  LYS142      0.2260
     48  O        -24.1960  -64.1140  -86.5230 O.2   142  LYS142     -0.2867
     49  CB       -21.1580  -64.2550  -86.3640 C.3   142  LYS142      0.0271
     50  CG       -19.7730  -64.8850  -86.4820 C.3   142  LYS142      0.0035
     51  CD       -18.7770  -63.9420  -87.1460 C.3   142  LYS142      0.0206
     52  CE       -19.2120  -63.5970  -88.5600 C.3   142  LYS142      0.1093
     53  NZ       -18.3070  -62.5930  -89.1910 N.3   142  LYS142     -0.1314
     54  N        -26.2940  -53.3540  -83.4160 N.3   150  TRP150     -0.1241
     55  CA       -24.9410  -52.8260  -83.5320 C.3   150  TRP150      0.1605
     56  C        -24.7500  -52.0940  -84.8650 C.2   150  TRP150      0.2264
     57  O        -24.3590  -52.7010  -85.8660 O.2   150  TRP150     -0.2867
     58  CB       -23.9320  -53.9670  -83.3990 C.3   150  TRP150      0.0550
     59  CG       -22.5180  -53.5200  -83.2610 C.ar  150  TRP150      0.0003
     60  CD1      -22.0600  -52.2390  -83.2790 C.ar  150  TRP150      0.0946
     61  CD2      -21.3690  -54.3570  -83.0850 C.ar  150  TRP150      0.0152
     62  NE1      -20.6940  -52.2220  -83.1260 N.ar  150  TRP150     -0.2442
     63  CE2      -20.2450  -53.5110  -83.0030 C.ar  150  TRP150      0.0810
     64  CE3      -21.1820  -55.7390  -82.9870 C.ar  150  TRP150      0.0012
     65  CZ2      -18.9500  -54.0000  -82.8270 C.ar  150  TRP150      0.0191
     66  CZ3      -19.8970  -56.2260  -82.8100 C.ar  150  TRP150      0.0001
     67  CH2      -18.7980  -55.3580  -82.7330 C.ar  150  TRP150      0.0015
     68  N        -23.1170  -50.0720  -87.7340 N.3   152  VAL152     -0.1245
     69  CA       -21.8010  -49.7820  -88.2970 C.3   152  VAL152      0.1561
     70  C        -21.9360  -48.8510  -89.4970 C.2   152  VAL152      0.2260
     71  O        -23.0450  -48.5670  -89.9500 O.2   152  VAL152     -0.2867
     72  CB       -21.0690  -51.0640  -88.7240 C.3   152  VAL152      0.0252
     73  CG1      -20.8240  -51.9540  -87.5150 C.3   152  VAL152      0.0019
     74  CG2      -21.8650  -51.8020  -89.7810 C.3   152  VAL152      0.0019
     75  N        -19.7080  -49.2710  -77.7650 N.3   180  HIS180     -0.1241
     76  CA       -18.6470  -50.1860  -78.1730 C.3   180  HIS180      0.1621
     77  C        -17.2740  -49.5210  -78.1840 C.2   180  HIS180      0.2264
     78  O        -17.1040  -48.4260  -78.7220 O.2   180  HIS180     -0.2867
     79  CB       -18.9540  -50.7940  -79.5430 C.3   180  HIS180      0.0745
     80  CG       -17.8820  -51.7070  -80.0510 C.ar  180  HIS180      0.0817
     81  ND1      -16.9660  -51.3200  -81.0040 N.ar  180  HIS180     -0.2268
     82  CD2      -17.5730  -52.9850  -79.7280 C.ar  180  HIS180      0.1154
     83  CE1      -16.1410  -52.3230  -81.2520 C.ar  180  HIS180      0.1986
     84  NE2      -16.4880  -53.3440  -80.4920 N.ar  180  HIS180     -0.2212
     85  N        -13.6600  -50.2840  -79.5670 N.3   182  PRO182     -0.2102
     86  CA       -12.7940  -51.1090  -80.4140 C.3   182  PRO182      0.1504
     87  C        -11.4170  -51.3030  -79.7890 C.2   182  PRO182      0.2576
     88  O        -10.9940  -50.5020  -78.9540 O.2   182  PRO182     -0.2718
     89  CB       -12.6810  -50.2850  -81.7000 C.3   182  PRO182      0.0282
     90  CG       -13.8890  -49.4240  -81.7040 C.3   182  PRO182      0.0208
     91  CD       -14.1300  -49.0810  -80.2700 C.3   182  PRO182      0.0893
     92  N        -10.7260  -52.3610  -80.1990 N.am  183  SER183     -0.1953
     93  CA        -9.4150  -52.6760  -79.6490 C.3   183  SER183      0.1924
     94  C         -8.3140  -51.8140  -80.2630 C.2   183  SER183      0.2314
     95  O         -7.3840  -51.3950  -79.5740 O.2   183  SER183     -0.2863
     96  CB        -9.0970  -54.1610  -79.8480 C.3   183  SER183      0.2116
     97  OG        -9.1870  -54.5230  -81.2170 O.3   183  SER183     -0.2180
     98  N         -9.6000  -50.7780  -86.1920 N.3   187  ASP187     -0.1239
     99  CA       -10.9630  -51.2870  -86.0940 C.3   187  ASP187      0.1674
    100  C        -11.9570  -50.1390  -85.9570 C.2   187  ASP187      0.2266
    101  O        -13.0830  -50.2210  -86.4470 O.2   187  ASP187     -0.2867
    102  CB       -11.1060  -52.2510  -84.9110 C.3   187  ASP187      0.1410
    103  CG       -10.4800  -53.6060  -85.1800 C.2   187  ASP187      0.3668
    104  OD1       -9.5920  -53.6940  -86.0550 O.co2 187  ASP187     -0.2456
    105  OD2      -10.8760  -54.5840  -84.5120 O.co2 187  ASP187     -0.2456
    106  N        -12.5100  -48.7900  -89.3840 N.3   190  SER190     -0.1202
    107  CA       -13.0940  -49.8750  -90.1600 C.3   190  SER190      0.2020
    108  C        -14.5680  -50.0590  -89.8070 C.2   190  SER190      0.2618
    109  O        -15.3540  -50.5570  -90.6140 O.2   190  SER190     -0.2717
    110  CB       -12.3240  -51.1780  -89.9270 C.3   190  SER190      0.2103
    111  OG       -12.9150  -52.2560  -90.6320 O.3   190  SER190     -0.2182
    112  N        -14.9390  -49.6420  -88.5990 N.am  191  LEU191     -0.1979
    113  CA       -16.3030  -49.8120  -88.1080 C.3   191  LEU191      0.1596
    114  C        -17.1600  -48.5560  -88.2430 C.2   191  LEU191      0.2287
    115  O        -18.3480  -48.6450  -88.5480 O.2   191  LEU191     -0.2864
    116  CB       -16.2910  -50.2670  -86.6470 C.3   191  LEU191      0.0297
    117  CG       -16.0620  -51.7520  -86.3700 C.3   191  LEU191      0.0022
    118  CD1      -15.6870  -51.9660  -84.9150 C.3   191  LEU191      0.0001
    119  CD2      -17.2950  -52.5630  -86.7350 C.3   191  LEU191      0.0001
    120  N         -7.9120  -60.9640  -74.0370 N.3   219  LYS219     -0.1245
    121  CA        -8.9830  -61.6300  -74.7710 C.3   219  LYS219      0.1561
    122  C        -10.0250  -62.2850  -73.8690 C.2   219  LYS219      0.2260
    123  O         -9.6960  -63.0850  -72.9920 O.2   219  LYS219     -0.2867
    124  CB        -8.4180  -62.6650  -75.7470 C.3   219  LYS219      0.0271
    125  CG        -7.7770  -62.0630  -76.9850 C.3   219  LYS219      0.0035
    126  CD        -8.1120  -62.8700  -78.2270 C.3   219  LYS219      0.0206
    127  CE        -7.7020  -62.1210  -79.4790 C.3   219  LYS219      0.1093
    128  NZ        -8.1660  -62.8260  -80.7000 N.3   219  LYS219     -0.1314
    129  N        -12.7270  -64.3400  -77.4580 N.3   222  GLU222     -0.1231
    130  CA       -12.1260  -63.9110  -78.7180 C.3   222  GLU222      0.1699
    131  C        -12.0920  -62.3940  -78.9140 C.2   222  GLU222      0.2592
    132  O        -11.6340  -61.9130  -79.9470 O.2   222  GLU222     -0.2718
    133  CB       -12.8290  -64.5840  -79.9020 C.3   222  GLU222      0.0402
    134  CG       -11.8820  -65.4140  -80.7740 C.3   222  GLU222      0.1161
    135  CD       -11.1310  -66.4470  -79.9360 C.2   222  GLU222      0.3649
    136  OE1       -9.8710  -66.3940  -79.9140 O.co2 222  GLU222     -0.2457
    137  OE2      -11.8130  -67.2780  -79.2760 O.co2 222  GLU222     -0.2457
    138  N        -12.5630  -61.6450  -77.9240 N.am  223  GLN223     -0.1966
    139  CA       -12.6790  -60.1960  -78.0650 C.3   223  GLN223      0.1733
    140  C        -11.6020  -59.4210  -77.3140 C.2   223  GLN223      0.2616
    141  O        -11.4450  -59.5720  -76.1030 O.2   223  GLN223     -0.2715
    142  CB       -14.0680  -59.7280  -77.6220 C.3   223  GLN223      0.0408
    143  CG       -15.2040  -60.4020  -78.3650 C.3   223  GLN223      0.0908
    144  CD       -15.1340  -60.1760  -79.8640 C.2   223  GLN223      0.2608
    145  OE1      -15.5690  -61.0190  -80.6490 O.2   223  GLN223     -0.2717
    146  NE2      -14.5790  -59.0370  -80.2690 N.am  223  GLN223     -0.0878
    147  N        -10.8600  -58.5960  -78.0430 N.am  224  GLU224     -0.1963
    148  CA        -9.8970  -57.6990  -77.4230 C.3   224  GLU224      0.1733
    149  C        -10.5510  -56.3410  -77.2160 C.2   224  GLU224      0.2616
    150  O         -9.9790  -55.4460  -76.5960 O.2   224  GLU224     -0.2715
    151  CB        -8.6410  -57.5670  -78.2830 C.3   224  GLU224      0.0429
    152  CG        -7.7950  -58.8280  -78.3420 C.3   224  GLU224      0.1163
    153  CD        -6.5820  -58.6670  -79.2370 C.2   224  GLU224      0.3649
    154  OE1       -6.7060  -58.0090  -80.2950 O.co2 224  GLU224     -0.2457
    155  OE2       -5.5060  -59.2000  -78.8840 O.co2 224  GLU224     -0.2457
    156  N        -11.7590  -56.2000  -77.7490 N.am  225  GLY225     -0.1955
    157  CA       -12.5420  -54.9950  -77.5600 C.3   225  GLY225      0.1869
    158  C        -13.5300  -55.1790  -76.4260 C.2   225  GLY225      0.2309
    159  O        -13.6950  -56.2820  -75.9090 O.2   225  GLY225     -0.2863
@<TRIPOS>BOND
     1    21    20    1
     2    20    19    1
     3    19    18    1
     4    18    17    1
     5    17    14    1
     6   111   110    1
     7   109   108    2
     8    13    14    1
     9   107   110    1
    10   107   108    1
    11   107   106    1
    12    14    15    1
    13    71    70    2
    14   108   112   am
    15    74    72    1
    16    70    69    1
    17    53    52    1
    18    72    69    1
    19    72    73    1
    20    15    16    2
    21    15    22   am
    22   112   113    1
    23    52    51    1
    24   115   114    2
    25    69    68    1
    26   114   113    1
    27   113   116    1
    28    22    23    1
    29    32    30    1
    30    51    50    1
    31   119   117    1
    32   116   117    1
    33    31    30    1
    34    48    47    2
    35    50    49    1
    36   101   100    2
    37    45    46    1
    38   117   118    1
    39    49    46    1
    40    23    24    1
    41    30    27    1
    42    98    99    1
    43    99   100    1
    44    99   102    1
    45   104   103   ar
    46    26    24   am
    47    26    27    1
    48    57    56    2
    49    46    47    1
    50    24    25    2
    51    27    28    1
    52    29    28    2
    53   103   102    1
    54   103   105   ar
    55    56    55    1
    56    28    33   am
    57    33    34    1
    58    55    54    1
    59    55    58    1
    60    58    59    1
    61    34    35    1
    62    34    37    1
    63    60    59   ar
    64    60    62   ar
    65    59    61   ar
    66    62    63   ar
    67    61    63   ar
    68    61    64   ar
    69    35    40   am
    70    35    36    2
    71    44    41    1
    72    40    41    1
    73    63    65   ar
    74    64    66   ar
    75    65    67   ar
    76    66    67   ar
    77    41    42    1
    78    37    38    1
    79    37    39    1
    80    90    89    1
    81    90    91    1
    82    89    86    1
    83    83    81   ar
    84    83    84   ar
    85    97    96    1
    86    42    43    2
    87    81    80   ar
    88   134   135    1
    89   134   133    1
    90   128   127    1
    91   145   144    2
    92    84    82   ar
    93    86    87    1
    94    86    85    1
    95   154   153   ar
    96    91    85    1
    97   146   144   am
    98    94    93    1
    99    94    95    2
   100    92    87   am
   101    92    93    1
   102    80    82   ar
   103    80    79    1
   104   132   131    2
   105   135   136   ar
   106   135   137   ar
   107   133   130    1
   108   144   143    1
   109    96    93    1
   110    87    88    2
   111    12    11    1
   112    79    76    1
   113     9    11   ar
   114     9     7   ar
   115   127   126    1
   116   153   155   ar
   117   153   152    1
   118   131   130    1
   119   131   138   am
   120    11    10   ar
   121     7     6   ar
   122    78    77    2
   123   130   129    1
   124   143   142    1
   125   152   151    1
   126   151   148    1
   127   126   125    1
   128    77    76    1
   129    76    75    1
   130   139   138    1
   131   139   142    1
   132   139   140    1
   133   147   148    1
   134   147   140   am
   135   156   157    1
   136   156   149   am
   137    10     8   ar
   138   157   158    1
   139     6     8   ar
   140     6     5    1
   141   148   149    1
   142   140   141    2
   143   149   150    2
   144   125   124    1
   145     5     2    1
   146   158   159    2
   147   124   121    1
   148     2     1    1
   149     2     3    1
   150   121   120    1
   151   121   122    1
   152     3     4    2
   153   122   123    2
