@<TRIPOS>MOLECULE
tmp/4ju1A00.pdb
 165 161 0 0 0
SMALL
GASTEIGER

@<TRIPOS>ATOM
      1  N        -25.2350   47.8840   48.3150 N.3   416  LEU416     -0.1245
      2  CA       -25.2460   48.9040   49.3410 C.3   416  LEU416      0.1561
      3  C        -25.4050   50.2860   48.6980 C.2   416  LEU416      0.2260
      4  O        -26.2770   51.0670   49.0750 O.2   416  LEU416     -0.2867
      5  CB       -23.9380   48.8050   50.1230 C.3   416  LEU416      0.0270
      6  CG       -23.5060   49.8810   51.1030 C.3   416  LEU416      0.0019
      7  CD1      -24.5660   50.0810   52.1700 C.3   416  LEU416      0.0001
      8  CD2      -22.1810   49.4560   51.7060 C.3   416  LEU416      0.0001
      9  N        -28.9550   51.0070   47.1110 N.3   419  ARG419     -0.1231
     10  CA       -29.9540   51.1780   48.1670 C.3   419  ARG419      0.1694
     11  C        -29.7850   52.4530   48.9890 C.2   419  ARG419      0.2591
     12  O        -30.7750   53.1090   49.3000 O.2   419  ARG419     -0.2718
     13  CB       -29.9440   49.9780   49.1080 C.3   419  ARG419      0.0321
     14  CG       -30.5070   48.7120   48.5070 C.3   419  ARG419      0.0489
     15  CD       -30.2160   47.5190   49.3890 C.3   419  ARG419      0.2205
     16  NE       -30.9410   47.5750   50.6500 N.pl3 419  ARG419     -0.0865
     17  CZ       -30.5470   46.9320   51.7430 C.cat 419  ARG419      0.5346
     18  NH1      -29.4400   46.2050   51.7010 N.pl3 419  ARG419      0.1354
     19  NH2      -31.2490   47.0070   52.8680 N.pl3 419  ARG419      0.1354
     20  N        -28.5450   52.8040   49.3350 N.am  420  MET420     -0.1979
     21  CA       -28.2770   54.0040   50.1350 C.3   420  MET420      0.1605
     22  C        -28.3350   55.3170   49.3560 C.2   420  MET420      0.2287
     23  O        -28.9630   56.2840   49.7900 O.2   420  MET420     -0.2864
     24  CB       -26.9080   53.8860   50.8100 C.3   420  MET420      0.0413
     25  CG       -26.4400   55.1390   51.5660 C.3   420  MET420      0.0598
     26  SD       -24.7870   54.8940   52.3010 S.3   420  MET420     -0.1393
     27  CE       -23.7870   56.0260   51.3850 C.3   420  MET420      0.0692
     28  N        -30.2890   42.8680   53.2610 N.3   471  LEU471     -0.1231
     29  CA       -28.8660   42.5750   53.3200 C.3   471  LEU471      0.1693
     30  C        -28.1640   43.6210   54.1780 C.2   471  LEU471      0.2592
     31  O        -28.5250   44.8050   54.1760 O.2   471  LEU471     -0.2718
     32  CB       -28.2470   42.5500   51.9230 C.3   471  LEU471      0.0284
     33  CG       -28.7380   41.4470   50.9890 C.3   471  LEU471      0.0019
     34  CD1      -27.8150   41.3600   49.7820 C.3   471  LEU471      0.0001
     35  CD2      -28.7610   40.1180   51.7320 C.3   471  LEU471      0.0001
     36  N        -27.1610   43.1630   54.9160 N.am  472  HIS472     -0.1962
     37  CA       -26.3800   44.0140   55.8020 C.3   472  HIS472      0.1787
     38  C        -25.0340   43.3200   55.9720 C.2   472  HIS472      0.2621
     39  O        -24.8440   42.1980   55.4980 O.2   472  HIS472     -0.2715
     40  CB       -27.0670   44.1160   57.1540 C.3   472  HIS472      0.0785
     41  CG       -27.0860   42.8190   57.8950 C.ar  472  HIS472      0.0821
     42  ND1      -25.9670   42.3050   58.5140 N.ar  472  HIS472     -0.2267
     43  CD2      -28.0570   41.8860   58.0340 C.ar  472  HIS472      0.1154
     44  CE1      -26.2460   41.1080   58.9990 C.ar  472  HIS472      0.1986
     45  NE2      -27.5070   40.8290   58.7200 N.ar  472  HIS472     -0.2212
     46  N        -24.1120   43.9810   56.6570 N.am  473  SER473     -0.1936
     47  CA       -22.7940   43.4140   56.8660 C.3   473  SER473      0.2055
     48  C        -22.1600   43.0220   55.5440 C.2   473  SER473      0.2643
     49  O        -21.7840   41.8660   55.3430 O.2   473  SER473     -0.2714
     50  CB       -22.8740   42.1830   57.7710 C.3   473  SER473      0.2130
     51  OG       -23.0590   42.5610   59.1250 O.3   473  SER473     -0.2179
     52  N        -22.0510   43.9850   54.6370 N.am  474  TYR474     -0.1973
     53  CA       -21.4400   43.7270   53.3450 C.3   474  TYR474      0.1639
     54  C        -19.9640   43.3760   53.5290 C.2   474  TYR474      0.2290
     55  O        -19.4160   43.5160   54.6230 O.2   474  TYR474     -0.2864
     56  CB       -21.5970   44.9500   52.4400 C.3   474  TYR474      0.0560
     57  CG       -23.0280   45.1920   52.0050 C.ar  474  TYR474     -0.0198
     58  CD1      -23.9020   45.9260   52.7890 C.ar  474  TYR474     -0.0009
     59  CD2      -23.5070   44.6660   50.8130 C.ar  474  TYR474     -0.0009
     60  CE1      -25.2160   46.1340   52.3940 C.ar  474  TYR474      0.0417
     61  CE2      -24.8130   44.8640   50.4130 C.ar  474  TYR474      0.0417
     62  CZ       -25.6660   45.6020   51.2010 C.ar  474  TYR474      0.1957
     63  OH       -26.9570   45.8370   50.7740 O.3   474  TYR474     -0.2866
     64  N        -17.2160   47.3710   50.8940 N.3   479  ILE479     -0.1245
     65  CA       -17.2960   48.5440   51.7470 C.3   479  ILE479      0.1561
     66  C        -16.2010   49.5390   51.4190 C.2   479  ILE479      0.2260
     67  O        -16.4590   50.7350   51.2770 O.2   479  ILE479     -0.2867
     68  CB       -17.2040   48.1700   53.2290 C.3   479  ILE479      0.0252
     69  CG1      -18.5020   47.4830   53.6560 C.3   479  ILE479      0.0019
     70  CG2      -16.9460   49.4200   54.0650 C.3   479  ILE479      0.0019
     71  CD1      -18.4610   46.9470   55.0550 C.3   479  ILE479      0.0001
     72  N        -16.8890   51.0920   47.8070 N.3   482  VAL482     -0.1231
     73  CA       -17.9830   52.0470   47.8510 C.3   482  VAL482      0.1692
     74  C        -17.5670   53.3620   48.4910 C.2   482  VAL482      0.2591
     75  O        -17.8060   54.4440   47.9330 O.2   482  VAL482     -0.2718
     76  CB       -19.1650   51.5070   48.6350 C.3   482  VAL482      0.0266
     77  CG1      -20.2470   52.5810   48.7220 C.3   482  VAL482      0.0020
     78  CG2      -19.6930   50.2500   47.9670 C.3   482  VAL482      0.0020
     79  N        -16.9350   53.2610   49.6580 N.am  483  ALA483     -0.1980
     80  CA       -16.4810   54.4380   50.3970 C.3   483  ALA483      0.1597
     81  C        -15.5680   55.3440   49.5630 C.2   483  ALA483      0.2287
     82  O        -15.8110   56.5470   49.4520 O.2   483  ALA483     -0.2864
     83  CB       -15.7710   53.9990   51.6560 C.3   483  ALA483      0.0319
     84  N        -17.5450   57.0630   46.8630 N.3   486  LEU486     -0.1231
     85  CA       -18.4080   58.0750   47.4600 C.3   486  LEU486      0.1693
     86  C        -17.6000   59.2970   47.8970 C.2   486  LEU486      0.2591
     87  O        -18.0370   60.4410   47.7410 O.2   486  LEU486     -0.2718
     88  CB       -19.1570   57.4830   48.6510 C.3   486  LEU486      0.0284
     89  CG       -20.0730   56.3220   48.2830 C.3   486  LEU486      0.0019
     90  CD1      -20.7510   55.8130   49.5300 C.3   486  LEU486      0.0001
     91  CD2      -21.0960   56.7740   47.2580 C.3   486  LEU486      0.0001
     92  N        -16.4140   59.0390   48.4370 N.am  487  ARG487     -0.1980
     93  CA       -15.5270   60.0960   48.8950 C.3   487  ARG487      0.1597
     94  C        -14.9330   60.8600   47.7170 C.2   487  ARG487      0.2287
     95  O        -14.8580   62.0800   47.7350 O.2   487  ARG487     -0.2864
     96  CB       -14.4190   59.4930   49.7570 C.3   487  ARG487      0.0334
     97  CG       -13.3790   60.4860   50.2110 C.3   487  ARG487      0.0492
     98  CD       -12.5620   59.9590   51.3830 C.3   487  ARG487      0.2205
     99  NE       -11.9600   58.6460   51.1460 N.pl3 487  ARG487     -0.0865
    100  CZ       -12.5290   57.4840   51.4670 C.cat 487  ARG487      0.5346
    101  NH1      -13.7280   57.4570   52.0420 N.pl3 487  ARG487      0.1354
    102  NH2      -11.8850   56.3470   51.2320 N.pl3 487  ARG487      0.1354
    103  N        -19.6740   62.6960   47.5970 N.3   491  VAL491     -0.1231
    104  CA       -21.0310   62.3080   47.9520 C.3   491  VAL491      0.1678
    105  C        -21.2020   62.5350   49.4580 C.2   491  VAL491      0.2434
    106  O        -20.2630   62.3270   50.2300 O.2   491  VAL491     -0.2733
    107  CB       -21.2800   60.8100   47.6170 C.3   491  VAL491      0.0265
    108  CG1      -22.6570   60.3840   48.0930 C.3   491  VAL491      0.0020
    109  CG2      -21.1670   60.5890   46.1230 C.3   491  VAL491      0.0020
    110  N        -22.3860   63.0010   49.8920 N.am  492  PRO492     -0.2718
    111  CA       -22.6140   63.2310   51.3250 C.3   492  PRO492      0.1520
    112  C        -22.3600   61.9650   52.1660 C.2   492  PRO492      0.2440
    113  O        -22.4970   60.8400   51.6730 O.2   492  PRO492     -0.2731
    114  CB       -24.0680   63.6770   51.3660 C.3   492  PRO492      0.0310
    115  CG       -24.1870   64.4580   50.0950 C.3   492  PRO492      0.0237
    116  CD       -23.4870   63.5640   49.0920 C.3   492  PRO492      0.0939
    117  N        -21.9740   62.1360   53.4460 N.am  493  PRO493     -0.2716
    118  CA       -21.7070   60.9930   54.3260 C.3   493  PRO493      0.1536
    119  C        -22.9260   60.1100   54.6070 C.2   493  PRO493      0.2598
    120  O        -24.0730   60.5200   54.3850 O.2   493  PRO493     -0.2715
    121  CB       -21.1480   61.6530   55.5860 C.3   493  PRO493      0.0310
    122  CG       -21.8210   62.9960   55.5960 C.3   493  PRO493      0.0237
    123  CD       -21.7260   63.4090   54.1490 C.3   493  PRO493      0.0939
    124  N        -22.6620   58.8950   55.0890 N.am  494  LEU494     -0.1978
    125  CA       -23.7140   57.9340   55.4080 C.3   494  LEU494      0.1596
    126  C        -24.8570   58.5480   56.2160 C.2   494  LEU494      0.2287
    127  O        -26.0360   58.3790   55.8800 O.2   494  LEU494     -0.2864
    128  CB       -23.1290   56.7560   56.1860 C.3   494  LEU494      0.0297
    129  CG       -24.1630   55.7980   56.7800 C.3   494  LEU494      0.0022
    130  CD1      -25.0870   55.3250   55.6860 C.3   494  LEU494      0.0001
    131  CD2      -23.4750   54.6210   57.4340 C.3   494  LEU494      0.0001
    132  N        -28.7880   58.5470   55.6840 N.3   498  ARG498     -0.1245
    133  CA       -29.7110   57.8750   56.5870 C.3   498  ARG498      0.1563
    134  C        -30.8560   58.8430   56.9300 C.2   498  ARG498      0.2260
    135  O        -32.0380   58.4720   56.9060 O.2   498  ARG498     -0.2867
    136  CB       -28.9790   57.4220   57.8510 C.3   498  ARG498      0.0307
    137  CG       -29.8650   56.7430   58.9010 C.3   498  ARG498      0.0489
    138  CD       -29.0360   56.2570   60.0930 C.3   498  ARG498      0.2205
    139  NE       -28.0670   57.2660   60.5340 N.pl3 498  ARG498     -0.0865
    140  CZ       -26.7580   57.0420   60.6610 C.cat 498  ARG498      0.5346
    141  NH1      -26.2680   55.8400   60.3810 N.pl3 498  ARG498      0.1354
    142  NH2      -25.9390   58.0130   61.0610 N.pl3 498  ARG498      0.1354
    143  N        -33.9670   49.8050   55.7020 N.3   525  TRP525     -0.1241
    144  CA       -32.6370   49.9220   56.2840 C.3   525  TRP525      0.1605
    145  C        -32.4010   51.1480   57.1740 C.2   525  TRP525      0.2264
    146  O        -31.5410   51.1290   58.0550 O.2   525  TRP525     -0.2867
    147  CB       -31.5770   49.9050   55.1770 C.3   525  TRP525      0.0550
    148  CG       -31.7050   51.0190   54.1770 C.ar  525  TRP525      0.0003
    149  CD1      -32.4200   51.0050   53.0100 C.ar  525  TRP525      0.0946
    150  CD2      -31.0920   52.3150   54.2570 C.ar  525  TRP525      0.0152
    151  NE1      -32.2860   52.2100   52.3590 N.ar  525  TRP525     -0.2442
    152  CE2      -31.4790   53.0320   53.1020 C.ar  525  TRP525      0.0810
    153  CE3      -30.2530   52.9380   55.1940 C.ar  525  TRP525      0.0012
    154  CZ2      -31.0560   54.3380   52.8600 C.ar  525  TRP525      0.0191
    155  CZ3      -29.8360   54.2300   54.9500 C.ar  525  TRP525      0.0001
    156  CH2      -30.2380   54.9190   53.7920 C.ar  525  TRP525      0.0015
    157  N        -37.0410   47.8510   62.5530 N.3   530  LYS530     -0.1245
    158  CA       -37.2730   47.2630   61.2450 C.3   530  LYS530      0.1561
    159  C        -38.6600   46.6390   61.2700 C.2   530  LYS530      0.2260
    160  O        -39.1360   46.2230   62.3260 O.2   530  LYS530     -0.2867
    161  CB       -36.2490   46.1620   60.9730 C.3   530  LYS530      0.0271
    162  CG       -34.8260   46.4970   61.3620 C.3   530  LYS530      0.0035
    163  CD       -34.2020   47.4940   60.4120 C.3   530  LYS530      0.0206
    164  CE       -32.7400   47.7320   60.7630 C.3   530  LYS530      0.1093
    165  NZ       -32.0880   48.6870   59.8310 N.3   530  LYS530     -0.1314
@<TRIPOS>BOND
     1   109   107    1
     2    84    85    1
     3     9    10    1
     4    91    89    1
     5    85    86    1
     6    85    88    1
     7   103   104    1
     8   107   104    1
     9   107   108    1
    10    94    95    2
    11    94    93    1
    12    87    86    2
    13    72    73    1
    14    73    74    1
    15    73    76    1
    16    86    92   am
    17    75    74    2
    18   104   105    1
    19    78    76    1
    20    10    11    1
    21    10    13    1
    22    89    88    1
    23    89    90    1
    24     1     2    1
    25    92    93    1
    26    74    79   am
    27    14    13    1
    28    14    15    1
    29    76    77    1
    30     3     4    2
    31     3     2    1
    32    93    96    1
    33    11    12    2
    34    11    20   am
    35   116   110    1
    36   116   115    1
    37    20    21    1
    38     2     5    1
    39    22    23    2
    40    22    21    1
    41    15    16    1
    42    82    81    2
    43   105   110   am
    44   105   106    2
    45    81    80    1
    46    79    80    1
    47    96    97    1
    48    34    33    1
    49   110   111    1
    50   115   114    1
    51     5     6    1
    52    21    24    1
    53    97    98    1
    54    80    83    1
    55    61    59   ar
    56    61    62   ar
    57    16    17    2
    58    63    62    1
    59    24    25    1
    60    59    57   ar
    61    64    65    1
    62    33    35    1
    63    33    32    1
    64     6     8    1
    65     6     7    1
    66    99    98    1
    67    99   100    2
    68    62    60   ar
    69   102   100    1
    70    67    66    2
    71   111   114    1
    72   111   112    1
    73    27    26    1
    74    66    65    1
    75   100   101    1
    76    25    26    1
    77   113   112    2
    78    18    17    1
    79    17    19    1
    80    65    68    1
    81    32    29    1
    82    57    56    1
    83    57    58   ar
    84   112   117   am
    85   151   149   ar
    86   151   152   ar
    87    60    58   ar
    88    56    53    1
    89   154   152   ar
    90   154   156   ar
    91   149   148   ar
    92   152   150   ar
    93    68    69    1
    94    68    70    1
    95    28    29    1
    96    29    30    1
    97    53    54    1
    98    53    52    1
    99   117   123    1
   100   117   118    1
   101    54    55    2
   102    69    71    1
   103   156   155   ar
   104   123   122    1
   105    31    30    2
   106   148   150   ar
   107   148   147    1
   108    30    36   am
   109   150   153   ar
   110   118   119    1
   111   118   121    1
   112   120   119    2
   113   119   124   am
   114    52    48   am
   115    36    37    1
   116   155   153   ar
   117   124   125    1
   118   147   144    1
   119    49    48    2
   120   125   128    1
   121   125   126    1
   122    39    38    2
   123    48    47    1
   124   121   122    1
   125   132   133    1
   126   130   129    1
   127   143   144    1
   128    37    38    1
   129    37    40    1
   130   127   126    2
   131    38    46   am
   132   128   129    1
   133   144   145    1
   134   133   134    1
   135   133   136    1
   136    46    47    1
   137   129   131    1
   138    47    50    1
   139   135   134    2
   140    40    41    1
   141   145   146    2
   142    50    51    1
   143   136   137    1
   144    41    43   ar
   145    41    42   ar
   146    43    45   ar
   147    42    44   ar
   148    45    44   ar
   149   137   138    1
   150   165   164    1
   151   138   139    1
   152   141   140    1
   153   163   164    1
   154   163   162    1
   155   139   140    2
   156   140   142    1
   157   161   158    1
   158   161   162    1
   159   158   159    1
   160   158   157    1
   161   159   160    2
