@<TRIPOS>MOLECULE
tmp/4ju2B00.pdb
 170 169 0 0 0
SMALL
GASTEIGER

@<TRIPOS>ATOM
      1  N        -21.7290  -15.0330  -13.9720 N.3   416  LEU416     -0.1245
      2  CA       -21.6520  -16.0010  -15.0500 C.3   416  LEU416      0.1561
      3  C        -21.9560  -15.3660  -16.4090 C.2   416  LEU416      0.2260
      4  O        -21.1950  -15.5450  -17.3620 O.2   416  LEU416     -0.2867
      5  CB       -22.6260  -17.1630  -14.7820 C.3   416  LEU416      0.0270
      6  CG       -22.8460  -18.2400  -15.8580 C.3   416  LEU416      0.0019
      7  CD1      -21.5260  -18.8900  -16.2560 C.3   416  LEU416      0.0001
      8  CD2      -23.8030  -19.2800  -15.3240 C.3   416  LEU416      0.0001
      9  N        -19.2670  -12.8820  -18.0170 N.3   419  ARG419     -0.1231
     10  CA       -18.0470  -13.5740  -18.4280 C.3   419  ARG419      0.1694
     11  C        -18.2030  -14.4320  -19.6880 C.2   419  ARG419      0.2591
     12  O        -17.3990  -14.3350  -20.6190 O.2   419  ARG419     -0.2718
     13  CB       -17.5410  -14.4480  -17.2850 C.3   419  ARG419      0.0321
     14  CG       -17.2050  -13.6820  -16.0320 C.3   419  ARG419      0.0489
     15  CD       -16.8580  -14.6370  -14.9160 C.3   419  ARG419      0.2205
     16  NE       -15.7480  -15.5040  -15.2910 N.pl3 419  ARG419     -0.0865
     17  CZ       -15.3020  -16.5110  -14.5480 C.cat 419  ARG419      0.5346
     18  NH1      -15.8730  -16.7850  -13.3820 N.pl3 419  ARG419      0.1354
     19  NH2      -14.2820  -17.2450  -14.9730 N.pl3 419  ARG419      0.1354
     20  N        -19.2310  -15.2700  -19.7210 N.am  420  MET420     -0.1979
     21  CA       -19.4500  -16.1340  -20.8670 C.3   420  MET420      0.1605
     22  C        -19.9810  -15.4300  -22.1120 C.2   420  MET420      0.2287
     23  O        -19.7040  -15.8550  -23.2330 O.2   420  MET420     -0.2864
     24  CB       -20.4110  -17.2600  -20.4930 C.3   420  MET420      0.0413
     25  CG       -20.8410  -18.1130  -21.6790 C.3   420  MET420      0.0598
     26  SD       -22.0490  -19.3700  -21.2410 S.3   420  MET420     -0.1393
     27  CE       -23.5740  -18.4800  -21.5050 C.3   420  MET420      0.0692
     28  N        -14.4910  -18.2530  -10.6660 N.3   471  LEU471     -0.1231
     29  CA       -15.7150  -18.6650   -9.9850 C.3   471  LEU471      0.1693
     30  C        -16.4300  -19.7780  -10.7430 C.2   471  LEU471      0.2592
     31  O        -16.3480  -19.8660  -11.9650 O.2   471  LEU471     -0.2718
     32  CB       -16.6600  -17.4730   -9.7770 C.3   471  LEU471      0.0284
     33  CG       -16.2420  -16.4230   -8.7370 C.3   471  LEU471      0.0019
     34  CD1      -17.3690  -15.4100   -8.5510 C.3   471  LEU471      0.0001
     35  CD2      -15.9240  -17.0960   -7.4130 C.3   471  LEU471      0.0001
     36  N        -17.1210  -20.6330   -9.9970 N.am  472  HIS472     -0.1962
     37  CA       -17.8540  -21.7540  -10.5700 C.3   472  HIS472      0.1787
     38  C        -18.9260  -22.1940   -9.5820 C.2   472  HIS472      0.2621
     39  O        -18.9420  -21.7510   -8.4320 O.2   472  HIS472     -0.2715
     40  CB       -16.8980  -22.9180  -10.8630 C.3   472  HIS472      0.0785
     41  CG       -16.1660  -23.4240   -9.6530 C.ar  472  HIS472      0.0821
     42  ND1      -16.7760  -24.1820   -8.6740 N.ar  472  HIS472     -0.2267
     43  CD2      -14.8830  -23.2540   -9.2500 C.ar  472  HIS472      0.1154
     44  CE1      -15.9010  -24.4550   -7.7210 C.ar  472  HIS472      0.1986
     45  NE2      -14.7450  -23.9020   -8.0470 N.ar  472  HIS472     -0.2212
     46  N        -19.8200  -23.0660  -10.0300 N.am  473  SER473     -0.1936
     47  CA       -20.8950  -23.5450   -9.1740 C.3   473  SER473      0.2055
     48  C        -21.7090  -22.3700   -8.6430 C.2   473  SER473      0.2643
     49  O        -21.7490  -22.1170   -7.4340 O.2   473  SER473     -0.2714
     50  CB       -20.3280  -24.3500   -8.0000 C.3   473  SER473      0.2130
     51  OG       -19.6230  -25.4890   -8.4590 O.3   473  SER473     -0.2179
     52  N        -22.3470  -21.6470   -9.5580 N.am  474  TYR474     -0.1973
     53  CA       -23.1780  -20.5100   -9.1860 C.3   474  TYR474      0.1639
     54  C        -24.4830  -21.0510   -8.6090 C.2   474  TYR474      0.2290
     55  O        -24.9220  -22.1380   -8.9820 O.2   474  TYR474     -0.2864
     56  CB       -23.4800  -19.6330  -10.4080 C.3   474  TYR474      0.0560
     57  CG       -22.2700  -18.9520  -11.0240 C.ar  474  TYR474     -0.0198
     58  CD1      -21.4580  -19.6090  -11.9430 C.ar  474  TYR474     -0.0009
     59  CD2      -21.9440  -17.6450  -10.6860 C.ar  474  TYR474     -0.0009
     60  CE1      -20.3570  -18.9800  -12.5070 C.ar  474  TYR474      0.0417
     61  CE2      -20.8490  -17.0080  -11.2410 C.ar  474  TYR474      0.0417
     62  CZ       -20.0590  -17.6780  -12.1510 C.ar  474  TYR474      0.1957
     63  OH       -18.9720  -17.0300  -12.7000 O.3   474  TYR474     -0.2866
     64  N        -28.2420  -19.5220  -11.9880 N.3   479  ILE479     -0.1245
     65  CA       -28.0980  -20.3040  -13.2110 C.3   479  ILE479      0.1561
     66  C        -29.4280  -20.3820  -13.9510 C.2   479  ILE479      0.2260
     67  O        -29.4830  -20.2860  -15.1760 O.2   479  ILE479     -0.2867
     68  CB       -27.6310  -21.7330  -12.8970 C.3   479  ILE479      0.0252
     69  CG1      -26.3460  -21.6850  -12.0710 C.3   479  ILE479      0.0019
     70  CG2      -27.4000  -22.4990  -14.1910 C.3   479  ILE479      0.0019
     71  CD1      -25.8160  -23.0430  -11.6790 C.3   479  ILE479      0.0001
     72  N        -30.1410  -16.8410  -15.5530 N.3   482  VAL482     -0.1231
     73  CA       -29.2670  -16.5960  -16.6910 C.3   482  VAL482      0.1692
     74  C        -29.7390  -17.4030  -17.8920 C.2   482  VAL482      0.2591
     75  O        -29.7070  -16.9230  -19.0260 O.2   482  VAL482     -0.2718
     76  CB       -27.8120  -17.0020  -16.3920 C.3   482  VAL482      0.0266
     77  CG1      -26.9430  -16.7100  -17.5970 C.3   482  VAL482      0.0020
     78  CG2      -27.2950  -16.2650  -15.1730 C.3   482  VAL482      0.0020
     79  N        -30.1780  -18.6330  -17.6350 N.am  483  ALA483     -0.1980
     80  CA       -30.6440  -19.5140  -18.6940 C.3   483  ALA483      0.1597
     81  C        -31.9500  -19.0480  -19.3240 C.2   483  ALA483      0.2287
     82  O        -32.0590  -18.9600  -20.5490 O.2   483  ALA483     -0.2864
     83  CB       -30.7970  -20.9230  -18.1590 C.3   483  ALA483      0.0319
     84  N        -31.0510  -16.0140  -21.5430 N.3   486  LEU486     -0.1231
     85  CA       -30.2930  -16.3670  -22.7390 C.3   486  LEU486      0.1693
     86  C        -31.1590  -17.0220  -23.8060 C.2   486  LEU486      0.2591
     87  O        -30.9300  -16.8430  -25.0040 O.2   486  LEU486     -0.2718
     88  CB       -29.1340  -17.2880  -22.3680 C.3   486  LEU486      0.0284
     89  CG       -28.0090  -16.5460  -21.6520 C.3   486  LEU486      0.0019
     90  CD1      -26.9480  -17.5130  -21.1690 C.3   486  LEU486      0.0001
     91  CD2      -27.4100  -15.5260  -22.6130 C.3   486  LEU486      0.0001
     92  N        -32.1570  -17.7790  -23.3750 N.am  487  ARG487     -0.1980
     93  CA       -33.0430  -18.4260  -24.3260 C.3   487  ARG487      0.1597
     94  C        -34.1650  -17.4740  -24.7370 C.2   487  ARG487      0.2287
     95  O        -34.6650  -17.5450  -25.8570 O.2   487  ARG487     -0.2864
     96  CB       -33.6150  -19.7070  -23.7220 C.3   487  ARG487      0.0334
     97  CG       -32.5680  -20.7870  -23.5200 C.3   487  ARG487      0.0492
     98  CD       -32.9670  -21.7130  -22.3950 C.3   487  ARG487      0.2205
     99  NE       -31.8860  -22.6210  -22.0260 N.pl3 487  ARG487     -0.0865
    100  CZ       -31.8140  -23.2530  -20.8560 C.cat 487  ARG487      0.5346
    101  NH1      -32.7640  -23.0710  -19.9400 N.pl3 487  ARG487      0.1354
    102  NH2      -30.7940  -24.0630  -20.5960 N.pl3 487  ARG487      0.1354
    103  N        -30.0630  -16.3830  -27.5090 N.3   491  VAL491     -0.1231
    104  CA       -28.6060  -16.4390  -27.4480 C.3   491  VAL491      0.1678
    105  C        -28.0850  -17.8590  -27.6880 C.2   491  VAL491      0.2434
    106  O        -28.6420  -18.8270  -27.1650 O.2   491  VAL491     -0.2733
    107  CB       -28.1070  -15.9480  -26.0630 C.3   491  VAL491      0.0265
    108  CG1      -26.5830  -16.0310  -25.9760 C.3   491  VAL491      0.0020
    109  CG2      -28.5880  -14.5260  -25.8270 C.3   491  VAL491      0.0020
    110  N        -27.0100  -18.0010  -28.4870 N.am  492  PRO492     -0.2718
    111  CA       -26.4220  -19.3140  -28.7830 C.3   492  PRO492      0.1520
    112  C        -26.1790  -20.1530  -27.5240 C.2   492  PRO492      0.2440
    113  O        -25.8290  -19.6230  -26.4640 O.2   492  PRO492     -0.2731
    114  CB       -25.1200  -18.9500  -29.4960 C.3   492  PRO492      0.0310
    115  CG       -25.5130  -17.7270  -30.2690 C.3   492  PRO492      0.0237
    116  CD       -26.3210  -16.9380  -29.2440 C.3   492  PRO492      0.0939
    117  N        -26.3690  -21.4790  -27.6300 N.am  493  PRO493     -0.2716
    118  CA       -26.1740  -22.4070  -26.5100 C.3   493  PRO493      0.1536
    119  C        -24.7510  -22.3400  -25.9610 C.2   493  PRO493      0.2598
    120  O        -23.8960  -21.6800  -26.5400 O.2   493  PRO493     -0.2715
    121  CB       -26.4990  -23.7620  -27.1300 C.3   493  PRO493      0.0310
    122  CG       -26.1360  -23.5660  -28.5880 C.3   493  PRO493      0.0237
    123  CD       -26.7000  -22.2060  -28.8680 C.3   493  PRO493      0.0939
    124  N        -24.4980  -23.0230  -24.8510 N.am  494  LEU494     -0.1978
    125  CA       -23.1670  -23.0180  -24.2460 C.3   494  LEU494      0.1596
    126  C        -22.0500  -23.4460  -25.2080 C.2   494  LEU494      0.2287
    127  O        -20.9810  -22.8270  -25.2360 O.2   494  LEU494     -0.2864
    128  CB       -23.1570  -23.9080  -22.9950 C.3   494  LEU494      0.0297
    129  CG       -21.8200  -24.1910  -22.2980 C.3   494  LEU494      0.0022
    130  CD1      -20.9920  -22.9300  -22.2280 C.3   494  LEU494      0.0001
    131  CD2      -22.0740  -24.7430  -20.8980 C.3   494  LEU494      0.0001
    132  N        -20.5010  -20.6920  -27.1630 N.3   497  TRP497     -0.1227
    133  CA       -19.7220  -19.7020  -26.4190 C.3   497  TRP497      0.1737
    134  C        -18.3780  -20.2080  -25.9160 C.2   497  TRP497      0.2595
    135  O        -17.4880  -19.4160  -25.6150 O.2   497  TRP497     -0.2718
    136  CB       -20.5480  -19.1130  -25.2580 C.3   497  TRP497      0.0564
    137  CG       -21.7040  -18.2680  -25.7470 C.ar  497  TRP497      0.0003
    138  CD1      -23.0180  -18.6420  -25.8310 C.ar  497  TRP497      0.0946
    139  CD2      -21.6210  -16.9690  -26.3550 C.ar  497  TRP497      0.0152
    140  NE1      -23.7520  -17.6640  -26.4630 N.ar  497  TRP497     -0.2442
    141  CE2      -22.9190  -16.6280  -26.7940 C.ar  497  TRP497      0.0810
    142  CE3      -20.5760  -16.0660  -26.5760 C.ar  497  TRP497      0.0012
    143  CZ2      -23.1950  -15.4230  -27.4420 C.ar  497  TRP497      0.0191
    144  CZ3      -20.8540  -14.8730  -27.2190 C.ar  497  TRP497      0.0001
    145  CH2      -22.1520  -14.5630  -27.6450 C.ar  497  TRP497      0.0015
    146  N        -18.2240  -21.5240  -25.8290 N.am  498  ARG498     -0.1980
    147  CA       -16.9560  -22.1010  -25.3890 C.3   498  ARG498      0.1597
    148  C        -16.0400  -22.1190  -26.6080 C.2   498  ARG498      0.2287
    149  O        -14.8420  -21.8420  -26.5240 O.2   498  ARG498     -0.2864
    150  CB       -17.1600  -23.5300  -24.8990 C.3   498  ARG498      0.0334
    151  CG       -15.8820  -24.1980  -24.4310 C.3   498  ARG498      0.0492
    152  CD       -15.7890  -24.2000  -22.9180 C.3   498  ARG498      0.2205
    153  NE       -16.8780  -24.9810  -22.3350 N.pl3 498  ARG498     -0.0865
    154  CZ       -17.0510  -25.1700  -21.0300 C.cat 498  ARG498      0.5346
    155  NH1      -16.2050  -24.6340  -20.1580 N.pl3 498  ARG498      0.1354
    156  NH2      -18.0750  -25.8970  -20.5970 N.pl3 498  ARG498      0.1354
    157  N        -11.5000  -20.4580  -18.8070 N.3   525  TRP525     -0.1241
    158  CA       -12.5720  -21.4120  -18.5380 C.3   525  TRP525      0.1605
    159  C        -12.9820  -22.0370  -19.8670 C.2   525  TRP525      0.2264
    160  O        -13.6740  -23.0560  -19.8950 O.2   525  TRP525     -0.2867
    161  CB       -13.7900  -20.7320  -17.8880 C.3   525  TRP525      0.0550
    162  CG       -14.2450  -19.4750  -18.5700 C.ar  525  TRP525      0.0003
    163  CD1      -13.9090  -18.1980  -18.2310 C.ar  525  TRP525      0.0946
    164  CD2      -15.0730  -19.3750  -19.7420 C.ar  525  TRP525      0.0152
    165  NE1      -14.4720  -17.3100  -19.1170 N.ar  525  TRP525     -0.2442
    166  CE2      -15.1900  -18.0050  -20.0530 C.ar  525  TRP525      0.0810
    167  CE3      -15.7220  -20.3100  -20.5570 C.ar  525  TRP525      0.0012
    168  CZ2      -15.9280  -17.5450  -21.1430 C.ar  525  TRP525      0.0191
    169  CZ3      -16.4550  -19.8500  -21.6420 C.ar  525  TRP525      0.0001
    170  CH2      -16.5510  -18.4800  -21.9230 C.ar  525  TRP525      0.0015
@<TRIPOS>BOND
     1   115   114    1
     2   115   116    1
     3   114   111    1
     4   116   110    1
     5   123   122    1
     6   123   117    1
     7   111   110    1
     8   111   112    1
     9   122   121    1
    10   110   105   am
    11   105   104    1
    12   105   106    2
    13   145   143   ar
    14   145   144   ar
    15   117   112   am
    16   117   118    1
    17   112   113    2
    18   103   104    1
    19   104   107    1
    20   143   141   ar
    21   144   142   ar
    22   132   133    1
    23   121   118    1
    24   141   140   ar
    25   141   139   ar
    26   148   149    2
    27   148   147    1
    28   142   139   ar
    29   120   119    2
    30   118   119    1
    31   140   138   ar
    32   133   134    1
    33   133   136    1
    34   139   137   ar
    35   107   108    1
    36   107   109    1
    37   119   124   am
    38   134   146   am
    39   134   135    2
    40    95    94    2
    41   138   137   ar
    42   146   147    1
    43   137   136    1
    44   147   150    1
    45   127   126    2
    46   126   125    1
    47    87    86    2
    48   150   151    1
    49   124   125    1
    50    94    93    1
    51   151   152    1
    52    93    96    1
    53    93    92    1
    54   125   128    1
    55    86    92   am
    56    86    85    1
    57    96    97    1
    58    97    98    1
    59    23    22    2
    60   128   129    1
    61   152   153    1
    62    85    88    1
    63    85    84    1
    64    91    89    1
    65    98    99    1
    66    88    89    1
    67   153   154    2
    68   129   130    1
    69   129   131    1
    70    22    21    1
    71    99   100    2
    72   170   169   ar
    73   170   168   ar
    74    25    26    1
    75    25    24    1
    76    89    90    1
    77   169   167   ar
    78    27    26    1
    79   168   166   ar
    80   154   156    1
    81   154   155    1
    82    21    24    1
    83    21    20    1
    84   100   102    1
    85   100   101    1
    86    12    11    2
    87   167   164   ar
    88    82    81    2
    89   166   164   ar
    90   166   165   ar
    91   160   159    2
    92   159   158    1
    93   164   162   ar
    94    20    11   am
    95    11    10    1
    96    81    80    1
    97   165   163   ar
    98    75    74    2
    99   157   158    1
   100    80    83    1
   101    80    79    1
   102   162   163   ar
   103   162   161    1
   104   158   161    1
   105    10     9    1
   106    10    13    1
   107    74    79   am
   108    74    73    1
   109    77    76    1
   110     4     3    2
   111    13    14    1
   112    73    76    1
   113    73    72    1
   114     3     2    1
   115    76    78    1
   116     7     6    1
   117    14    15    1
   118     6     8    1
   119     6     5    1
   120    16    15    1
   121    16    17    2
   122    67    66    2
   123     2     5    1
   124     2     1    1
   125    19    17    1
   126    17    18    1
   127    70    68    1
   128    66    65    1
   129    65    68    1
   130    65    64    1
   131    68    69    1
   132    63    62    1
   133    60    62   ar
   134    60    58   ar
   135    62    61   ar
   136    69    71    1
   137    31    30    2
   138    58    57   ar
   139    61    59   ar
   140    57    59   ar
   141    57    56    1
   142    40    37    1
   143    40    41    1
   144    30    36   am
   145    30    29    1
   146    28    29    1
   147    37    36    1
   148    37    38    1
   149    56    53    1
   150    46    38   am
   151    46    47    1
   152    29    32    1
   153    32    33    1
   154    41    43   ar
   155    41    42   ar
   156    38    39    2
   157    52    53    1
   158    52    48   am
   159    43    45   ar
   160    53    54    1
   161    47    48    1
   162    47    50    1
   163    55    54    2
   164    33    34    1
   165    33    35    1
   166    42    44   ar
   167    48    49    2
   168    51    50    1
   169    45    44   ar
