@<TRIPOS>MOLECULE
tmp/4ju6A00.pdb
 131 127 0 0 0
SMALL
GASTEIGER

@<TRIPOS>ATOM
      1  N        -25.0950   48.3350   48.2820 N.3   415  LEU415     -0.1245
      2  CA       -25.0440   49.3490   49.3140 C.3   415  LEU415      0.1561
      3  C        -25.2110   50.7540   48.7240 C.2   415  LEU415      0.2260
      4  O        -25.8110   51.6310   49.3460 O.2   415  LEU415     -0.2867
      5  CB       -23.6990   49.2340   50.0420 C.3   415  LEU415      0.0270
      6  CG       -23.3260   50.2940   51.0680 C.3   415  LEU415      0.0019
      7  CD1      -24.3610   50.3260   52.1840 C.3   415  LEU415      0.0001
      8  CD2      -21.9450   49.9780   51.6050 C.3   415  LEU415      0.0001
      9  N        -29.0080   51.4920   47.1130 N.3   418  ARG418     -0.1231
     10  CA       -30.0230   51.6760   48.1460 C.3   418  ARG418      0.1694
     11  C        -29.8270   53.0050   48.8790 C.2   418  ARG418      0.2591
     12  O        -30.7200   53.8550   48.8840 O.2   418  ARG418     -0.2718
     13  CB       -29.9730   50.5190   49.1420 C.3   418  ARG418      0.0321
     14  CG       -30.2230   49.1580   48.5080 C.3   418  ARG418      0.0489
     15  CD       -29.9070   48.0290   49.4650 C.3   418  ARG418      0.2205
     16  NE       -30.8540   47.9520   50.5660 N.pl3 418  ARG418     -0.0865
     17  CZ       -30.6190   47.3350   51.7170 C.cat 418  ARG418      0.5346
     18  NH1      -29.4510   46.7370   51.9290 N.pl3 418  ARG418      0.1354
     19  NH2      -31.5540   47.3190   52.6540 N.pl3 418  ARG418      0.1354
     20  N        -28.6500   53.1830   49.4750 N.am  419  MET419     -0.1979
     21  CA       -28.3280   54.3930   50.2270 C.3   419  MET419      0.1605
     22  C        -28.4040   55.6960   49.4260 C.2   419  MET419      0.2287
     23  O        -28.9380   56.6970   49.9100 O.2   419  MET419     -0.2864
     24  CB       -26.9230   54.2660   50.8360 C.3   419  MET419      0.0413
     25  CG       -26.4570   55.4910   51.6190 C.3   419  MET419      0.0598
     26  SD       -24.7110   55.4080   52.0890 S.3   419  MET419     -0.1393
     27  CE       -24.0100   56.4760   50.9080 C.3   419  MET419      0.0692
     28  N        -30.4250   43.3780   53.2540 N.3   470  LEU470     -0.1231
     29  CA       -28.9840   43.1060   53.2480 C.3   470  LEU470      0.1693
     30  C        -28.2280   44.1220   54.0730 C.2   470  LEU470      0.2592
     31  O        -28.4750   45.3210   53.9760 O.2   470  LEU470     -0.2718
     32  CB       -28.4100   43.1190   51.8330 C.3   470  LEU470      0.0284
     33  CG       -28.8580   42.0230   50.8750 C.3   470  LEU470      0.0019
     34  CD1      -28.0130   42.0770   49.6140 C.3   470  LEU470      0.0001
     35  CD2      -28.7230   40.6830   51.5510 C.3   470  LEU470      0.0001
     36  N        -27.3030   43.6370   54.8850 N.am  471  HIS471     -0.1962
     37  CA       -26.4860   44.5160   55.7030 C.3   471  HIS471      0.1787
     38  C        -25.1500   43.8230   55.8920 C.2   471  HIS471      0.2621
     39  O        -24.9710   42.6880   55.4640 O.2   471  HIS471     -0.2715
     40  CB       -27.1450   44.7520   57.0570 C.3   471  HIS471      0.0785
     41  CG       -27.1350   43.5470   57.9300 C.ar  471  HIS471      0.0821
     42  ND1      -25.9950   43.1050   58.5640 N.ar  471  HIS471     -0.2267
     43  CD2      -28.1010   42.6440   58.2160 C.ar  471  HIS471      0.1154
     44  CE1      -26.2560   41.9780   59.1990 C.ar  471  HIS471      0.1986
     45  NE2      -27.5270   41.6750   59.0030 N.ar  471  HIS471     -0.2212
     46  N        -24.2160   44.5090   56.5390 N.am  472  SER472     -0.1936
     47  CA       -22.8960   43.9540   56.7580 C.3   472  SER472      0.2055
     48  C        -22.2810   43.5070   55.4330 C.2   472  SER472      0.2643
     49  O        -22.1430   42.3170   55.1640 O.2   472  SER472     -0.2714
     50  CB       -22.9760   42.7780   57.7290 C.3   472  SER472      0.2130
     51  OG       -23.3850   43.2230   58.9980 O.3   472  SER472     -0.2179
     52  N        -21.9340   44.4850   54.6060 N.am  473  TYR473     -0.1973
     53  CA       -21.3130   44.2470   53.3110 C.3   473  TYR473      0.1639
     54  C        -19.8210   43.9460   53.5220 C.2   473  TYR473      0.2290
     55  O        -19.3020   44.1400   54.6210 O.2   473  TYR473     -0.2864
     56  CB       -21.5050   45.4750   52.4270 C.3   473  TYR473      0.0560
     57  CG       -22.9380   45.6890   51.9860 C.ar  473  TYR473     -0.0198
     58  CD1      -23.8790   46.2650   52.8330 C.ar  473  TYR473     -0.0009
     59  CD2      -23.3530   45.2960   50.7220 C.ar  473  TYR473     -0.0009
     60  CE1      -25.1990   46.4450   52.4220 C.ar  473  TYR473      0.0417
     61  CE2      -24.6610   45.4690   50.3060 C.ar  473  TYR473      0.0417
     62  CZ       -25.5750   46.0440   51.1510 C.ar  473  TYR473      0.1957
     63  OH       -26.8520   46.2430   50.7010 O.3   473  TYR473     -0.2866
     64  N        -17.1400   47.9210   50.9240 N.3   478  ILE478     -0.1245
     65  CA       -17.2610   49.1500   51.7100 C.3   478  ILE478      0.1561
     66  C        -16.1860   50.1650   51.3370 C.2   478  ILE478      0.2260
     67  O        -16.4810   51.3440   51.1710 O.2   478  ILE478     -0.2867
     68  CB       -17.1710   48.8830   53.2350 C.3   478  ILE478      0.0252
     69  CG1      -18.3880   48.0950   53.7090 C.3   478  ILE478      0.0019
     70  CG2      -17.1150   50.1870   53.9930 C.3   478  ILE478      0.0019
     71  CD1      -18.4480   47.8980   55.2350 C.3   478  ILE478      0.0001
     72  N        -16.9620   51.6740   47.9040 N.3   481  VAL481     -0.1231
     73  CA       -18.0330   52.6680   47.9130 C.3   481  VAL481      0.1692
     74  C        -17.5740   53.9680   48.5990 C.2   481  VAL481      0.2591
     75  O        -17.7570   55.0760   48.0790 O.2   481  VAL481     -0.2718
     76  CB       -19.2980   52.1350   48.6500 C.3   481  VAL481      0.0266
     77  CG1      -20.2380   53.2850   48.9650 C.3   481  VAL481      0.0020
     78  CG2      -19.9940   51.0890   47.7960 C.3   481  VAL481      0.0020
     79  N        -16.9610   53.8190   49.7650 N.am  482  ALA482     -0.1980
     80  CA       -16.4990   54.9700   50.5240 C.3   482  ALA482      0.1597
     81  C        -15.4490   55.7870   49.7840 C.2   482  ALA482      0.2287
     82  O        -15.4840   57.0140   49.8160 O.2   482  ALA482     -0.2864
     83  CB       -15.9540   54.5210   51.8620 C.3   482  ALA482      0.0319
     84  N        -17.2840   57.7990   47.2580 N.3   485  LEU485     -0.1245
     85  CA       -17.9570   58.9770   47.7830 C.3   485  LEU485      0.1561
     86  C        -16.9900   60.1570   47.9760 C.2   485  LEU485      0.2260
     87  O        -17.3020   61.2850   47.5960 O.2   485  LEU485     -0.2867
     88  CB       -18.6720   58.6240   49.0980 C.3   485  LEU485      0.0270
     89  CG       -19.7010   57.4770   49.0360 C.3   485  LEU485      0.0019
     90  CD1      -20.5050   57.4720   50.3180 C.3   485  LEU485      0.0001
     91  CD2      -20.6510   57.6400   47.8550 C.3   485  LEU485      0.0001
     92  N        -22.0100   61.8410   53.0460 N.3   492  PRO492     -0.2102
     93  CA       -21.8130   60.5880   53.7790 C.3   492  PRO492      0.1504
     94  C        -23.1220   59.8760   54.1610 C.2   492  PRO492      0.2575
     95  O        -24.2260   60.3920   53.9470 O.2   492  PRO492     -0.2718
     96  CB       -21.0090   61.0340   55.0030 C.3   492  PRO492      0.0282
     97  CG       -21.5230   62.4280   55.2420 C.3   492  PRO492      0.0208
     98  CD       -21.5430   62.9920   53.8420 C.3   492  PRO492      0.0893
     99  N        -22.9760   58.6830   54.7270 N.am  493  LEU493     -0.1980
    100  CA       -24.1070   57.8730   55.1440 C.3   493  LEU493      0.1596
    101  C        -25.1110   58.6410   56.0090 C.2   493  LEU493      0.2287
    102  O        -26.3240   58.6220   55.7500 O.2   493  LEU493     -0.2864
    103  CB       -23.6030   56.6450   55.9040 C.3   493  LEU493      0.0297
    104  CG       -24.6680   55.7960   56.6010 C.3   493  LEU493      0.0022
    105  CD1      -25.5660   55.1420   55.5610 C.3   493  LEU493      0.0001
    106  CD2      -24.0050   54.7590   57.4820 C.3   493  LEU493      0.0001
    107  N        -28.9490   58.9050   55.3310 N.3   497  ARG497     -0.1245
    108  CA       -29.8790   58.2610   56.2450 C.3   497  ARG497      0.1563
    109  C        -30.9770   59.2300   56.6350 C.2   497  ARG497      0.2260
    110  O        -32.1550   58.8740   56.6530 O.2   497  ARG497     -0.2867
    111  CB       -29.1550   57.7590   57.5040 C.3   497  ARG497      0.0307
    112  CG       -30.0820   57.0880   58.5160 C.3   497  ARG497      0.0489
    113  CD       -29.3240   56.3980   59.6370 C.3   497  ARG497      0.2205
    114  NE       -28.4490   57.3060   60.3750 N.pl3 497  ARG497     -0.0865
    115  CZ       -27.1180   57.2280   60.3650 C.cat 497  ARG497      0.5346
    116  NH1      -26.5210   56.2760   59.6540 N.pl3 497  ARG497      0.1354
    117  NH2      -26.3860   58.0980   61.0530 N.pl3 497  ARG497      0.1354
    118  N        -33.9960   50.0450   55.6450 N.3   524  TRP524     -0.1241
    119  CA       -32.6260   50.0700   56.1650 C.3   524  TRP524      0.1605
    120  C        -32.3530   51.3130   56.9920 C.2   524  TRP524      0.2264
    121  O        -31.4720   51.3230   57.8680 O.2   524  TRP524     -0.2867
    122  CB       -31.6170   50.0520   55.0230 C.3   524  TRP524      0.0550
    123  CG       -31.7930   51.1820   54.0520 C.ar  524  TRP524      0.0003
    124  CD1      -32.5410   51.1680   52.9090 C.ar  524  TRP524      0.0946
    125  CD2      -31.2000   52.4870   54.1240 C.ar  524  TRP524      0.0152
    126  NE1      -32.4470   52.3740   52.2650 N.ar  524  TRP524     -0.2442
    127  CE2      -31.6300   53.2020   52.9890 C.ar  524  TRP524      0.0810
    128  CE3      -30.3470   53.1160   55.0340 C.ar  524  TRP524      0.0012
    129  CZ2      -31.2340   54.5200   52.7400 C.ar  524  TRP524      0.0191
    130  CZ3      -29.9540   54.4210   54.7830 C.ar  524  TRP524      0.0001
    131  CH2      -30.3980   55.1090   53.6440 C.ar  524  TRP524      0.0015
@<TRIPOS>BOND
     1     9    10    1
     2    84    85    1
     3    87    86    2
     4    85    86    1
     5    85    88    1
     6    78    76    1
     7    91    89    1
     8    72    73    1
     9    73    74    1
    10    73    76    1
    11    75    74    2
    12    10    11    1
    13    10    13    1
    14     1     2    1
    15    14    13    1
    16    14    15    1
    17    74    79   am
    18    76    77    1
    19     3     2    1
    20     3     4    2
    21    11    12    2
    22    11    20   am
    23    89    88    1
    24    89    90    1
    25     2     5    1
    26    22    23    2
    27    22    21    1
    28    15    16    1
    29    20    21    1
    30    34    33    1
    31    79    80    1
    32    81    82    2
    33    81    80    1
    34     5     6    1
    35    21    24    1
    36    61    59   ar
    37    61    62   ar
    38    80    83    1
    39    16    17    2
    40    63    62    1
    41    59    57   ar
    42    24    25    1
    43    33    35    1
    44    33    32    1
    45    27    26    1
    46    64    65    1
    47     6     8    1
    48     6     7    1
    49    62    60   ar
    50    67    66    2
    51    66    65    1
    52    25    26    1
    53    65    68    1
    54    17    18    1
    55    17    19    1
    56    32    29    1
    57    57    56    1
    58    57    58   ar
    59   126   124   ar
    60   126   127   ar
    61    60    58   ar
    62    56    53    1
    63   129   127   ar
    64   129   131   ar
    65   124   123   ar
    66   127   125   ar
    67    92    93    1
    68    92    98    1
    69    68    69    1
    70    68    70    1
    71    29    28    1
    72    29    30    1
    73    53    54    1
    74    53    52    1
    75    54    55    2
    76   131   130   ar
    77    69    71    1
    78    93    94    1
    79    93    96    1
    80    98    97    1
    81    95    94    2
    82    31    30    2
    83   123   125   ar
    84   123   122    1
    85    30    36   am
    86   125   128   ar
    87    94    99   am
    88    52    48   am
    89    99   100    1
    90   130   128   ar
    91    36    37    1
    92    96    97    1
    93   122   119    1
    94   100   103    1
    95   100   101    1
    96    49    48    2
    97   107   108    1
    98    48    47    1
    99    39    38    2
   100   105   104    1
   101   118   119    1
   102    37    38    1
   103    37    40    1
   104   102   101    2
   105    38    46   am
   106   103   104    1
   107   119   120    1
   108   108   109    1
   109   108   111    1
   110    46    47    1
   111   104   106    1
   112   109   110    2
   113    47    50    1
   114   120   121    2
   115    40    41    1
   116   111   112    1
   117    50    51    1
   118    41    43   ar
   119    41    42   ar
   120    43    45   ar
   121   112   113    1
   122    42    44   ar
   123    45    44   ar
   124   113   114    1
   125   116   115    1
   126   115   114    2
   127   115   117    1
