@<TRIPOS>MOLECULE
tmp/4juhC00.pdb
 86 84 0 0 0
SMALL
GASTEIGER

@<TRIPOS>ATOM
      1  N          0.4950  -12.7270   51.0440 N.3    64  ASN64      -0.1226
      2  CA        -0.8590  -12.3580   51.4320 C.3    64  ASN64       0.1770
      3  C         -1.1020  -12.7250   52.8950 C.2    64  ASN64       0.2439
      4  O         -0.8200  -13.8510   53.3110 O.2    64  ASN64      -0.2733
      5  CB        -1.8730  -13.0490   50.5150 C.3    64  ASN64       0.1168
      6  CG        -3.3120  -12.7550   50.8980 C.2    64  ASN64       0.2627
      7  OD1       -3.6570  -12.7010   52.0750 O.2    64  ASN64      -0.2716
      8  ND2       -4.1620  -12.5770   49.8960 N.am   64  ASN64      -0.0877
      9  N         -1.6190  -11.7650   53.6820 N.am   65  PRO65      -0.2718
     10  CA        -1.8360  -11.8850   55.1310 C.3    65  PRO65       0.1535
     11  C         -2.5140  -13.1920   55.5430 C.2    65  PRO65       0.2598
     12  O         -2.2400  -13.7050   56.6300 O.2    65  PRO65      -0.2715
     13  CB        -2.7490  -10.7000   55.4380 C.3    65  PRO65       0.0310
     14  CG        -2.3920   -9.6880   54.4180 C.3    65  PRO65       0.0237
     15  CD        -2.0560  -10.4540   53.1690 C.3    65  PRO65       0.0939
     16  N         -3.3820  -13.7200   54.6850 N.am   66  GLU66      -0.1978
     17  CA        -4.0980  -14.9580   54.9760 C.3    66  GLU66       0.1602
     18  C         -3.2240  -16.1990   54.7910 C.2    66  GLU66       0.2287
     19  O         -3.6990  -17.3160   54.9440 O.2    66  GLU66      -0.2864
     20  CB        -5.3430  -15.0690   54.0880 C.3    66  GLU66       0.0415
     21  CG        -6.2910  -13.8790   54.1450 C.3    66  GLU66       0.1163
     22  CD        -7.3670  -14.0120   55.2140 C.2    66  GLU66       0.3649
     23  OE1       -7.3090  -14.9640   56.0220 O.co2  66  GLU66      -0.2457
     24  OE2       -8.2780  -13.1570   55.2430 O.co2  66  GLU66      -0.2457
     25  N         -8.3950  -19.1200   46.9620 N.3    86  GLU86      -0.1231
     26  CA        -8.7680  -17.8760   46.3010 C.3    86  GLU86       0.1699
     27  C         -8.0610  -16.6630   46.9020 C.2    86  GLU86       0.2592
     28  O         -8.1710  -15.5500   46.3830 O.2    86  GLU86      -0.2718
     29  CB       -10.2880  -17.6950   46.3180 C.3    86  GLU86       0.0402
     30  CG       -10.9780  -18.3450   47.5060 C.3    86  GLU86       0.1161
     31  CD       -12.4950  -18.2800   47.4100 C.2    86  GLU86       0.3649
     32  OE1      -13.0070  -17.4600   46.6170 O.co2  86  GLU86      -0.2457
     33  OE2      -13.1720  -19.0490   48.1290 O.co2  86  GLU86      -0.2457
     34  N         -7.3330  -16.8820   47.9930 N.am   87  ASN87      -0.1960
     35  CA        -6.5240  -15.8220   48.5860 C.3    87  ASN87       0.1819
     36  C         -5.1590  -15.7090   47.9130 C.2    87  ASN87       0.2622
     37  O         -4.1980  -16.3650   48.3130 O.2    87  ASN87      -0.2715
     38  CB        -6.3610  -16.0240   50.0980 C.3    87  ASN87       0.1195
     39  CG        -7.5960  -15.6040   50.8830 C.2    87  ASN87       0.2630
     40  OD1       -8.0440  -16.3160   51.7820 O.2    87  ASN87      -0.2716
     41  ND2       -8.1510  -14.4430   50.5430 N.am   87  ASN87      -0.0877
     42  N         -5.0860  -14.8740   46.8810 N.am   88  GLY88      -0.1940
     43  CA        -3.8380  -14.6290   46.1840 C.3    88  GLY88       0.2014
     44  C         -3.4930  -13.1510   46.1280 C.2    88  GLY88       0.2640
     45  O         -2.6500  -12.6670   46.8820 O.2    88  GLY88      -0.2714
     46  N         -4.1570  -12.4300   45.2320 N.am   89  THR89      -0.1936
     47  CA        -3.9090  -11.0030   45.0450 C.3    89  THR89       0.2028
     48  C         -4.9890  -10.1570   45.7270 C.2    89  THR89       0.2642
     49  O         -6.0940   -9.9920   45.2050 O.2    89  THR89      -0.2714
     50  CB        -3.7830  -10.6560   43.5410 C.3    89  THR89       0.1808
     51  OG1       -2.3980  -10.6030   43.1850 O.3    89  THR89      -0.2208
     52  CG2       -4.4190   -9.3180   43.2240 C.3    89  THR89       0.0379
     53  N         -4.6730   -9.6280   46.9040 N.am   90  CYS90      -0.1967
     54  CA        -5.6830   -8.9310   47.6920 C.3    90  CYS90       0.1712
     55  C         -5.9420   -7.5150   47.1880 C.2    90  CYS90       0.2296
     56  O         -7.0750   -7.0400   47.2280 O.2    90  CYS90      -0.2864
     57  CB        -5.3570   -8.9580   49.1950 C.3    90  CYS90       0.0983
     58  SG        -3.8750   -8.0740   49.7180 S.3    90  CYS90      -0.0798
     59  N         -7.9010   -3.4510   51.7120 N.3   135  ALA135     -0.1231
     60  CA        -8.1090   -4.6090   50.8480 C.3   135  ALA135      0.1694
     61  C         -7.1520   -5.7430   51.1950 C.2   135  ALA135      0.2592
     62  O         -7.2140   -6.8210   50.6110 O.2   135  ALA135     -0.2718
     63  CB        -7.9650   -4.2140   49.3840 C.3   135  ALA135      0.0304
     64  N         -6.2610   -5.4940   52.1460 N.am  136  CYS136     -0.1956
     65  CA        -5.3530   -6.5290   52.6200 C.3   136  CYS136      0.1843
     66  C         -5.4080   -6.5680   54.1380 C.2   136  CYS136      0.2626
     67  O         -4.3760   -6.6340   54.8100 O.2   136  CYS136     -0.2714
     68  CB        -3.9260   -6.2620   52.1340 C.3   136  CYS136      0.0997
     69  SG        -3.7630   -6.1360   50.3360 S.3   136  CYS136     -0.0797
     70  N         -6.6230   -6.5270   54.6760 N.am  137  SER137     -0.1950
     71  CA        -6.8170   -6.4180   56.1180 C.3   137  SER137      0.1924
     72  C         -6.7200   -7.7730   56.8090 C.2   137  SER137      0.2314
     73  O         -7.0480   -8.8110   56.2250 O.2   137  SER137     -0.2863
     74  CB        -8.1560   -5.7410   56.4390 C.3   137  SER137      0.2116
     75  OG        -9.2380   -6.4440   55.8620 O.3   137  SER137     -0.2180
     76  N        -12.6560   -4.7310   45.6740 N.3   221  ARG221     -0.1245
     77  CA       -12.2820   -4.7870   47.0820 C.3   221  ARG221      0.1563
     78  C        -12.0790   -3.3740   47.6120 C.2   221  ARG221      0.2260
     79  O        -11.1310   -3.1010   48.3480 O.2   221  ARG221     -0.2867
     80  CB       -11.0320   -5.6490   47.2880 C.3   221  ARG221      0.0307
     81  CG       -11.1550   -7.0300   46.6600 C.3   221  ARG221      0.0489
     82  CD        -9.9460   -7.8990   46.9280 C.3   221  ARG221      0.2205
     83  NE       -10.2330   -8.9540   47.8950 N.pl3 221  ARG221     -0.0865
     84  CZ        -9.8200   -8.9390   49.1580 C.cat 221  ARG221      0.5346
     85  NH1       -9.0970   -7.9270   49.6080 N.pl3 221  ARG221      0.1354
     86  NH2      -10.1240   -9.9370   49.9680 N.pl3 221  ARG221      0.1354
@<TRIPOS>BOND
     1    51    50    1
     2    52    50    1
     3    50    47    1
     4    47    46    1
     5    47    48    1
     6    49    48    2
     7    46    44   am
     8    76    77    1
     9    48    53   am
    10    44    43    1
    11    44    45    2
    12    43    42    1
    13    26    29    1
    14    26    27    1
    15    26    25    1
    16    29    30    1
    17    28    27    2
    18    32    31   ar
    19    81    82    1
    20    81    80    1
    21    42    36   am
    22    27    34   am
    23    53    54    1
    24    82    83    1
    25    77    80    1
    26    77    78    1
    27    55    56    2
    28    55    54    1
    29    31    30    1
    30    31    33   ar
    31    78    79    2
    32    54    57    1
    33    83    84    2
    34    36    37    2
    35    36    35    1
    36    34    35    1
    37    35    38    1
    38    84    85    1
    39    84    86    1
    40    57    58    1
    41    63    60    1
    42    58    69    1
    43     8     6   am
    44    38    39    1
    45    69    68    1
    46     5     6    1
    47     5     2    1
    48    41    39   am
    49    62    61    2
    50    60    61    1
    51    60    59    1
    52    39    40    2
    53     6     7    2
    54     1     2    1
    55    61    64   am
    56     2     3    1
    57    68    65    1
    58    64    65    1
    59    65    66    1
    60     3     4    2
    61     3     9   am
    62    15     9    1
    63    15    14    1
    64     9    10    1
    65    20    21    1
    66    20    17    1
    67    66    70   am
    68    66    67    2
    69    21    22    1
    70    14    13    1
    71    70    71    1
    72    16    17    1
    73    16    11   am
    74    18    19    2
    75    18    17    1
    76    10    13    1
    77    10    11    1
    78    22    24   ar
    79    22    23   ar
    80    11    12    2
    81    75    74    1
    82    71    74    1
    83    71    72    1
    84    73    72    2
