@<TRIPOS>MOLECULE
tmp/4juiA03.pdb
 90 85 0 0 0
SMALL
GASTEIGER

@<TRIPOS>ATOM
      1  N         20.5390   79.2110   62.4150 N.3   219  TRP219     -0.1227
      2  CA        21.0620   77.9490   62.9230 C.3   219  TRP219      0.1737
      3  C         20.1980   77.4930   64.1030 C.2   219  TRP219      0.2595
      4  O         19.8650   76.3130   64.2250 O.2   219  TRP219     -0.2718
      5  CB        22.5350   78.0760   63.3330 C.3   219  TRP219      0.0564
      6  CG        23.0350   76.8830   64.1350 C.ar  219  TRP219      0.0003
      7  CD1       23.4780   75.6900   63.6420 C.ar  219  TRP219      0.0946
      8  CD2       23.1270   76.7820   65.5650 C.ar  219  TRP219      0.0152
      9  NE1       23.8350   74.8560   64.6700 N.ar  219  TRP219     -0.2442
     10  CE2       23.6370   75.5020   65.8610 C.ar  219  TRP219      0.0810
     11  CE3       22.8350   77.6510   66.6200 C.ar  219  TRP219      0.0012
     12  CZ2       23.8510   75.0650   67.1750 C.ar  219  TRP219      0.0191
     13  CZ3       23.0470   77.2220   67.9170 C.ar  219  TRP219      0.0001
     14  CH2       23.5530   75.9390   68.1870 C.ar  219  TRP219      0.0015
     15  N         19.8110   78.4450   64.9450 N.am  220  GLN220     -0.1979
     16  CA        18.9910   78.1390   66.1120 C.3   220  GLN220      0.1601
     17  C         17.5320   77.8520   65.7720 C.2   220  GLN220      0.2287
     18  O         16.9590   76.8780   66.2640 O.2   220  GLN220     -0.2864
     19  CB        19.0520   79.2850   67.1330 C.3   220  GLN220      0.0394
     20  CG        18.2630   78.9820   68.3960 C.3   220  GLN220      0.0908
     21  CD        18.6300   79.9220   69.5050 C.2   220  GLN220      0.2608
     22  OE1       19.8140   80.1240   69.7840 O.2   220  GLN220     -0.2717
     23  NE2       17.6240   80.5250   70.1370 N.am  220  GLN220     -0.0878
     24  N         15.8410   77.6320   62.5750 N.3   222  ASN222     -0.1240
     25  CA        15.3740   76.9540   61.3730 C.3   222  ASN222      0.1653
     26  C         14.4920   75.7580   61.7340 C.2   222  ASN222      0.2266
     27  O         14.8070   74.9980   62.6590 O.2   222  ASN222     -0.2867
     28  CB        16.5370   76.4940   60.5070 C.3   222  ASN222      0.1155
     29  CG        16.0790   75.8240   59.2430 C.2   222  ASN222      0.2627
     30  OD1       16.0400   74.5950   59.1580 O.2   222  ASN222     -0.2716
     31  ND2       15.7260   76.6240   58.2390 N.am  222  ASN222     -0.0877
     32  N         21.4320   79.1370   57.9420 N.3   263  LYS263     -0.1245
     33  CA        21.8110   78.1190   58.9160 C.3   263  LYS263      0.1561
     34  C         23.0440   77.3450   58.4440 C.2   263  LYS263      0.2260
     35  O         23.9720   77.0880   59.2270 O.2   263  LYS263     -0.2867
     36  CB        20.6500   77.1540   59.1760 C.3   263  LYS263      0.0271
     37  CG        21.0870   75.8430   59.8090 C.3   263  LYS263      0.0035
     38  CD        19.8990   75.1040   60.4080 C.3   263  LYS263      0.0206
     39  CE        20.3090   73.7350   60.9340 C.3   263  LYS263      0.1093
     40  NZ        19.1510   73.0210   61.5450 N.3   263  LYS263     -0.1314
     41  N         25.1570   69.8230   58.7690 N.3   288  ALA288     -0.1231
     42  CA        23.7650   69.8670   59.2020 C.3   288  ALA288      0.1694
     43  C         23.6120   70.6930   60.4610 C.2   288  ALA288      0.2593
     44  O         22.5140   70.7980   61.0060 O.2   288  ALA288     -0.2718
     45  CB        23.2360   68.4560   59.4340 C.3   288  ALA288      0.0304
     46  N         24.7180   71.2730   60.9220 N.am  289  GLY289     -0.1942
     47  CA        24.6990   72.1250   62.0980 C.3   289  GLY289      0.2014
     48  C         24.7260   71.3940   63.4320 C.2   289  GLY289      0.2638
     49  O         24.3790   71.9770   64.4600 O.2   289  GLY289     -0.2714
     50  N         25.1500   70.1340   63.4280 N.am  290  MET290     -0.1976
     51  CA        25.2660   69.3600   64.6600 C.3   290  MET290      0.1605
     52  C         26.7340   69.2250   65.0460 C.2   290  MET290      0.2287
     53  O         27.6120   69.2750   64.1890 O.2   290  MET290     -0.2864
     54  CB        24.7020   67.9540   64.4440 C.3   290  MET290      0.0413
     55  CG        23.2890   67.9220   63.9010 C.3   290  MET290      0.0598
     56  SD        22.0450   68.1600   65.1870 S.3   290  MET290     -0.1393
     57  CE        22.2360   66.6430   66.1170 C.3   290  MET290      0.0692
     58  N         27.2570   72.6840   69.2780 N.3   294  ARG294     -0.1245
     59  CA        25.8470   72.5670   69.6120 C.3   294  ARG294      0.1563
     60  C         25.6690   71.9190   70.9880 C.2   294  ARG294      0.2260
     61  O         24.7810   72.3050   71.7480 O.2   294  ARG294     -0.2867
     62  CB        25.1140   71.7620   68.5460 C.3   294  ARG294      0.0307
     63  CG        23.6300   71.5750   68.8330 C.3   294  ARG294      0.0489
     64  CD        22.9550   70.8820   67.6590 C.3   294  ARG294      0.2205
     65  NE        21.5000   70.8750   67.7910 N.pl3 294  ARG294     -0.0865
     66  CZ        20.7920   69.8540   68.2620 C.cat 294  ARG294      0.5346
     67  NH1       21.4010   68.7460   68.6570 N.pl3 294  ARG294      0.1354
     68  NH2       19.4730   69.9450   68.3320 N.pl3 294  ARG294      0.1354
     69  N         17.0860   69.7910   72.5270 N.3   333  LEU333     -0.1231
     70  CA        17.2470   71.2090   72.2400 C.3   333  LEU333      0.1693
     71  C         16.2190   71.7090   71.2260 C.2   333  LEU333      0.2592
     72  O         15.7070   72.8230   71.3680 O.2   333  LEU333     -0.2718
     73  CB        18.6800   71.4900   71.7800 C.3   333  LEU333      0.0284
     74  CG        19.1020   72.9400   71.5700 C.3   333  LEU333      0.0019
     75  CD1       18.8900   73.7440   72.8290 C.3   333  LEU333      0.0001
     76  CD2       20.5670   73.0020   71.1480 C.3   333  LEU333      0.0001
     77  N         15.9080   70.8860   70.2190 N.am  334  SER334     -0.1952
     78  CA        14.9230   71.2680   69.2080 C.3   334  SER334      0.1924
     79  C         13.5480   71.5310   69.8220 C.2   334  SER334      0.2314
     80  O         12.8940   72.5260   69.4930 O.2   334  SER334     -0.2863
     81  CB        14.8330   70.2080   68.1080 C.3   334  SER334      0.2116
     82  OG        16.0040   70.2400   67.3130 O.3   334  SER334     -0.2180
     83  N         13.5280   74.7830   71.9510 N.3   337  LEU337     -0.1245
     84  CA        13.4720   75.9980   71.1430 C.3   337  LEU337      0.1561
     85  C         12.0780   76.1900   70.5400 C.2   337  LEU337      0.2260
     86  O         11.6010   77.3170   70.4090 O.2   337  LEU337     -0.2867
     87  CB        14.5520   75.9790   70.0600 C.3   337  LEU337      0.0270
     88  CG        15.9830   76.0230   70.6080 C.3   337  LEU337      0.0019
     89  CD1       16.9800   75.6390   69.5200 C.3   337  LEU337      0.0001
     90  CD2       16.3250   77.3950   71.2020 C.3   337  LEU337      0.0001
@<TRIPOS>BOND
     1    32    33    1
     2    31    29   am
     3    34    33    1
     4    34    35    2
     5    41    42    1
     6    33    36    1
     7    30    29    2
     8    36    37    1
     9    42    45    1
    10    42    43    1
    11    29    28    1
    12    37    38    1
    13    38    39    1
    14    43    46   am
    15    43    44    2
    16    28    25    1
    17    46    47    1
    18    39    40    1
    19    25    26    1
    20    25    24    1
    21    26    27    2
    22    47    48    1
    23     1     2    1
    24     2     5    1
    25     2     3    1
    26     5     6    1
    27    50    48   am
    28    50    51    1
    29    48    49    2
    30     7     6   ar
    31     7     9   ar
    32    55    54    1
    33    55    56    1
    34     3     4    2
    35     3    15   am
    36     6     8   ar
    37    53    52    2
    38    54    51    1
    39    51    52    1
    40     9    10   ar
    41    15    16    1
    42    56    57    1
    43     8    10   ar
    44     8    11   ar
    45    17    16    1
    46    17    18    2
    47    10    12   ar
    48    16    19    1
    49    11    13   ar
    50    19    20    1
    51    12    14   ar
    52    82    81    1
    53    64    65    1
    54    64    63    1
    55    65    66    2
    56    13    14   ar
    57    81    78    1
    58    66    68    1
    59    66    67    1
    60    20    21    1
    61    62    63    1
    62    62    59    1
    63    78    79    1
    64    78    77    1
    65    58    59    1
    66    80    79    2
    67    21    22    2
    68    21    23   am
    69    89    88    1
    70    59    60    1
    71    87    88    1
    72    87    84    1
    73    77    71   am
    74    86    85    2
    75    85    84    1
    76    88    90    1
    77    60    61    2
    78    84    83    1
    79    76    74    1
    80    71    72    2
    81    71    70    1
    82    74    73    1
    83    74    75    1
    84    73    70    1
    85    70    69    1
