@<TRIPOS>MOLECULE
tmp/4junE01.pdb
 99 95 0 0 0
SMALL
GASTEIGER

@<TRIPOS>ATOM
      1  N         -6.7010   53.8200   17.0310 N.3    97  ASN97      -0.1225
      2  CA        -6.0320   53.3410   18.2310 C.3    97  ASN97       0.1785
      3  C         -6.5920   52.0120   18.7350 C.2    97  ASN97       0.2597
      4  O         -7.8140   51.8280   18.8120 O.2    97  ASN97      -0.2718
      5  CB        -6.1240   54.3880   19.3230 C.3    97  ASN97       0.1169
      6  CG        -5.2240   54.0710   20.4860 C.2    97  ASN97       0.2627
      7  OD1       -5.6860   53.5520   21.5030 O.2    97  ASN97      -0.2716
      8  ND2       -3.9310   54.3550   20.3440 N.am   97  ASN97      -0.0877
      9  N         -5.6940   51.0780   19.0390 N.am   98  ASP98      -0.1974
     10  CA        -6.0700   49.7540   19.5550 C.3    98  ASP98       0.1709
     11  C         -7.0970   49.0350   18.6850 C.2    98  ASP98       0.2293
     12  O         -8.0360   48.4400   19.2090 O.2    98  ASP98      -0.2864
     13  CB        -6.5530   49.8450   21.0020 C.3    98  ASP98       0.1436
     14  CG        -5.3990   49.9190   21.9940 C.2    98  ASP98       0.3671
     15  OD1       -4.4110   49.1580   21.8040 O.co2  98  ASP98      -0.2456
     16  OD2       -5.4740   50.7320   22.9550 O.co2  98  ASP98      -0.2456
     17  N         -7.6290   45.0950   19.1950 N.3   101  GLU101     -0.1245
     18  CA        -8.3830   44.7950   20.4110 C.3   101  GLU101      0.1567
     19  C         -9.8820   44.9840   20.1310 C.2   101  GLU101      0.2260
     20  O        -10.7240   44.1990   20.5750 O.2   101  GLU101     -0.2867
     21  CB        -7.9230   45.6970   21.5860 C.3   101  GLU101      0.0388
     22  CG        -6.4970   45.3610   22.1240 C.3   101  GLU101      0.1160
     23  CD        -6.4920   44.0950   22.9830 C.2   101  GLU101      0.3649
     24  OE1       -7.2970   44.0520   23.9450 O.co2 101  GLU101     -0.2457
     25  OE2       -5.7410   43.1310   22.6810 O.co2 101  GLU101     -0.2457
     26  N        -12.8760   42.2590   20.3510 N.3   105  LEU105     -0.1245
     27  CA       -14.1630   42.4680   21.0050 C.3   105  LEU105      0.1561
     28  C        -15.3230   42.0730   20.0720 C.2   105  LEU105      0.2260
     29  O        -16.1630   41.2460   20.4330 O.2   105  LEU105     -0.2867
     30  CB       -14.2910   43.9240   21.4180 C.3   105  LEU105      0.0270
     31  CG       -14.7930   44.1550   22.8340 C.3   105  LEU105      0.0019
     32  CD1      -14.0850   45.3380   23.5030 C.3   105  LEU105      0.0001
     33  CD2      -16.2800   44.3900   22.7600 C.3   105  LEU105      0.0001
     34  N        -11.5030   55.8500   31.9090 N.3   206  LEU206     -0.1245
     35  CA       -10.7270   56.5700   30.9220 C.3   206  LEU206      0.1561
     36  C        -10.1840   57.8930   31.4680 C.2   206  LEU206      0.2260
     37  O        -10.8770   58.6350   32.1360 O.2   206  LEU206     -0.2867
     38  CB       -11.5750   56.8160   29.6870 C.3   206  LEU206      0.0270
     39  CG       -10.8500   57.4100   28.4830 C.3   206  LEU206      0.0019
     40  CD1       -9.7350   56.4720   28.1020 C.3   206  LEU206      0.0001
     41  CD2      -11.8310   57.5780   27.3410 C.3   206  LEU206      0.0001
     42  N         -8.0030   60.6030   29.4650 N.3   208  GLN208     -0.1245
     43  CA        -7.2430   60.8790   28.2720 C.3   208  GLN208      0.1566
     44  C         -7.0750   62.3570   28.0390 C.2   208  GLN208      0.2260
     45  O         -7.9840   63.1230   28.3060 O.2   208  GLN208     -0.2867
     46  CB        -7.9490   60.2340   27.0710 C.3   208  GLN208      0.0367
     47  CG        -7.3790   60.5750   25.7130 C.3   208  GLN208      0.0905
     48  CD        -8.1440   59.8870   24.5920 C.2   208  GLN208      0.2608
     49  OE1       -8.9460   60.5140   23.8950 O.2   208  GLN208     -0.2717
     50  NE2       -7.9000   58.5880   24.4140 N.am  208  GLN208     -0.0878
     51  N        -10.0410   57.1250   18.4580 N.3   230  PHE230     -0.1227
     52  CA       -10.0210   56.4040   19.7200 C.3   230  PHE230      0.1736
     53  C        -11.3980   55.8200   20.0390 C.2   230  PHE230      0.2595
     54  O        -12.4130   56.1950   19.4240 O.2   230  PHE230     -0.2718
     55  CB        -9.5370   57.3260   20.8340 C.3   230  PHE230      0.0547
     56  CG        -8.1470   57.8510   20.6150 C.ar  230  PHE230     -0.0202
     57  CD1       -7.9310   58.9470   19.8080 C.ar  230  PHE230     -0.0042
     58  CD2       -7.0630   57.2240   21.1900 C.ar  230  PHE230     -0.0042
     59  CE1       -6.6700   59.4180   19.5940 C.ar  230  PHE230     -0.0003
     60  CE2       -5.7820   57.6980   20.9980 C.ar  230  PHE230     -0.0003
     61  CZ        -5.5820   58.7910   20.1880 C.ar  230  PHE230     -0.0000
     62  N        -11.4270   54.8810   20.9760 N.am  231  TRP231     -0.1962
     63  CA       -12.6740   54.2630   21.3850 C.3   231  TRP231      0.1771
     64  C        -12.6510   53.8380   22.8340 C.2   231  TRP231      0.2620
     65  O        -11.6050   53.7600   23.4520 O.2   231  TRP231     -0.2715
     66  CB       -13.0070   53.0510   20.5140 C.3   231  TRP231      0.0590
     67  CG       -11.9950   51.9550   20.6040 C.ar  231  TRP231      0.0006
     68  CD1      -10.7900   51.9060   19.9600 C.ar  231  TRP231      0.0946
     69  CD2      -12.1010   50.7360   21.3490 C.ar  231  TRP231      0.0152
     70  NE1      -10.1360   50.7370   20.2620 N.ar  231  TRP231     -0.2442
     71  CE2      -10.9070   50.0000   21.1170 C.ar  231  TRP231      0.0810
     72  CE3      -13.0750   50.2010   22.1970 C.ar  231  TRP231      0.0012
     73  CZ2      -10.6540   48.7650   21.7080 C.ar  231  TRP231      0.0191
     74  CZ3      -12.8450   48.9490   22.7690 C.ar  231  TRP231      0.0001
     75  CH2      -11.6370   48.2400   22.5130 C.ar  231  TRP231      0.0015
     76  N        -13.8240   53.5470   23.3720 N.am  232  THR232     -0.1937
     77  CA       -13.9150   53.0170   24.7160 C.3   232  THR232      0.2028
     78  C        -15.2530   52.3450   24.8420 C.2   232  THR232      0.2642
     79  O        -16.1690   52.6330   24.0930 O.2   232  THR232     -0.2714
     80  CB       -13.7910   54.1170   25.7770 C.3   232  THR232      0.1808
     81  OG1      -13.7410   53.5150   27.0770 O.3   232  THR232     -0.2208
     82  CG2      -14.9720   55.0690   25.7040 C.3   232  THR232      0.0379
     83  N        -15.3370   51.4030   25.7700 N.am  233  ILE233     -0.1977
     84  CA       -16.5920   50.7800   26.1560 C.3   233  ILE233      0.1596
     85  C        -17.1660   51.5660   27.3200 C.2   233  ILE233      0.2287
     86  O        -16.5330   51.7020   28.3610 O.2   233  ILE233     -0.2864
     87  CB       -16.3710   49.3150   26.5790 C.3   233  ILE233      0.0276
     88  CG1      -15.7800   48.5310   25.4100 C.3   233  ILE233      0.0022
     89  CG2      -17.6750   48.6780   27.0230 C.3   233  ILE233      0.0022
     90  CD1      -16.6670   48.4810   24.1700 C.3   233  ILE233      0.0001
     91  N        -19.7030   51.6670   30.2020 N.3   235  LYS235     -0.1245
     92  CA       -20.4890   50.7330   31.0110 C.3   235  LYS235      0.1561
     93  C        -21.8500   51.3150   31.4060 C.2   235  LYS235      0.2260
     94  O        -22.0270   52.5430   31.4080 O.2   235  LYS235     -0.2867
     95  CB       -19.7070   50.3560   32.2830 C.3   235  LYS235      0.0271
     96  CG       -18.4040   49.6370   32.0170 C.3   235  LYS235      0.0035
     97  CD       -18.2330   48.4420   32.9380 C.3   235  LYS235      0.0206
     98  CE       -17.5440   47.3030   32.2020 C.3   235  LYS235      0.1093
     99  NZ       -16.5870   46.5820   33.0950 N.3   235  LYS235     -0.1314
@<TRIPOS>BOND
     1     1     2    1
     2     2     3    1
     3     2     5    1
     4    51    52    1
     5    11    12    2
     6    11    10    1
     7     3     4    2
     8     3     9   am
     9     9    10    1
    10    17    18    1
    11     5     6    1
    12    54    53    2
    13    10    13    1
    14    59    57   ar
    15    59    61   ar
    16    52    53    1
    17    52    55    1
    18    57    56   ar
    19    68    70   ar
    20    68    67   ar
    21    53    62   am
    22    28    29    2
    23    28    27    1
    24    19    18    1
    25    19    20    2
    26    61    60   ar
    27    70    71   ar
    28     8     6   am
    29    26    27    1
    30    18    21    1
    31     6     7    2
    32    66    67    1
    33    66    63    1
    34    67    69   ar
    35    56    55    1
    36    56    58   ar
    37    62    63    1
    38    60    58   ar
    39    13    14    1
    40    27    30    1
    41    71    69   ar
    42    71    73   ar
    43    69    72   ar
    44    63    64    1
    45    30    31    1
    46    21    22    1
    47    73    75   ar
    48    15    14   ar
    49    14    16   ar
    50    22    23    1
    51    72    74   ar
    52    75    74   ar
    53    25    23   ar
    54    33    31    1
    55    64    76   am
    56    64    65    2
    57    31    32    1
    58    23    24   ar
    59    76    77    1
    60    49    48    2
    61    79    78    2
    62    90    88    1
    63    50    48   am
    64    48    47    1
    65    77    78    1
    66    77    80    1
    67    78    83   am
    68    88    87    1
    69    82    80    1
    70    47    46    1
    71    83    84    1
    72    80    81    1
    73    84    87    1
    74    84    85    1
    75    87    89    1
    76    46    43    1
    77    85    86    2
    78    41    39    1
    79    44    43    1
    80    44    45    2
    81    40    39    1
    82    43    42    1
    83    39    38    1
    84    38    35    1
    85    91    92    1
    86    35    36    1
    87    35    34    1
    88    92    93    1
    89    92    95    1
    90    93    94    2
    91    36    37    2
    92    96    95    1
    93    96    97    1
    94    98    97    1
    95    98    99    1
