@<TRIPOS>MOLECULE
tmp/4juuB00.pdb
 103 96 0 0 0
SMALL
GASTEIGER

@<TRIPOS>ATOM
      1  N         25.9540   -0.5560    6.8170 N.3    13  GLU13      -0.1245
      2  CA        24.8580   -0.0520    5.9590 C.3    13  GLU13       0.1567
      3  C         23.9190   -1.2010    5.5850 C.2    13  GLU13       0.2260
      4  O         24.3330   -2.2090    5.0020 O.2    13  GLU13      -0.2867
      5  CB        25.4280    0.6280    4.6980 C.3    13  GLU13       0.0388
      6  CG        24.3780    1.3990    3.8530 C.3    13  GLU13       0.1160
      7  CD        24.0450    2.7960    4.3750 C.2    13  GLU13       0.3649
      8  OE1       24.4000    3.1430    5.5120 O.co2  13  GLU13      -0.2457
      9  OE2       23.4070    3.5750    3.6200 O.co2  13  GLU13      -0.2457
     10  N         16.7430    2.0630   -7.5910 N.3    84  LEU84      -0.1245
     11  CA        18.1510    2.1840   -7.9360 C.3    84  LEU84       0.1561
     12  C         18.4670    1.3330   -9.1620 C.2    84  LEU84       0.2260
     13  O         17.5950    0.6410   -9.6820 O.2    84  LEU84      -0.2867
     14  CB        19.0030    1.7340   -6.7550 C.3    84  LEU84       0.0270
     15  CG        18.7610    2.4770   -5.4360 C.3    84  LEU84       0.0019
     16  CD1       19.5340    1.7960   -4.3380 C.3    84  LEU84       0.0001
     17  CD2       19.1740    3.9130   -5.5510 C.3    84  LEU84       0.0001
     18  N         22.3850   -0.2010  -10.0390 N.3    86  MET86      -0.1230
     19  CA        23.3730   -0.9600   -9.2710 C.3    86  MET86       0.1702
     20  C         23.4500   -0.4480   -7.8390 C.2    86  MET86       0.2592
     21  O         23.1000    0.6990   -7.5330 O.2    86  MET86      -0.2718
     22  CB        24.7340   -0.8570   -9.9530 C.3    86  MET86       0.0401
     23  CG        24.7720   -1.7240  -11.1920 C.3    86  MET86       0.0596
     24  SD        26.1500   -1.3320  -12.2500 S.3    86  MET86      -0.1393
     25  CE        25.8150   -2.4360  -13.6020 C.3    86  MET86       0.0692
     26  N         23.9060   -1.3110   -6.9390 N.am   87  CYS87      -0.1956
     27  CA        24.0670   -0.9130   -5.5540 C.3    87  CYS87       0.1843
     28  C         25.1940   -1.7600   -4.9650 C.2    87  CYS87       0.2626
     29  O         25.0270   -2.9580   -4.7540 O.2    87  CYS87      -0.2714
     30  CB        22.7810   -1.1120   -4.7890 C.3    87  CYS87       0.0997
     31  SG        22.9320   -0.7610   -3.0050 S.3    87  CYS87      -0.0797
     32  N         26.3500   -1.1360   -4.7390 N.am   88  GLY88      -0.1940
     33  CA        27.5100   -1.8590   -4.2270 C.3    88  GLY88       0.2014
     34  C         27.3030   -2.5840   -2.8880 C.2    88  GLY88       0.2638
     35  O         27.4870   -3.7970   -2.7770 O.2    88  GLY88      -0.2714
     36  N         26.9280   -1.8550   -1.8540 N.am   89  HIS89      -0.1973
     37  CA        26.8470   -2.4790   -0.5360 C.3    89  HIS89       0.1656
     38  C         25.6920   -3.4920   -0.5430 C.2    89  HIS89       0.2291
     39  O         25.7290   -4.5210    0.1350 O.2    89  HIS89      -0.2864
     40  CB        26.6780   -1.4430    0.5690 C.3    89  HIS89       0.0771
     41  CG        25.2540   -1.1000    0.8820 C.ar   89  HIS89       0.0820
     42  ND1       24.5900   -0.0560    0.2730 N.ar   89  HIS89      -0.2267
     43  CD2       24.3720   -1.6550    1.7480 C.ar   89  HIS89       0.1154
     44  CE1       23.3680    0.0290    0.7630 C.ar   89  HIS89       0.1986
     45  NE2       23.2040   -0.9420    1.6450 N.ar   89  HIS89      -0.2212
     46  N         32.8970   -2.0680   -9.7010 N.3   132  ASN132     -0.1240
     47  CA        32.1610   -0.8170   -9.7060 C.3   132  ASN132      0.1653
     48  C         32.1790   -0.3370  -11.1510 C.2   132  ASN132      0.2266
     49  O         33.0760   -0.6960  -11.9120 O.2   132  ASN132     -0.2867
     50  CB        32.8750    0.2010   -8.7990 C.3   132  ASN132      0.1155
     51  CG        32.0040    1.3980   -8.4330 C.2   132  ASN132      0.2627
     52  OD1       31.3350    1.4110   -7.3970 O.2   132  ASN132     -0.2716
     53  ND2       32.0230    2.4160   -9.2810 N.am  132  ASN132     -0.0877
     54  N         27.7420    7.7350   -8.9570 N.3   161  ASN161     -0.1240
     55  CA        26.9650    8.8720   -8.4830 C.3   161  ASN161      0.1653
     56  C         27.9400   10.0550   -8.5370 C.2   161  ASN161      0.2266
     57  O         29.1480    9.8340   -8.5800 O.2   161  ASN161     -0.2867
     58  CB        26.5540    8.7180   -7.0010 C.3   161  ASN161      0.1155
     59  CG        25.6470    7.5400   -6.7480 C.2   161  ASN161      0.2627
     60  OD1       26.0370    6.5470   -6.1050 O.2   161  ASN161     -0.2716
     61  ND2       24.4260    7.6580   -7.1930 N.am  161  ASN161     -0.0877
     62  N         26.2730    7.8060    4.9850 N.3   233  ASP233     -0.1239
     63  CA        26.4900    6.3870    4.7040 C.3   233  ASP233      0.1674
     64  C         27.1900    5.7970    5.9190 C.2   233  ASP233      0.2266
     65  O         28.1960    6.3550    6.3860 O.2   233  ASP233     -0.2867
     66  CB        27.3940    6.1980    3.4710 C.3   233  ASP233      0.1410
     67  CG        27.2670    4.8250    2.8490 C.2   233  ASP233      0.3668
     68  OD1       26.9970    3.8200    3.5520 O.co2 233  ASP233     -0.2456
     69  OD2       27.4080    4.7240    1.5930 O.co2 233  ASP233     -0.2456
     70  N         28.5690    2.9250    5.8250 N.3   235  SER235     -0.1217
     71  CA        29.7180    2.2270    5.2310 C.3   235  SER235      0.1889
     72  C         30.7040    3.2080    4.6080 C.2   235  SER235      0.2288
     73  O         30.4530    4.4000    4.5140 O.2   235  SER235     -0.2866
     74  CB        29.2550    1.2430    4.1480 C.3   235  SER235      0.2089
     75  OG        28.9480    1.9030    2.9260 O.3   235  SER235     -0.2183
     76  N         31.1650    3.5300    1.5880 N.3   237  CYS237     -0.1221
     77  CA        30.5240    3.9760    0.3450 C.3   237  CYS237      0.1808
     78  C         31.2840    3.4940   -0.9050 C.2   237  CYS237      0.2602
     79  O         32.3360    4.0160   -1.2620 O.2   237  CYS237     -0.2717
     80  CB        30.3800    5.4800    0.3280 C.3   237  CYS237      0.0970
     81  SG        29.4180    6.0570   -1.0670 S.3   237  CYS237     -0.0800
     82  N         30.7280    2.4780   -1.5430 N.am  238  GLY238     -0.1942
     83  CA        31.3590    1.8650   -2.6990 C.3   238  GLY238      0.2014
     84  C         31.6080    2.8430   -3.8340 C.2   238  GLY238      0.2639
     85  O         32.7240    2.9440   -4.3700 O.2   238  GLY238     -0.2714
     86  N         30.5740    3.5690   -4.2220 N.am  239  THR239     -0.1950
     87  CA        30.7250    4.4970   -5.3450 C.3   239  THR239      0.1897
     88  C         31.5770    5.6830   -4.9300 C.2   239  THR239      0.2313
     89  O         32.3150    6.2370   -5.7360 O.2   239  THR239     -0.2863
     90  CB        29.3840    5.0010   -5.8570 C.3   239  THR239      0.1794
     91  OG1       28.6680    5.5750   -4.7620 O.3   239  THR239     -0.2208
     92  CG2       28.5690    3.8760   -6.4650 C.3   239  THR239      0.0378
     93  N         36.3570   -0.8200    3.5030 N.3   270  PHE270     -0.1241
     94  CA        36.3870   -1.4470    2.1980 C.3   270  PHE270      0.1605
     95  C         37.8120   -1.4050    1.6510 C.2   270  PHE270      0.2264
     96  O         38.6020   -0.5200    2.0110 O.2   270  PHE270     -0.2867
     97  CB        35.5130   -0.6730    1.2100 C.3   270  PHE270      0.0534
     98  CG        34.0110   -0.8550    1.3910 C.ar  270  PHE270     -0.0203
     99  CD1       33.4760   -1.8600    2.1830 C.ar  270  PHE270     -0.0042
    100  CD2       33.1330   -0.0080    0.7170 C.ar  270  PHE270     -0.0042
    101  CE1       32.0950   -1.9990    2.3080 C.ar  270  PHE270     -0.0003
    102  CE2       31.7460   -0.1400    0.8400 C.ar  270  PHE270     -0.0003
    103  CZ        31.2270   -1.1440    1.6250 C.ar  270  PHE270     -0.0000
@<TRIPOS>BOND
     1    25    24    1
     2    24    23    1
     3    49    48    2
     4    23    22    1
     5    48    47    1
     6    18    19    1
     7    22    19    1
     8    47    46    1
     9    47    50    1
    10    13    12    2
    11    53    51   am
    12    19    20    1
    13    12    11    1
    14    54    55    1
    15    50    51    1
    16    57    56    2
    17    56    55    1
    18    55    58    1
    19    51    52    2
    20    11    10    1
    21    11    14    1
    22    20    21    2
    23    20    26   am
    24    61    59   am
    25    58    59    1
    26    26    27    1
    27    14    15    1
    28    59    60    2
    29    92    90    1
    30    90    87    1
    31    90    91    1
    32    89    88    2
    33    27    28    1
    34    27    30    1
    35    17    15    1
    36    15    16    1
    37    87    88    1
    38    87    86    1
    39    28    29    2
    40    28    32   am
    41    30    31    1
    42    32    33    1
    43    85    84    2
    44    33    34    1
    45    86    84   am
    46    84    83    1
    47    34    35    2
    48    34    36   am
    49    83    82    1
    50    36    37    1
    51    82    78   am
    52    79    78    2
    53    81    80    1
    54    78    77    1
    55    38    37    1
    56    38    39    2
    57    37    40    1
    58    42    44   ar
    59    42    41   ar
    60    80    77    1
    61    77    76    1
    62    40    41    1
    63   100   102   ar
    64   100    98   ar
    65    44    45   ar
    66   102   103   ar
    67    41    43   ar
    68    97    98    1
    69    97    94    1
    70    98    99   ar
    71    69    67   ar
    72   103   101   ar
    73    45    43   ar
    74    95    96    2
    75    95    94    1
    76    99   101   ar
    77    94    93    1
    78    67    66    1
    79    67    68   ar
    80    75    74    1
    81    66    63    1
    82     9     7   ar
    83     6     7    1
    84     6     5    1
    85    74    71    1
    86     7     8   ar
    87    73    72    2
    88    72    71    1
    89     5     2    1
    90    63    62    1
    91    63    64    1
    92     4     3    2
    93    71    70    1
    94     3     2    1
    95    64    65    2
    96     2     1    1
