@<TRIPOS>MOLECULE
tmp/4jv3A00.pdb
 139 136 0 0 0
SMALL
GASTEIGER

@<TRIPOS>ATOM
      1  N         10.9190  -14.7350   17.9970 N.3   201  MET201     -0.1230
      2  CA         9.8690  -13.8060   17.6090 C.3   201  MET201      0.1702
      3  C          9.8060  -13.6060   16.0890 C.2   201  MET201      0.2593
      4  O          8.9150  -12.9140   15.5820 O.2   201  MET201     -0.2718
      5  CB         9.9320  -12.4820   18.4190 C.3   201  MET201      0.0401
      6  CG        11.1150  -11.6360   18.1570 C.3   201  MET201      0.0596
      7  SD        11.1020  -10.0580   18.9910 S.3   201  MET201     -0.1393
      8  CE         9.6640   -9.3220   18.3160 C.3   201  MET201      0.0692
      9  N         10.7250  -14.2230   15.3700 N.am  202  GLY202     -0.1942
     10  CA        10.7560  -14.1830   13.8930 C.3   202  GLY202      0.2014
     11  C         11.2770  -12.8470   13.3830 C.2   202  GLY202      0.2638
     12  O         10.9620  -12.4540   12.2560 O.2   202  GLY202     -0.2714
     13  N         12.0930  -12.1840   14.1960 N.am  203  ALA203     -0.1977
     14  CA        12.5820  -10.8290   13.9060 C.3   203  ALA203      0.1597
     15  C         13.8240  -10.7930   13.0240 C.2   203  ALA203      0.2287
     16  O         14.1560   -9.7310   12.4720 O.2   203  ALA203     -0.2864
     17  CB        12.8310  -10.0540   15.1890 C.3   203  ALA203      0.0319
     18  N         13.9370   -9.4080    7.8580 N.3   225  GLY225     -0.1210
     19  CA        14.3610   -9.3660    9.2270 C.3   225  GLY225      0.1956
     20  C         15.7530   -8.8150    9.3830 C.2   225  GLY225      0.2611
     21  O         16.5270   -8.7300    8.4230 O.2   225  GLY225     -0.2717
     22  N         16.0660   -8.3860   10.5980 N.am  226  PHE226     -0.1976
     23  CA        17.3810   -7.8790   10.8510 C.3   226  PHE226      0.1639
     24  C         18.4000   -8.9900   10.9970 C.2   226  PHE226      0.2290
     25  O         18.0410  -10.1650   11.1110 O.2   226  PHE226     -0.2864
     26  CB        17.4080   -6.8610   12.0100 C.3   226  PHE226      0.0560
     27  CG        17.3350   -7.4500   13.4080 C.ar  226  PHE226     -0.0200
     28  CD1       18.4780   -7.8990   14.0470 C.ar  226  PHE226     -0.0042
     29  CD2       16.1410   -7.4010   14.1440 C.ar  226  PHE226     -0.0042
     30  CE1       18.4350   -8.3600   15.3440 C.ar  226  PHE226     -0.0003
     31  CE2       16.1030   -7.8510   15.4600 C.ar  226  PHE226     -0.0003
     32  CZ        17.2610   -8.3280   16.0530 C.ar  226  PHE226     -0.0000
     33  N          3.0830    0.4880   20.4790 N.3   265  ASP265     -0.1239
     34  CA         3.2560   -0.9620   20.4110 C.3   265  ASP265      0.1674
     35  C          4.6290   -1.3750   20.9670 C.2   265  ASP265      0.2266
     36  O          5.6180   -0.6510   20.7810 O.2   265  ASP265     -0.2867
     37  CB         3.1330   -1.4240   18.9510 C.3   265  ASP265      0.1410
     38  CG         2.9960   -2.9240   18.8400 C.2   265  ASP265      0.3668
     39  OD1        1.8470   -3.3670   18.9320 O.co2 265  ASP265     -0.2456
     40  OD2        3.9980   -3.6750   18.7750 O.co2 265  ASP265     -0.2456
     41  N          6.6790   -3.7900   20.1310 N.3   267  VAL267     -0.1231
     42  CA         7.7330   -4.3390   19.2860 C.3   267  VAL267      0.1692
     43  C          7.6380   -3.8580   17.8570 C.2   267  VAL267      0.2592
     44  O          8.2750   -4.4360   16.9930 O.2   267  VAL267     -0.2718
     45  CB         7.7800   -5.9000   19.3270 C.3   267  VAL267      0.0266
     46  CG1        8.1720   -6.4110   20.7180 C.3   267  VAL267      0.0020
     47  CG2        6.4580   -6.4670   18.9030 C.3   267  VAL267      0.0020
     48  N          6.8690   -2.8010   17.6150 N.am  268  ALA268     -0.1966
     49  CA         6.7600   -2.1760   16.2860 C.3   268  ALA268      0.1713
     50  C          6.6650   -0.6590   16.4830 C.2   268  ALA268      0.2458
     51  O          6.1050   -0.2270   17.4770 O.2   268  ALA268     -0.2730
     52  CB         5.5260   -2.6670   15.5820 C.3   268  ALA268      0.0333
     53  N          7.1970    0.1410   15.5360 N.am  269  PRO269     -0.2727
     54  CA         7.1790    1.5900   15.6710 C.3   269  PRO269      0.1402
     55  C          5.8920    2.2130   15.1780 C.2   269  PRO269      0.2269
     56  O          5.2430    1.6750   14.2780 O.2   269  PRO269     -0.2865
     57  CB         8.3410    2.0290   14.7880 C.3   269  PRO269      0.0296
     58  CG         8.3470    1.0210   13.6930 C.3   269  PRO269      0.0237
     59  CD         7.9030   -0.2740   14.3110 C.3   269  PRO269      0.0939
     60  N         17.6980    4.4650   11.1680 N.3   295  HIS295     -0.1241
     61  CA        17.7320    3.2570   11.9810 C.3   295  HIS295      0.1621
     62  C         17.6530    1.9960   11.1350 C.2   295  HIS295      0.2264
     63  O         18.2050    0.9670   11.5140 O.2   295  HIS295     -0.2867
     64  CB        16.6310    3.2570   13.0230 C.3   295  HIS295      0.0745
     65  CG        16.7780    2.1450   14.0210 C.ar  295  HIS295      0.0817
     66  ND1       17.9350    1.9430   14.7520 N.ar  295  HIS295     -0.2268
     67  CD2       15.9290    1.1680   14.3820 C.ar  295  HIS295      0.1154
     68  CE1       17.7830    0.8870   15.5220 C.ar  295  HIS295      0.1986
     69  NE2       16.5670    0.4070   15.3240 N.ar  295  HIS295     -0.2212
     70  N         16.5970   -1.3250    9.8540 N.3   297  THR297     -0.1218
     71  CA        17.2170   -2.5690   10.2990 C.3   297  THR297      0.1862
     72  C         17.0010   -3.7320    9.3340 C.2   297  THR297      0.2287
     73  O         17.5090   -4.8070    9.5720 O.2   297  THR297     -0.2866
     74  CB        16.6180   -3.0100   11.6260 C.3   297  THR297      0.1770
     75  OG1       15.2240   -3.2280   11.4430 O.3   297  THR297     -0.2211
     76  CG2       16.7930   -1.9550   12.6700 C.3   297  THR297      0.0375
     77  N         13.9510   -4.9780    8.6440 N.3   299  THR299     -0.1204
     78  CA        12.7010   -5.6920    8.9380 C.3   299  THR299      0.1979
     79  C         11.6100   -5.2900    7.9800 C.2   299  THR299      0.2460
     80  O         11.6050   -4.2090    7.4730 O.2   299  THR299     -0.2732
     81  CB        12.2070   -5.4750   10.3640 C.3   299  THR299      0.1783
     82  OG1       11.9030   -4.0940   10.5630 O.3   299  THR299     -0.2211
     83  CG2       13.2470   -5.9480   11.3560 C.3   299  THR299      0.0376
     84  N         10.6520   -6.1890    7.7400 N.am  300  PRO300     -0.2717
     85  CA         9.5910   -5.8120    6.8180 C.3   300  PRO300      0.1535
     86  C          8.7560   -4.6230    7.3060 C.2   300  PRO300      0.2598
     87  O          8.4610   -3.7220    6.5280 O.2   300  PRO300     -0.2715
     88  CB         8.7510   -7.0910    6.7050 C.3   300  PRO300      0.0310
     89  CG         9.6650   -8.2050    7.0860 C.3   300  PRO300      0.0237
     90  CD        10.6340   -7.6230    8.0820 C.3   300  PRO300      0.0939
     91  N          8.4470   -4.5770    8.6000 N.am  301  ALA301     -0.1964
     92  CA         7.5390   -3.5690    9.1550 C.3   301  ALA301      0.1728
     93  C          8.2660   -2.3670    9.7610 C.2   301  ALA301      0.2616
     94  O          7.6410   -1.3590   10.1220 O.2   301  ALA301     -0.2715
     95  CB         6.6360   -4.2230   10.2080 C.3   301  ALA301      0.0334
     96  N          9.5900   -2.4470    9.8750 N.am  302  GLY302     -0.1955
     97  CA        10.3180   -1.3600   10.4630 C.3   302  GLY302      0.1869
     98  C         10.7670   -0.2790    9.5060 C.2   302  GLY302      0.2309
     99  O         10.7640    0.9060    9.8330 O.2   302  GLY302     -0.2863
    100  N         22.9980   -5.5490   13.0150 N.3   332  HIS332     -0.1241
    101  CA        22.3320   -4.7690   14.0380 C.3   332  HIS332      0.1621
    102  C         22.9380   -5.1240   15.3930 C.2   332  HIS332      0.2264
    103  O         22.6030   -6.1370   15.9800 O.2   332  HIS332     -0.2867
    104  CB        20.8450   -5.1010   14.0160 C.3   332  HIS332      0.0745
    105  CG        20.0190   -4.1940   14.8460 C.ar  332  HIS332      0.0817
    106  ND1       20.5710   -3.3390   15.7720 N.ar  332  HIS332     -0.2268
    107  CD2       18.6820   -4.0420   14.9420 C.ar  332  HIS332      0.1154
    108  CE1       19.6160   -2.6380   16.3400 C.ar  332  HIS332      0.1986
    109  NE2       18.4610   -3.0400   15.8500 N.ar  332  HIS332     -0.2212
    110  N         16.0490    3.6160   17.0350 N.3   390  PHE390     -0.1227
    111  CA        14.8490    3.3250   17.7650 C.3   390  PHE390      0.1736
    112  C         14.9480    1.9820   18.4790 C.2   390  PHE390      0.2596
    113  O         15.8150    1.1530   18.2020 O.2   390  PHE390     -0.2718
    114  CB        13.6590    3.2760   16.8220 C.3   390  PHE390      0.0547
    115  CG        13.6190    4.3850   15.8140 C.ar  390  PHE390     -0.0202
    116  CD1       13.6050    5.7170   16.1960 C.ar  390  PHE390     -0.0042
    117  CD2       13.5110    4.0850   14.4870 C.ar  390  PHE390     -0.0042
    118  CE1       13.5600    6.7250   15.2620 C.ar  390  PHE390     -0.0003
    119  CE2       13.4430    5.0840   13.5490 C.ar  390  PHE390     -0.0003
    120  CZ        13.4540    6.4020   13.9270 C.ar  390  PHE390     -0.0000
    121  N         14.0390    1.7550   19.4010 N.am  391  GLY391     -0.1942
    122  CA        14.0510    0.5480   20.1650 C.3   391  GLY391      0.2014
    123  C         12.6820    0.0380   20.4860 C.2   391  GLY391      0.2638
    124  O         11.7060    0.7780   20.4020 O.2   391  GLY391     -0.2714
    125  N         12.6060   -1.2480   20.8210 N.am  392  PHE392     -0.1973
    126  CA        11.3880   -1.8120   21.3470 C.3   392  PHE392      0.1639
    127  C         10.9240   -0.9740   22.5180 C.2   392  PHE392      0.2290
    128  O         11.7240   -0.2930   23.1740 O.2   392  PHE392     -0.2864
    129  CB        11.6080   -3.2550   21.8340 C.3   392  PHE392      0.0560
    130  CG        11.6980   -4.2840   20.7380 C.ar  392  PHE392     -0.0200
    131  CD1       11.4490   -3.9880   19.3900 C.ar  392  PHE392     -0.0042
    132  CD2       11.9880   -5.5870   21.0740 C.ar  392  PHE392     -0.0042
    133  CE1       11.5450   -4.9850   18.4140 C.ar  392  PHE392     -0.0003
    134  CE2       12.0730   -6.5730   20.1100 C.ar  392  PHE392     -0.0003
    135  CZ        11.8510   -6.2730   18.7790 C.ar  392  PHE392     -0.0000
    136  N          8.8870    1.4520   22.0240 N.3   394  GLY394     -0.1225
    137  CA         8.5540    2.7170   21.4490 C.3   394  GLY394      0.1811
    138  C          9.5300    3.8400   21.7980 C.2   394  GLY394      0.2280
    139  O          9.1440    4.9730   21.9190 O.2   394  GLY394     -0.2866
@<TRIPOS>BOND
     1    87    86    2
     2    88    85    1
     3    88    89    1
     4    85    86    1
     5    85    84    1
     6    89    90    1
     7    86    91   am
     8    80    79    2
     9    84    79   am
    10    84    90    1
    11    18    19    1
    12    79    78    1
    13    21    20    2
    14    91    92    1
    15    77    78    1
    16    78    81    1
    17    92    93    1
    18    92    95    1
    19    19    20    1
    20    72    73    2
    21    72    71    1
    22    20    22   am
    23    98    99    2
    24    98    97    1
    25    93    96   am
    26    93    94    2
    27    70    71    1
    28    96    97    1
    29    71    74    1
    30    81    82    1
    31    81    83    1
    32    22    23    1
    33    23    24    1
    34    23    26    1
    35    24    25    2
    36    62    63    2
    37    62    61    1
    38    60    61    1
    39    75    74    1
    40    74    76    1
    41    61    64    1
    42    26    27    1
    43    12    11    2
    44    16    15    2
    45   100   101    1
    46    64    65    1
    47    15    14    1
    48    11    10    1
    49    11    13   am
    50    27    28   ar
    51    27    29   ar
    52   119   120   ar
    53   119   117   ar
    54    58    59    1
    55    58    57    1
    56    10     9    1
    57    14    13    1
    58    14    17    1
    59   120   118   ar
    60   104   101    1
    61   104   105    1
    62    65    67   ar
    63    65    66   ar
    64   101   102    1
    65    28    30   ar
    66    29    31   ar
    67    56    55    2
    68    59    53    1
    69    67    69   ar
    70   117   115   ar
    71    66    68   ar
    72    57    54    1
    73   105   107   ar
    74   105   106   ar
    75   107   109   ar
    76    55    54    1
    77   118   116   ar
    78    69    68   ar
    79    30    32   ar
    80     9     3   am
    81   102   103    2
    82    31    32   ar
    83    53    54    1
    84    53    50   am
    85     4     3    2
    86    52    49    1
    87   106   108   ar
    88   115   116   ar
    89   115   114    1
    90   109   108   ar
    91     3     2    1
    92    49    50    1
    93    49    48    1
    94    50    51    2
    95   114   111    1
    96    44    43    2
    97   110   111    1
    98     2     1    1
    99     2     5    1
   100    48    43   am
   101   111   112    1
   102    43    42    1
   103     6     5    1
   104     6     7    1
   105   113   112    2
   106     8     7    1
   107   133   135   ar
   108   133   131   ar
   109   112   121   am
   110    40    38   ar
   111   135   134   ar
   112    38    39   ar
   113    38    37    1
   114    47    45    1
   115    37    34    1
   116    42    45    1
   117    42    41    1
   118    45    46    1
   119   131   130   ar
   120   121   122    1
   121   134   132   ar
   122   122   123    1
   123   124   123    2
   124    34    33    1
   125    34    35    1
   126   123   125   am
   127   130   132   ar
   128   130   129    1
   129    36    35    2
   130   125   126    1
   131   126   129    1
   132   126   127    1
   133   137   138    1
   134   137   136    1
   135   138   139    2
   136   127   128    2
