@<TRIPOS>MOLECULE
tmp/4jv6A00.pdb
 172 156 0 0 0
SMALL
GASTEIGER

@<TRIPOS>ATOM
      1  N         30.2960  -19.9040    8.2790 N.3    16  LEU16      -0.1245
      2  CA        29.4390  -18.6870    8.2500 C.3    16  LEU16       0.1561
      3  C         30.3250  -17.6070    8.8730 C.2    16  LEU16       0.2260
      4  O         30.7620  -17.7450   10.0290 O.2    16  LEU16      -0.2867
      5  CB        28.1870  -19.0140    9.0840 C.3    16  LEU16       0.0270
      6  CG        26.9760  -18.1490    8.9130 C.3    16  LEU16       0.0019
      7  CD1       25.8410  -18.7380    9.7680 C.3    16  LEU16       0.0001
      8  CD2       27.3750  -16.8580    9.5010 C.3    16  LEU16       0.0001
      9  N         26.7240  -12.3300   10.1520 N.3    19  MET19      -0.1245
     10  CA        25.3360  -12.2580    9.8570 C.3    19  MET19       0.1570
     11  C         24.7550  -11.0100   10.5740 C.2    19  MET19       0.2261
     12  O         25.1990  -10.6970   11.6660 O.2    19  MET19      -0.2867
     13  CB        24.6750  -13.5010   10.4200 C.3    19  MET19       0.0387
     14  CG        23.1910  -13.5250   10.1730 C.3    19  MET19       0.0595
     15  SD        22.5180  -15.2310   10.4190 S.3    19  MET19      -0.1393
     16  CE        23.2520  -15.8630   11.9150 C.3    19  MET19       0.0692
     17  N         20.7210   -9.0400   11.3360 N.3    21  LEU21      -0.1245
     18  CA        19.2820   -9.1570   11.2160 C.3    21  LEU21       0.1561
     19  C         18.7550   -7.7130   11.3070 C.2    21  LEU21       0.2260
     20  O         19.2760   -6.9590   12.1260 O.2    21  LEU21      -0.2867
     21  CB        18.7280   -9.9680   12.3970 C.3    21  LEU21       0.0270
     22  CG        19.1040  -11.4770   12.4950 C.3    21  LEU21       0.0019
     23  CD1       18.2980  -12.0250   13.7000 C.3    21  LEU21       0.0001
     24  CD2       18.6760  -12.1390   11.2130 C.3    21  LEU21       0.0001
     25  N         20.6170   -6.9240   15.1870 N.3    30  TRP30      -0.1241
     26  CA        21.5570   -7.8400   15.7420 C.3    30  TRP30       0.1605
     27  C         22.6000   -8.0340   14.6690 C.2    30  TRP30       0.2264
     28  O         22.2850   -8.0360   13.4830 O.2    30  TRP30      -0.2867
     29  CB        20.8690   -9.2020   16.0690 C.3    30  TRP30       0.0550
     30  CG        21.7770  -10.1870   16.6580 C.ar   30  TRP30       0.0003
     31  CD1       22.0650  -10.3790   18.0200 C.ar   30  TRP30       0.0946
     32  CD2       22.5810  -11.1080   15.9430 C.ar   30  TRP30       0.0152
     33  NE1       22.9880  -11.3900   18.1630 N.ar   30  TRP30      -0.2442
     34  CE2       23.3160  -11.8630   16.9060 C.ar   30  TRP30       0.0810
     35  CE3       22.7130  -11.4220   14.5660 C.ar   30  TRP30       0.0012
     36  CZ2       24.1750  -12.8780   16.5410 C.ar   30  TRP30       0.0191
     37  CZ3       23.5770  -12.4250   14.2130 C.ar   30  TRP30       0.0001
     38  CH2       24.3190  -13.1380   15.1980 C.ar   30  TRP30       0.0015
     39  N         27.3120  -19.3680   13.9440 N.3    36  LEU36      -0.1231
     40  CA        26.1590  -20.0180   14.6460 C.3    36  LEU36       0.1693
     41  C         25.7060  -21.3030   13.9980 C.2    36  LEU36       0.2592
     42  O         24.8320  -21.9550   14.5470 O.2    36  LEU36      -0.2718
     43  CB        24.9500  -19.0290   14.6220 C.3    36  LEU36       0.0284
     44  CG        25.2340  -17.7450   15.4030 C.3    36  LEU36       0.0019
     45  CD1       24.0020  -16.8430   15.4540 C.3    36  LEU36       0.0001
     46  CD2       25.6970  -18.0540   16.7700 C.3    36  LEU36       0.0001
     47  N         26.2520  -21.6430   12.8310 N.am   37  SER37      -0.1952
     48  CA        25.8830  -22.9280   12.1920 C.3    37  SER37       0.1924
     49  C         26.7140  -24.1200   12.5820 C.2    37  SER37       0.2314
     50  O         26.4770  -25.2390   12.0990 O.2    37  SER37      -0.2863
     51  CB        25.9780  -22.7800   10.6830 C.3    37  SER37       0.2116
     52  OG        27.2930  -22.6610   10.2680 O.3    37  SER37      -0.2180
     53  N         22.2790  -16.5620   21.8100 N.3    45  ALA45      -0.1245
     54  CA        22.3270  -15.2190   21.2840 C.3    45  ALA45       0.1562
     55  C         21.3810  -14.3490   22.0330 C.2    45  ALA45       0.2260
     56  O         20.2800  -14.8170   22.3290 O.2    45  ALA45      -0.2867
     57  CB        21.8890  -15.2110   19.7410 C.3    45  ALA45       0.0290
     58  N         19.0590  -10.9630   21.6460 N.3    47  VAL47      -0.1245
     59  CA        18.5190  -10.0340   20.6700 C.3    47  VAL47       0.1561
     60  C         17.5900   -9.0660   21.3600 C.2    47  VAL47       0.2260
     61  O         17.0660   -9.3820   22.4340 O.2    47  VAL47      -0.2867
     62  CB        17.7210  -10.7680   19.5340 C.3    47  VAL47       0.0252
     63  CG1       18.6540  -11.7990   18.8310 C.3    47  VAL47       0.0019
     64  CG2       16.4680  -11.4420   20.0780 C.3    47  VAL47       0.0019
     65  N         11.7210   -9.7180    9.2580 N.3    57  VAL57      -0.1245
     66  CA        13.0940   -9.4450    9.5570 C.3    57  VAL57       0.1561
     67  C         13.9320   -9.8150    8.3130 C.2    57  VAL57       0.2260
     68  O         13.7530  -10.8620    7.7490 O.2    57  VAL57      -0.2867
     69  CB        13.6040  -10.3330   10.7990 C.3    57  VAL57       0.0252
     70  CG1       15.1160  -10.2660   10.9700 C.3    57  VAL57       0.0019
     71  CG2       12.9410   -9.8380   12.1040 C.3    57  VAL57       0.0019
     72  N         17.5420  -10.7970    6.8480 N.3    59  ARG59      -0.1245
     73  CA        18.7980  -11.3780    7.3060 C.3    59  ARG59       0.1563
     74  C         19.8310  -11.2440    6.2010 C.2    59  ARG59       0.2260
     75  O         19.4720  -11.4790    5.0430 O.2    59  ARG59      -0.2867
     76  CB        18.5730  -12.8500    7.5240 C.3    59  ARG59       0.0307
     77  CG        19.8860  -13.6710    7.7930 C.3    59  ARG59       0.0489
     78  CD        19.4990  -15.1390    8.0960 C.3    59  ARG59       0.2205
     79  NE        18.9810  -15.7940    6.8950 N.pl3  59  ARG59      -0.0865
     80  CZ        18.1310  -16.8280    6.8440 C.cat  59  ARG59       0.5346
     81  NH1       17.6720  -17.3760    7.9450 N.pl3  59  ARG59       0.1354
     82  NH2       17.7150  -17.3120    5.6560 N.pl3  59  ARG59       0.1354
     83  N         23.5600  -12.9810    5.4580 N.3    61  LEU61      -0.1245
     84  CA        24.3680  -14.0660    5.9600 C.3    61  LEU61       0.1561
     85  C         25.5120  -14.1720    4.9820 C.2    61  LEU61       0.2260
     86  O         25.2760  -14.4250    3.7940 O.2    61  LEU61      -0.2867
     87  CB        23.4960  -15.2950    5.8240 C.3    61  LEU61       0.0270
     88  CG        23.7970  -16.6450    6.4070 C.3    61  LEU61       0.0019
     89  CD1       22.5290  -17.4390    6.2570 C.3    61  LEU61       0.0001
     90  CD2       24.9600  -17.2730    5.6470 C.3    61  LEU61       0.0001
     91  N         18.2030  -23.8700    3.3870 N.3    74  LEU74      -0.1245
     92  CA        17.9880  -24.0620    4.8340 C.3    74  LEU74       0.1561
     93  C         16.5330  -24.3920    5.1590 C.2    74  LEU74       0.2260
     94  O         15.6230  -23.8320    4.5000 O.2    74  LEU74      -0.2867
     95  CB        18.2810  -22.7220    5.5280 C.3    74  LEU74       0.0270
     96  CG        19.6000  -22.0330    5.2640 C.3    74  LEU74       0.0019
     97  CD1       19.5310  -20.6340    5.9490 C.3    74  LEU74       0.0001
     98  CD2       20.7030  -22.8960    5.7760 C.3    74  LEU74       0.0001
     99  N         14.3810  -24.1160    8.7870 N.3    76  GLN76      -0.1245
    100  CA        14.6170  -23.5540   10.1300 C.3    76  GLN76       0.1566
    101  C         13.3070  -23.6230   10.9060 C.2    76  GLN76       0.2260
    102  O         12.2380  -23.4090   10.3140 O.2    76  GLN76      -0.2867
    103  CB        15.0600  -22.1230   10.0440 C.3    76  GLN76       0.0367
    104  CG        16.3970  -21.9750    9.2390 C.3    76  GLN76       0.0905
    105  CD        16.7970  -20.5670    9.1340 C.2    76  GLN76       0.2608
    106  OE1       16.1730  -19.7660    8.4230 O.2    76  GLN76      -0.2717
    107  NE2       17.8320  -20.2020    9.8760 N.am   76  GLN76      -0.0878
    108  N         11.3940  -22.6800   14.8140 N.3    78  VAL78      -0.1245
    109  CA        11.4550  -22.0610   16.1530 C.3    78  VAL78       0.1561
    110  C         10.7870  -23.0440   17.1170 C.2    78  VAL78       0.2260
    111  O          9.6540  -23.4950   16.8550 O.2    78  VAL78      -0.2867
    112  CB        10.7160  -20.7400   16.2330 C.3    78  VAL78       0.0252
    113  CG1       10.7330  -20.2380   17.7120 C.3    78  VAL78       0.0019
    114  CG2       11.3660  -19.6730   15.4190 C.3    78  VAL78       0.0019
    115  N         10.4790  -22.2450    8.5710 N.3    88  TRP88      -0.1241
    116  CA        10.7550  -21.4590    7.3620 C.3    88  TRP88       0.1605
    117  C         11.6720  -22.2660    6.4340 C.2    88  TRP88       0.2264
    118  O         12.4190  -23.0990    6.9240 O.2    88  TRP88      -0.2867
    119  CB        11.4940  -20.1850    7.6670 C.3    88  TRP88       0.0550
    120  CG        10.7740  -19.1600    8.4950 C.ar   88  TRP88       0.0003
    121  CD1        9.9820  -18.1270    8.0510 C.ar   88  TRP88       0.0946
    122  CD2       10.8470  -19.0380    9.9320 C.ar   88  TRP88       0.0152
    123  NE1        9.5420  -17.3530    9.1580 N.ar   88  TRP88      -0.2442
    124  CE2       10.0420  -17.9090   10.3120 C.ar   88  TRP88       0.0810
    125  CE3       11.4870  -19.7830   10.9290 C.ar   88  TRP88       0.0012
    126  CZ2        9.9100  -17.4900   11.6560 C.ar   88  TRP88       0.0191
    127  CZ3       11.3100  -19.3780   12.2900 C.ar   88  TRP88       0.0001
    128  CH2       10.5230  -18.2550   12.6240 C.ar   88  TRP88       0.0015
    129  N         12.5740  -12.8380    6.2810 N.3   107  ILE107     -0.1245
    130  CA        11.9710  -13.7860    7.1690 C.3   107  ILE107      0.1561
    131  C         10.6570  -13.1560    7.6500 C.2   107  ILE107      0.2260
    132  O         10.6610  -12.1050    8.3300 O.2   107  ILE107     -0.2867
    133  CB        12.8580  -14.0620    8.3970 C.3   107  ILE107      0.0252
    134  CG1       14.3140  -14.4100    7.9710 C.3   107  ILE107      0.0019
    135  CG2       12.1790  -15.1030    9.3050 C.3   107  ILE107      0.0019
    136  CD1       15.3500  -14.3750    9.1260 C.3   107  ILE107      0.0001
    137  N         16.2010  -21.8080   18.0260 N.3   125  ILE125     -0.1245
    138  CA        16.0280  -21.8170   16.5480 C.3   125  ILE125      0.1561
    139  C         16.9660  -22.8860   15.9990 C.2   125  ILE125      0.2260
    140  O         18.1880  -22.8330   16.2310 O.2   125  ILE125     -0.2867
    141  CB        16.2190  -20.4800   15.9730 C.3   125  ILE125      0.0252
    142  CG1       15.0270  -19.5990   16.4730 C.3   125  ILE125      0.0019
    143  CG2       16.1080  -20.5880   14.3620 C.3   125  ILE125      0.0019
    144  CD1       15.1020  -18.1250   15.9950 C.3   125  ILE125      0.0001
    145  N         18.4880  -24.9530   12.8510 N.3   127  THR127     -0.1218
    146  CA        18.7000  -24.6280   11.4230 C.3   127  THR127      0.1862
    147  C         19.3430  -25.8720   10.7630 C.2   127  THR127      0.2287
    148  O         20.3790  -26.3940   11.2490 O.2   127  THR127     -0.2866
    149  CB        19.6680  -23.4600   11.2660 C.3   127  THR127      0.1770
    150  OG1       19.0600  -22.2350   11.6390 O.3   127  THR127     -0.2211
    151  CG2       20.0570  -23.3130    9.7800 C.3   127  THR127      0.0375
    152  N         22.1920  -27.1760   13.3910 N.3   139  SER139     -0.1217
    153  CA        22.7410  -26.3780   14.5340 C.3   139  SER139      0.1889
    154  C         21.6030  -25.7380   15.3020 C.2   139  SER139      0.2288
    155  O         20.4690  -25.6800   14.7780 O.2   139  SER139     -0.2866
    156  CB        23.6150  -25.2820   13.9370 C.3   139  SER139      0.2089
    157  OG        22.9180  -24.4310   13.0650 O.3   139  SER139     -0.2183
    158  N         20.4570  -22.4800   18.1870 N.3   141  VAL141     -0.1245
    159  CA        20.7960  -21.2770   18.8920 C.3   141  VAL141      0.1561
    160  C         19.7000  -21.0540   19.9600 C.2   141  VAL141      0.2260
    161  O         18.5140  -21.0920   19.6190 O.2   141  VAL141     -0.2867
    162  CB        20.7580  -20.0740   17.9750 C.3   141  VAL141      0.0252
    163  CG1       21.2220  -18.8360   18.7840 C.3   141  VAL141      0.0019
    164  CG2       21.7050  -20.2950   16.7490 C.3   141  VAL141      0.0019
    165  N         17.7910  -18.5200   22.3610 N.3   143  LEU143     -0.1245
    166  CA        17.5580  -17.0890   22.3110 C.3   143  LEU143      0.1561
    167  C         17.1820  -16.4770   23.6670 C.2   143  LEU143      0.2260
    168  O         16.3580  -17.0150   24.4070 O.2   143  LEU143     -0.2867
    169  CB        16.4300  -16.7600   21.3590 C.3   143  LEU143      0.0270
    170  CG        17.0440  -16.6300   19.9670 C.3   143  LEU143      0.0019
    171  CD1       16.3320  -17.6380   19.1300 C.3   143  LEU143      0.0001
    172  CD2       17.0920  -15.1940   19.4920 C.3   143  LEU143      0.0001
@<TRIPOS>BOND
     1    91    92    1
     2    86    85    2
     3    94    93    2
     4    92    93    1
     5    92    95    1
     6    85    84    1
     7    75    74    2
     8    96    95    1
     9    96    98    1
    10    96    97    1
    11    83    84    1
    12    90    88    1
    13    82    80    1
    14    87    84    1
    15    87    88    1
    16    74    73    1
    17    89    88    1
    18   129   130    1
    19   117   118    2
    20   117   116    1
    21    80    79    2
    22    80    81    1
    23    72    73    1
    24    79    78    1
    25   130   131    1
    26   130   133    1
    27    73    76    1
    28   116   119    1
    29   116   115    1
    30    76    77    1
    31   131   132    2
    32   119   120    1
    33    68    67    2
    34    77    78    1
    35   134   133    1
    36   134   136    1
    37   121   120   ar
    38   121   123   ar
    39     2     1    1
    40     2     3    1
    41     2     5    1
    42    67    66    1
    43   133   135    1
    44   106   105    2
    45   120   122   ar
    46    99   100    1
    47     3     4    2
    48     6     5    1
    49     6     8    1
    50     6     7    1
    51   105   104    1
    52   105   107   am
    53   123   124   ar
    54   104   103    1
    55    65    66    1
    56    66    69    1
    57   151   149    1
    58    10     9    1
    59    10    13    1
    60    10    11    1
    61   122   124   ar
    62   122   125   ar
    63   103   100    1
    64   100   101    1
    65    14    15    1
    66    14    13    1
    67    52    51    1
    68   124   126   ar
    69   102   101    2
    70    15    16    1
    71    11    12    2
    72    51    48    1
    73   147   148    2
    74   147   146    1
    75    69    70    1
    76    69    71    1
    77   125   127   ar
    78    24    22    1
    79    18    19    1
    80    18    17    1
    81    18    21    1
    82   149   146    1
    83   149   150    1
    84    19    20    2
    85   146   145    1
    86   126   128   ar
    87    50    49    2
    88    48    49    1
    89    48    47    1
    90   127   128   ar
    91    21    22    1
    92    22    23    1
    93    47    41   am
    94   157   156    1
    95   152   153    1
    96    28    27    2
    97   156   153    1
    98    39    40    1
    99    41    42    2
   100    41    40    1
   101    37    35   ar
   102    37    38   ar
   103   143   141    1
   104   153   154    1
   105    35    32   ar
   106    43    40    1
   107    43    44    1
   108    27    26    1
   109   155   154    2
   110   108   109    1
   111    25    26    1
   112    38    36   ar
   113    44    45    1
   114    44    46    1
   115   114   112    1
   116    26    29    1
   117    32    30   ar
   118    32    34   ar
   119   141   142    1
   120   141   138    1
   121   144   142    1
   122   139   140    2
   123   139   138    1
   124    29    30    1
   125   109   112    1
   126   109   110    1
   127   112   113    1
   128    36    34   ar
   129   138   137    1
   130    30    31   ar
   131   164   162    1
   132   111   110    2
   133    34    33   ar
   134   162   163    1
   135   162   159    1
   136    31    33   ar
   137   158   159    1
   138    63    62    1
   139   159   160    1
   140   171   170    1
   141   172   170    1
   142    62    64    1
   143    62    59    1
   144   161   160    2
   145    57    54    1
   146   170   169    1
   147    59    60    1
   148    59    58    1
   149    54    53    1
   150    54    55    1
   151   169   166    1
   152    60    61    2
   153    55    56    2
   154   166   165    1
   155   166   167    1
   156   167   168    2
