@<TRIPOS>MOLECULE
tmp/4jv6A01.pdb
 159 146 0 0 0
SMALL
GASTEIGER

@<TRIPOS>ATOM
      1  N         20.7210   -9.0400   11.3360 N.3    21  LEU21      -0.1245
      2  CA        19.2820   -9.1570   11.2160 C.3    21  LEU21       0.1561
      3  C         18.7550   -7.7130   11.3070 C.2    21  LEU21       0.2260
      4  O         19.2760   -6.9590   12.1260 O.2    21  LEU21      -0.2867
      5  CB        18.7280   -9.9680   12.3970 C.3    21  LEU21       0.0270
      6  CG        19.1040  -11.4770   12.4950 C.3    21  LEU21       0.0019
      7  CD1       18.2980  -12.0250   13.7000 C.3    21  LEU21       0.0001
      8  CD2       18.6760  -12.1390   11.2130 C.3    21  LEU21       0.0001
      9  N         19.0590  -10.9630   21.6460 N.3    47  VAL47      -0.1245
     10  CA        18.5190  -10.0340   20.6700 C.3    47  VAL47       0.1561
     11  C         17.5900   -9.0660   21.3600 C.2    47  VAL47       0.2260
     12  O         17.0660   -9.3820   22.4340 O.2    47  VAL47      -0.2867
     13  CB        17.7210  -10.7680   19.5340 C.3    47  VAL47       0.0252
     14  CG1       18.6540  -11.7990   18.8310 C.3    47  VAL47       0.0019
     15  CG2       16.4680  -11.4420   20.0780 C.3    47  VAL47       0.0019
     16  N         12.4320   -7.0240   18.4910 N.3    51  ILE51      -0.1231
     17  CA        12.4280   -7.8030   17.2480 C.3    51  ILE51       0.1692
     18  C         11.1710   -8.6330   17.1410 C.2    51  ILE51       0.2591
     19  O         10.7120   -8.9550   16.0290 O.2    51  ILE51      -0.2718
     20  CB        13.7110   -8.7490   17.1830 C.3    51  ILE51       0.0266
     21  CG1       14.0310   -9.1580   15.7550 C.3    51  ILE51       0.0019
     22  CG2       13.5330  -10.0410   18.0250 C.3    51  ILE51       0.0020
     23  CD1       15.5310   -9.2640   15.5610 C.3    51  ILE51       0.0001
     24  N         10.5990   -8.9950   18.3090 N.am   52  LEU52      -0.1980
     25  CA         9.3980   -9.8390   18.3430 C.3    52  LEU52       0.1596
     26  C          8.2030   -9.0710   17.7760 C.2    52  LEU52       0.2287
     27  O          7.2160   -9.7000   17.3750 O.2    52  LEU52      -0.2864
     28  CB         9.0210  -10.2930   19.7940 C.3    52  LEU52       0.0297
     29  CG        10.0890  -11.1740   20.3680 C.3    52  LEU52       0.0022
     30  CD1        9.9070  -11.3910   21.8640 C.3    52  LEU52       0.0001
     31  CD2       10.2100  -12.5380   19.6240 C.3    52  LEU52       0.0001
     32  N          8.3680   -7.1810   15.0010 N.3    54  CYS54      -0.1235
     33  CA         8.5430   -6.9070   13.5480 C.3    54  CYS54       0.1677
     34  C          7.6250   -7.7760   12.7880 C.2    54  CYS54       0.2270
     35  O          7.5350   -8.9630   13.0950 O.2    54  CYS54      -0.2867
     36  CB         9.9880   -7.2080   13.1210 C.3    54  CYS54       0.0956
     37  SG        11.2260   -6.1170   13.7860 S.3    54  CYS54      -0.0801
     38  N          8.3520   -8.3940    9.7410 N.3    56  ALA56      -0.1231
     39  CA         9.3580   -9.2290    9.0650 C.3    56  ALA56       0.1694
     40  C         10.7720   -8.7730    9.4050 C.2    56  ALA56       0.2591
     41  O         11.0030   -7.6120    9.8090 O.2    56  ALA56      -0.2718
     42  CB         9.1090   -9.2560    7.5290 C.3    56  ALA56       0.0304
     43  N         11.7210   -9.7180    9.2580 N.am   57  VAL57      -0.1980
     44  CA        13.0940   -9.4450    9.5570 C.3    57  VAL57       0.1595
     45  C         13.9320   -9.8150    8.3130 C.2    57  VAL57       0.2287
     46  O         13.7530  -10.8620    7.7490 O.2    57  VAL57      -0.2864
     47  CB        13.6040  -10.3330   10.7990 C.3    57  VAL57       0.0276
     48  CG1       15.1160  -10.2660   10.9700 C.3    57  VAL57       0.0022
     49  CG2       12.9410   -9.8380   12.1040 C.3    57  VAL57       0.0022
     50  N         11.3940  -22.6800   14.8140 N.3    78  VAL78      -0.1245
     51  CA        11.4550  -22.0610   16.1530 C.3    78  VAL78       0.1561
     52  C         10.7870  -23.0440   17.1170 C.2    78  VAL78       0.2260
     53  O          9.6540  -23.4950   16.8550 O.2    78  VAL78      -0.2867
     54  CB        10.7160  -20.7400   16.2330 C.3    78  VAL78       0.0252
     55  CG1       10.7330  -20.2380   17.7120 C.3    78  VAL78       0.0019
     56  CG2       11.3660  -19.6730   15.4190 C.3    78  VAL78       0.0019
     57  N          6.8420  -24.0390   16.8680 N.3    85  LEU85      -0.1231
     58  CA         5.7740  -23.0600   16.6650 C.3    85  LEU85       0.1693
     59  C          5.7220  -22.5830   15.2230 C.2    85  LEU85       0.2591
     60  O          4.7100  -22.0000   14.8150 O.2    85  LEU85      -0.2718
     61  CB         6.0250  -21.7830   17.4830 C.3    85  LEU85       0.0284
     62  CG         5.5640  -21.7560   18.9640 C.3    85  LEU85       0.0019
     63  CD1        5.1670  -23.0450   19.6140 C.3    85  LEU85       0.0001
     64  CD2        6.4360  -20.9520   19.7760 C.3    85  LEU85       0.0001
     65  N          6.8290  -22.6920   14.4700 N.am   86  GLU86      -0.1979
     66  CA         6.9030  -21.9720   13.1880 C.3    86  GLU86       0.1602
     67  C          8.0530  -22.5430   12.3990 C.2    86  GLU86       0.2287
     68  O          9.0710  -22.8440   13.0110 O.2    86  GLU86      -0.2864
     69  CB         7.2030  -20.5060   13.3920 C.3    86  GLU86       0.0415
     70  CG         7.0540  -19.7560   12.1020 C.3    86  GLU86       0.1163
     71  CD         6.9440  -18.2740   12.2880 C.2    86  GLU86       0.3649
     72  OE1        6.6780  -17.6070   11.2740 O.co2  86  GLU86      -0.2457
     73  OE2        7.1570  -17.7640   13.4280 O.co2  86  GLU86      -0.2457
     74  N         10.4790  -22.2450    8.5710 N.3    88  TRP88      -0.1241
     75  CA        10.7550  -21.4590    7.3620 C.3    88  TRP88       0.1605
     76  C         11.6720  -22.2660    6.4340 C.2    88  TRP88       0.2264
     77  O         12.4190  -23.0990    6.9240 O.2    88  TRP88      -0.2867
     78  CB        11.4940  -20.1850    7.6670 C.3    88  TRP88       0.0550
     79  CG        10.7740  -19.1600    8.4950 C.ar   88  TRP88       0.0003
     80  CD1        9.9820  -18.1270    8.0510 C.ar   88  TRP88       0.0946
     81  CD2       10.8470  -19.0380    9.9320 C.ar   88  TRP88       0.0152
     82  NE1        9.5420  -17.3530    9.1580 N.ar   88  TRP88      -0.2442
     83  CE2       10.0420  -17.9090   10.3120 C.ar   88  TRP88       0.0810
     84  CE3       11.4870  -19.7830   10.9290 C.ar   88  TRP88       0.0012
     85  CZ2        9.9100  -17.4900   11.6560 C.ar   88  TRP88       0.0191
     86  CZ3       11.3100  -19.3780   12.2900 C.ar   88  TRP88       0.0001
     87  CH2       10.5230  -18.2550   12.6240 C.ar   88  TRP88       0.0015
     88  N         12.5740  -12.8380    6.2810 N.3   107  ILE107     -0.1245
     89  CA        11.9710  -13.7860    7.1690 C.3   107  ILE107      0.1561
     90  C         10.6570  -13.1560    7.6500 C.2   107  ILE107      0.2260
     91  O         10.6610  -12.1050    8.3300 O.2   107  ILE107     -0.2867
     92  CB        12.8580  -14.0620    8.3970 C.3   107  ILE107      0.0252
     93  CG1       14.3140  -14.4100    7.9710 C.3   107  ILE107      0.0019
     94  CG2       12.1790  -15.1030    9.3050 C.3   107  ILE107      0.0019
     95  CD1       15.3500  -14.3750    9.1260 C.3   107  ILE107      0.0001
     96  N          7.1610  -13.0730    9.8520 N.3   109  ALA109     -0.1245
     97  CA         6.3400  -13.5890   10.9880 C.3   109  ALA109      0.1562
     98  C          5.0670  -14.3270   10.5410 C.2   109  ALA109      0.2260
     99  O          4.4810  -13.9640    9.5300 O.2   109  ALA109     -0.2867
    100  CB         5.9660  -12.4260   11.9040 C.3   109  ALA109      0.0290
    101  N          2.3370  -13.5220   19.1950 N.3   113  MET113     -0.1230
    102  CA         3.5710  -13.7130   19.8700 C.3   113  MET113      0.1702
    103  C          3.3130  -13.6770   21.3920 C.2   113  MET113      0.2592
    104  O          2.5790  -12.8030   21.8710 O.2   113  MET113     -0.2718
    105  CB         4.5000  -12.5890   19.4150 C.3   113  MET113      0.0401
    106  CG         5.0600  -12.8110   18.0230 C.3   113  MET113      0.0596
    107  SD         6.1190  -14.3060   18.0380 S.3   113  MET113     -0.1393
    108  CE         7.3600  -13.7720   19.1500 C.3   113  MET113      0.0692
    109  N          3.8720  -14.6500   22.1360 N.am  114  MET114     -0.1979
    110  CA         3.9510  -14.5360   23.6280 C.3   114  MET114      0.1605
    111  C          4.9060  -13.3570   23.9290 C.2   114  MET114      0.2287
    112  O          5.7580  -13.0010   23.0860 O.2   114  MET114     -0.2864
    113  CB         4.5220  -15.8230   24.2220 C.3   114  MET114      0.0413
    114  CG         3.4740  -16.9830   24.2550 C.3   114  MET114      0.0598
    115  SD         4.1920  -18.5470   24.8200 S.3   114  MET114     -0.1393
    116  CE         4.8310  -19.1390   23.1910 C.3   114  MET114      0.0692
    117  N          9.1890  -15.9070   26.6150 N.3   119  LEU119     -0.1245
    118  CA         9.9480  -16.5970   25.5380 C.3   119  LEU119      0.1561
    119  C         11.4520  -16.6970   25.9030 C.2   119  LEU119      0.2260
    120  O         12.1330  -17.6560   25.5480 O.2   119  LEU119     -0.2867
    121  CB         9.8580  -15.7560   24.2310 C.3   119  LEU119      0.0270
    122  CG         8.4760  -15.7780   23.5620 C.3   119  LEU119      0.0019
    123  CD1        8.5090  -14.8210   22.3770 C.3   119  LEU119      0.0001
    124  CD2        8.1830  -17.2690   23.1880 C.3   119  LEU119      0.0001
    125  N         13.3700  -20.3410   23.9380 N.3   123  VAL123     -0.1245
    126  CA        13.2340  -20.5160   22.4780 C.3   123  VAL123      0.1561
    127  C         14.5490  -21.0900   21.9420 C.2   123  VAL123      0.2260
    128  O         15.6530  -20.5570   22.2490 O.2   123  VAL123     -0.2867
    129  CB        12.9330  -19.2210   21.8400 C.3   123  VAL123      0.0252
    130  CG1       13.0600  -19.3020   20.2560 C.3   123  VAL123      0.0019
    131  CG2       11.4900  -18.7790   22.1930 C.3   123  VAL123      0.0019
    132  N         16.2010  -21.8080   18.0260 N.3   125  ILE125     -0.1245
    133  CA        16.0280  -21.8170   16.5480 C.3   125  ILE125      0.1561
    134  C         16.9660  -22.8860   15.9990 C.2   125  ILE125      0.2260
    135  O         18.1880  -22.8330   16.2310 O.2   125  ILE125     -0.2867
    136  CB        16.2190  -20.4800   15.9730 C.3   125  ILE125      0.0252
    137  CG1       15.0270  -19.5990   16.4730 C.3   125  ILE125      0.0019
    138  CG2       16.1080  -20.5880   14.3620 C.3   125  ILE125      0.0019
    139  CD1       15.1020  -18.1250   15.9950 C.3   125  ILE125      0.0001
    140  N         17.7910  -18.5200   22.3610 N.3   143  LEU143     -0.1245
    141  CA        17.5580  -17.0890   22.3110 C.3   143  LEU143      0.1561
    142  C         17.1820  -16.4770   23.6670 C.2   143  LEU143      0.2260
    143  O         16.3580  -17.0150   24.4070 O.2   143  LEU143     -0.2867
    144  CB        16.4300  -16.7600   21.3590 C.3   143  LEU143      0.0270
    145  CG        17.0440  -16.6300   19.9670 C.3   143  LEU143      0.0019
    146  CD1       16.3320  -17.6380   19.1300 C.3   143  LEU143      0.0001
    147  CD2       17.0920  -15.1940   19.4920 C.3   143  LEU143      0.0001
    148  N         15.8830  -12.6140   24.8970 N.3   145  TYR145     -0.1241
    149  CA        15.3180  -11.3810   24.4140 C.3   145  TYR145      0.1605
    150  C         15.5250  -10.3530   25.4690 C.2   145  TYR145      0.2264
    151  O         14.9980  -10.5290   26.5640 O.2   145  TYR145     -0.2867
    152  CB        13.8080  -11.5670   24.1520 C.3   145  TYR145      0.0534
    153  CG        13.5620  -12.6960   23.1180 C.ar  145  TYR145     -0.0201
    154  CD1       13.6520  -12.4220   21.7030 C.ar  145  TYR145     -0.0009
    155  CD2       13.2980  -13.9980   23.5400 C.ar  145  TYR145     -0.0009
    156  CE1       13.4370  -13.4620   20.7480 C.ar  145  TYR145      0.0417
    157  CE2       13.1190  -15.0700   22.5810 C.ar  145  TYR145      0.0417
    158  CZ        13.1730  -14.7530   21.2090 C.ar  145  TYR145      0.1957
    159  OH        13.0320  -15.7430   20.3310 O.3   145  TYR145     -0.2866
@<TRIPOS>BOND
     1    88    89    1
     2    76    77    2
     3    76    75    1
     4    89    90    1
     5    89    92    1
     6    75    78    1
     7    75    74    1
     8    42    39    1
     9    90    91    2
    10    78    79    1
    11    46    45    2
    12    93    92    1
    13    93    95    1
    14    80    79   ar
    15    80    82   ar
    16    45    44    1
    17    92    94    1
    18    79    81   ar
    19    39    40    1
    20    39    38    1
    21    82    83   ar
    22    43    40   am
    23    43    44    1
    24    40    41    2
    25    99    98    2
    26    44    47    1
    27    96    97    1
    28    81    83   ar
    29    81    84   ar
    30    83    85   ar
    31    98    97    1
    32    47    48    1
    33    47    49    1
    34    84    86   ar
    35    97   100    1
    36     8     6    1
    37     2     3    1
    38     2     1    1
    39     2     5    1
    40    72    71   ar
    41     3     4    2
    42    85    87   ar
    43    70    71    1
    44    70    69    1
    45    71    73   ar
    46    86    87   ar
    47     5     6    1
    48    67    68    2
    49    67    66    1
    50     6     7    1
    51    34    35    2
    52    34    33    1
    53    36    33    1
    54    36    37    1
    55    66    69    1
    56    66    65    1
    57    33    32    1
    58   138   136    1
    59    65    59   am
    60    50    51    1
    61    60    59    2
    62    59    58    1
    63    56    54    1
    64    23    21    1
    65    21    20    1
    66   136   137    1
    67   136   133    1
    68   139   137    1
    69   134   135    2
    70   134   133    1
    71    19    18    2
    72    51    54    1
    73    51    52    1
    74    54    55    1
    75   133   132    1
    76    58    57    1
    77    58    61    1
    78    53    52    2
    79    18    17    1
    80    18    24   am
    81    20    17    1
    82    20    22    1
    83    17    16    1
    84    27    26    2
    85    61    62    1
    86    26    25    1
    87   106   107    1
    88   106   105    1
    89   107   108    1
    90    24    25    1
    91    25    28    1
    92    14    13    1
    93    62    63    1
    94    62    64    1
    95   146   145    1
    96   101   102    1
    97   105   102    1
    98   147   145    1
    99    13    15    1
   100    13    10    1
   101    31    29    1
   102    28    29    1
   103   102   103    1
   104   145   144    1
   105   130   129    1
   106   159   158    1
   107    29    30    1
   108    10    11    1
   109    10     9    1
   110   156   158   ar
   111   156   154   ar
   112   158   157   ar
   113   144   141    1
   114    11    12    2
   115   103   104    2
   116   103   109   am
   117   154   153   ar
   118   129   131    1
   119   129   126    1
   120   127   128    2
   121   127   126    1
   122   109   110    1
   123   141   140    1
   124   141   142    1
   125   123   122    1
   126   126   125    1
   127   157   155   ar
   128   112   111    2
   129   153   155   ar
   130   153   152    1
   131   124   122    1
   132   116   115    1
   133   122   121    1
   134   110   111    1
   135   110   113    1
   136   142   143    2
   137   152   149    1
   138   113   114    1
   139   121   118    1
   140   114   115    1
   141   149   148    1
   142   149   150    1
   143   150   151    2
   144   118   119    1
   145   118   117    1
   146   120   119    2
