@<TRIPOS>MOLECULE
tmp/4jv8A01.pdb
 168 156 0 0 0
SMALL
GASTEIGER

@<TRIPOS>ATOM
      1  N         18.6760  -13.4380  -11.4990 N.3    21  LEU21      -0.1245
      2  CA        17.9300  -12.2290  -11.3770 C.3    21  LEU21       0.1561
      3  C         16.3990  -12.5080  -11.4980 C.2    21  LEU21       0.2260
      4  O         16.0740  -13.3390  -12.3520 O.2    21  LEU21      -0.2867
      5  CB        18.2800  -11.2220  -12.5240 C.3    21  LEU21       0.0270
      6  CG        19.7770  -10.8310  -12.5720 C.3    21  LEU21       0.0019
      7  CD1       19.9260  -10.0210  -13.9200 C.3    21  LEU21       0.0001
      8  CD2       20.1770   -9.9380  -11.4220 C.3    21  LEU21       0.0001
      9  N         19.3870  -11.0790  -21.6680 N.3    48  VAL48      -0.1245
     10  CA        18.3490  -10.9950  -20.6580 C.3    48  VAL48       0.1561
     11  C         17.0070  -10.7460  -21.3340 C.2    48  VAL48       0.2260
     12  O         16.9540  -10.0980  -22.4010 O.2    48  VAL48      -0.2867
     13  CB        18.5530   -9.9340  -19.5570 C.3    48  VAL48       0.0252
     14  CG1       19.7540  -10.2920  -18.7370 C.3    48  VAL48       0.0019
     15  CG2       18.6280   -8.5520  -20.1270 C.3    48  VAL48       0.0019
     16  N         12.6410   -7.3250  -18.5780 N.3    52  ILE52      -0.1231
     17  CA        13.2830   -6.9870  -17.2780 C.3    52  ILE52       0.1692
     18  C         13.3710   -5.4920  -17.0870 C.2    52  ILE52       0.2591
     19  O         13.3460   -4.9610  -16.0100 O.2    52  ILE52      -0.2718
     20  CB        14.6950   -7.6820  -17.1830 C.3    52  ILE52       0.0266
     21  CG1       15.1190   -7.6290  -15.7150 C.3    52  ILE52       0.0019
     22  CG2       15.7450   -6.8930  -17.9750 C.3    52  ILE52       0.0020
     23  CD1       16.1160   -8.7730  -15.4200 C.3    52  ILE52       0.0001
     24  N         13.4050   -4.7440  -18.2250 N.am   53  LEU53      -0.1980
     25  CA        13.4730   -3.2680  -18.1870 C.3    53  LEU53       0.1596
     26  C         12.2040   -2.6020  -17.6860 C.2    53  LEU53       0.2287
     27  O         12.2460   -1.4050  -17.2760 O.2    53  LEU53      -0.2864
     28  CB        13.7980   -2.7220  -19.6040 C.3    53  LEU53       0.0297
     29  CG        15.1710   -3.1290  -20.1030 C.3    53  LEU53       0.0022
     30  CD1       15.3040   -2.8120  -21.6210 C.3    53  LEU53       0.0001
     31  CD2       16.3430   -2.3620  -19.4600 C.3    53  LEU53       0.0001
     32  N         10.4710   -3.9240  -15.0950 N.3    55  CYS55      -0.1235
     33  CA        10.3220   -4.2310  -13.6480 C.3    55  CYS55       0.1677
     34  C         10.5890   -2.9800  -12.7730 C.2    55  CYS55       0.2270
     35  O         11.5850   -2.2740  -12.9850 O.2    55  CYS55      -0.2867
     36  CB        11.3390   -5.3810  -13.2670 C.3    55  CYS55       0.0956
     37  SG        11.1340   -6.8700  -13.9880 S.3    55  CYS55      -0.0801
     38  N         11.5220   -3.3240   -9.7660 N.3    57  ALA57      -0.1231
     39  CA        12.7680   -3.7280   -9.0450 C.3    57  ALA57       0.1694
     40  C         13.0910   -5.1090   -9.3970 C.2    57  ALA57       0.2591
     41  O         12.2420   -5.9160   -9.7590 O.2    57  ALA57      -0.2718
     42  CB        12.5520   -3.6290   -7.5010 C.3    57  ALA57       0.0304
     43  N         14.4250   -5.4430   -9.3540 N.am   58  VAL58      -0.1980
     44  CA        14.9060   -6.7540   -9.6520 C.3    58  VAL58       0.1595
     45  C         15.6510   -7.2730   -8.4000 C.2    58  VAL58       0.2287
     46  O         16.3580   -6.4940   -7.7600 O.2    58  VAL58      -0.2864
     47  CB        15.9510   -6.7150  -10.8530 C.3    58  VAL58       0.0276
     48  CG1       16.7440   -8.0370  -10.9970 C.3    58  VAL58       0.0022
     49  CG2       15.1960   -6.3780  -12.1740 C.3    58  VAL58       0.0022
     50  N         26.0890    1.3650  -14.7980 N.3    79  VAL79      -0.1245
     51  CA        25.3790    1.0790  -16.0840 C.3    79  VAL79       0.1561
     52  C         25.8490    2.0720  -17.0850 C.2    79  VAL79       0.2260
     53  O         25.5840    3.3030  -16.9100 O.2    79  VAL79      -0.2867
     54  CB        23.8810    1.1710  -15.8820 C.3    79  VAL79       0.0252
     55  CG1       23.2380    0.8510  -17.2360 C.3    79  VAL79       0.0019
     56  CG2       23.3320    0.2100  -14.7290 C.3    79  VAL79       0.0019
     57  N         24.9040    5.9810  -16.8630 N.3    86  LEU86      -0.1231
     58  CA        23.5020    6.3900  -16.6270 C.3    86  LEU86       0.1693
     59  C         23.1260    6.1950  -15.1520 C.2    86  LEU86       0.2591
     60  O         22.2580    6.9810  -14.6740 O.2    86  LEU86      -0.2718
     61  CB        22.4850    5.5730  -17.4430 C.3    86  LEU86       0.0284
     62  CG        22.7570    5.6930  -18.9680 C.3    86  LEU86       0.0019
     63  CD1       21.7010    4.8860  -19.6590 C.3    86  LEU86       0.0001
     64  CD2       22.7810    7.1240  -19.4560 C.3    86  LEU86       0.0001
     65  N         23.6680    5.1610  -14.4510 N.am   87  GLU87      -0.1979
     66  CA        23.2540    4.8570  -13.0890 C.3    87  GLU87       0.1602
     67  C         24.4210    4.2330  -12.3990 C.2    87  GLU87       0.2287
     68  O         25.2450    3.5720  -13.0190 O.2    87  GLU87      -0.2864
     69  CB        22.2560    3.7320  -13.0330 C.3    87  GLU87       0.0415
     70  CG        20.9810    3.8320  -13.8000 C.3    87  GLU87       0.1163
     71  CD        19.9960    2.8380  -13.1780 C.2    87  GLU87       0.3649
     72  OE1       19.4420    3.1340  -12.0890 O.co2  87  GLU87      -0.2457
     73  OE2       19.8090    1.7420  -13.7420 O.co2  87  GLU87      -0.2457
     74  N         25.1720    1.9270   -8.6900 N.3    89  TRP89      -0.1241
     75  CA        24.5980    1.2240   -7.5900 C.3    89  TRP89       0.1605
     76  C         25.7300    0.7910   -6.6330 C.2    89  TRP89       0.2264
     77  O         26.8810    0.5590   -7.0100 O.2    89  TRP89      -0.2867
     78  CB        24.0150   -0.0500   -8.0740 C.3    89  TRP89       0.0550
     79  CG        22.8980    0.1520   -9.1600 C.ar   89  TRP89       0.0003
     80  CD1       21.9830    1.2000   -9.2380 C.ar   89  TRP89       0.0946
     81  CD2       22.6280   -0.7150  -10.2310 C.ar   89  TRP89       0.0152
     82  NE1       21.1810    0.9920  -10.3090 N.ar   89  TRP89      -0.2442
     83  CE2       21.5280   -0.1530  -10.9460 C.ar   89  TRP89       0.0810
     84  CE3       23.1750   -1.9160  -10.6640 C.ar   89  TRP89       0.0012
     85  CZ2       20.9870   -0.7340  -12.1060 C.ar   89  TRP89       0.0191
     86  CZ3       22.6340   -2.5470  -11.8720 C.ar   89  TRP89       0.0001
     87  CH2       21.5400   -1.9330  -12.5460 C.ar   89  TRP89       0.0015
     88  N         17.6350   -4.2700   -6.5680 N.3   108  ILE108     -0.1231
     89  CA        18.0060   -3.2110   -7.4670 C.3   108  ILE108      0.1692
     90  C         16.7240   -2.4920   -7.9520 C.2   108  ILE108      0.2592
     91  O         15.9260   -3.0860   -8.6790 O.2   108  ILE108     -0.2718
     92  CB        18.7580   -3.7590   -8.6450 C.3   108  ILE108      0.0266
     93  CG1       20.0100   -4.5480   -8.1970 C.3   108  ILE108      0.0019
     94  CG2       19.2350   -2.5580   -9.5730 C.3   108  ILE108      0.0020
     95  CD1       19.8710   -5.9980   -8.2480 C.3   108  ILE108      0.0001
     96  N         16.5150   -1.2540   -7.5000 N.am  109  GLU109     -0.1966
     97  CA        15.2520   -0.5470   -7.8690 C.3   109  GLU109      0.1733
     98  C         15.5230    0.2890   -9.1110 C.2   109  GLU109      0.2616
     99  O         16.5820    0.9200   -9.2400 O.2   109  GLU109     -0.2715
    100  CB        14.7950    0.3800   -6.7510 C.3   109  GLU109      0.0429
    101  CG        15.0250   -0.1840   -5.3780 C.3   109  GLU109      0.1163
    102  CD        13.8570    0.0360   -4.4780 C.2   109  GLU109      0.3649
    103  OE1       12.8420   -0.6800   -4.6660 O.co2 109  GLU109     -0.2457
    104  OE2       13.9650    0.9150   -3.5910 O.co2 109  GLU109     -0.2457
    105  N         14.5540    0.3120  -10.0340 N.am  110  ALA110     -0.1977
    106  CA        14.6490    1.2400  -11.1870 C.3   110  ALA110      0.1597
    107  C         14.6450    2.7020  -10.7120 C.2   110  ALA110      0.2287
    108  O         13.9620    2.9840   -9.7360 O.2   110  ALA110     -0.2864
    109  CB        13.4690    1.0150  -12.0850 C.3   110  ALA110      0.0319
    110  N         13.0820    4.6810  -19.1080 N.3   114  MET114     -0.1230
    111  CA        13.9800    3.7240  -19.7610 C.3   114  MET114      0.1702
    112  C         13.8960    3.9170  -21.3140 C.2   114  MET114      0.2592
    113  O         12.8070    4.0930  -21.8910 O.2   114  MET114     -0.2718
    114  CB        13.4930    2.3230  -19.3830 C.3   114  MET114      0.0401
    115  CG        14.3870    1.1250  -19.6880 C.3   114  MET114      0.0596
    116  SD        15.8750    1.2450  -18.6790 S.3   114  MET114     -0.1393
    117  CE        15.2230    0.5650  -17.1060 C.3   114  MET114      0.0692
    118  N         15.0460    3.9370  -21.9890 N.am  115  MET115     -0.1979
    119  CA        15.0090    3.8960  -23.5230 C.3   115  MET115      0.1605
    120  C         14.4890    2.5010  -23.8780 C.2   115  MET115      0.2287
    121  O         14.4860    1.5190  -23.0780 O.2   115  MET115     -0.2864
    122  CB        16.4910    3.9960  -24.0770 C.3   115  MET115      0.0413
    123  CG        16.9160    5.4790  -24.1560 C.3   115  MET115      0.0598
    124  SD        18.6250    5.5860  -24.7150 S.3   115  MET115     -0.1393
    125  CE        19.4600    5.4050  -23.1090 C.3   115  MET115      0.0692
    126  N         18.8150   -0.0380  -26.4800 N.3   120  LEU120     -0.1245
    127  CA        19.8090   -0.4170  -25.4690 C.3   120  LEU120      0.1561
    128  C         20.6150   -1.6250  -25.8670 C.2   120  LEU120      0.2260
    129  O         21.7760   -1.7170  -25.4620 O.2   120  LEU120     -0.2867
    130  CB        19.0590   -0.6920  -24.1300 C.3   120  LEU120      0.0270
    131  CG        18.4240    0.5040  -23.4670 C.3   120  LEU120      0.0019
    132  CD1       17.6890    0.0000  -22.2110 C.3   120  LEU120      0.0001
    133  CD2       19.4250    1.5100  -23.1130 C.3   120  LEU120      0.0001
    134  N         24.7240   -1.4990  -23.8060 N.3   124  VAL124     -0.1245
    135  CA        24.8430   -1.3840  -22.3240 C.3   124  VAL124      0.1561
    136  C         26.0010   -2.2560  -21.8950 C.2   124  VAL124      0.2260
    137  O         26.0720   -3.4620  -22.2370 O.2   124  VAL124     -0.2867
    138  CB        23.5290   -1.7730  -21.7040 C.3   124  VAL124      0.0252
    139  CG1       23.6900   -1.8190  -20.1350 C.3   124  VAL124      0.0019
    140  CG2       22.4660   -0.7600  -22.0290 C.3   124  VAL124      0.0019
    141  N         27.5740   -3.2640  -18.1010 N.3   126  ILE126     -0.1245
    142  CA        27.5550   -3.1890  -16.6060 C.3   126  ILE126      0.1561
    143  C         29.0110   -3.3900  -16.1460 C.2   126  ILE126      0.2260
    144  O         29.6150   -4.4490  -16.4520 O.2   126  ILE126     -0.2867
    145  CB        26.6890   -4.2450  -16.0450 C.3   126  ILE126      0.0252
    146  CG1       25.2720   -4.2940  -16.6410 C.3   126  ILE126      0.0019
    147  CG2       26.6810   -4.0440  -14.4810 C.3   126  ILE126      0.0019
    148  CD1       24.4680   -3.0240  -16.4490 C.3   126  ILE126      0.0001
    149  N         25.3110   -6.2800  -22.3380 N.3   144  LEU144     -0.1245
    150  CA        23.9780   -6.8190  -22.2680 C.3   144  LEU144      0.1561
    151  C         23.1980   -6.7360  -23.5880 C.2   144  LEU144      0.2260
    152  O         23.2860   -5.7190  -24.2930 O.2   144  LEU144     -0.2867
    153  CB        23.1360   -6.0630  -21.2290 C.3   144  LEU144      0.0270
    154  CG        23.6220   -6.2620  -19.7680 C.3   144  LEU144      0.0019
    155  CD1       22.6360   -5.6160  -18.8630 C.3   144  LEU144      0.0001
    156  CD2       23.7980   -7.7770  -19.4360 C.3   144  LEU144      0.0001
    157  N         19.2250   -7.4300  -24.8830 N.3   146  TYR146     -0.1241
    158  CA        17.8160   -7.5590  -24.4330 C.3   146  TYR146      0.1605
    159  C         17.0090   -8.2700  -25.5150 C.2   146  TYR146      0.2264
    160  O         16.9700   -7.7870  -26.6420 O.2   146  TYR146     -0.2867
    161  CB        17.2210   -6.1860  -24.1100 C.3   146  TYR146      0.0534
    162  CG        18.0410   -5.4010  -23.0880 C.ar  146  TYR146     -0.0201
    163  CD1       17.8190   -5.6160  -21.6920 C.ar  146  TYR146     -0.0009
    164  CD2       19.0650   -4.6010  -23.4390 C.ar  146  TYR146     -0.0009
    165  CE1       18.6070   -4.9340  -20.7450 C.ar  146  TYR146      0.0417
    166  CE2       19.9040   -3.9250  -22.4940 C.ar  146  TYR146      0.0417
    167  CZ        19.6590   -4.1110  -21.1610 C.ar  146  TYR146      0.1957
    168  OH        20.4090   -3.4410  -20.2300 O.3   146  TYR146     -0.2866
@<TRIPOS>BOND
     1   160   159    2
     2   126   127    1
     3   128   127    1
     4   128   129    2
     5   159   158    1
     6   127   130    1
     7   157   158    1
     8   124   123    1
     9   124   125    1
    10   158   161    1
    11   152   151    2
    12   123   122    1
    13   130   131    1
    14   161   162    1
    15   122   119    1
    16   120   119    1
    17   120   121    2
    18   134   135    1
    19   151   150    1
    20   119   118    1
    21   131   133    1
    22   131   132    1
    23   164   162   ar
    24   164   166   ar
    25   162   163   ar
    26   166   167   ar
    27    12    11    2
    28   149   150    1
    29   135   136    1
    30   135   138    1
    31   150   153    1
    32   137   136    2
    33   140   138    1
    34   118   112   am
    35   113   112    2
    36   138   139    1
    37   163   165   ar
    38     9    10    1
    39    30    29    1
    40    11    10    1
    41   112   111    1
    42   153   154    1
    43   167   165   ar
    44   167   168    1
    45    10    13    1
    46    15    13    1
    47    29    28    1
    48    29    31    1
    49   154   156    1
    50   154   155    1
    51   111   114    1
    52   111   110    1
    53   115   114    1
    54   115   116    1
    55    63    62    1
    56    28    25    1
    57    13    14    1
    58    64    62    1
    59    62    61    1
    60   116   117    1
    61    16    17    1
    62    24    25    1
    63    24    18   am
    64    25    26    1
    65   141   142    1
    66    22    20    1
    67    26    27    2
    68    61    58    1
    69    17    20    1
    70    17    18    1
    71    55    54    1
    72    20    21    1
    73    18    19    2
    74    52    53    2
    75    52    51    1
    76    57    58    1
    77   146   148    1
    78   146   145    1
    79    58    59    1
    80   142   143    1
    81   142   145    1
    82   144   143    2
    83    51    54    1
    84    51    50    1
    85   145   147    1
    86    54    56    1
    87    21    23    1
    88    59    60    2
    89    59    65   am
    90    32    33    1
    91    65    66    1
    92    37    36    1
    93     7     6    1
    94    70    71    1
    95    70    69    1
    96    73    71   ar
    97    33    36    1
    98    33    34    1
    99    71    72   ar
   100    66    69    1
   101    66    67    1
   102    68    67    2
   103    35    34    2
   104     6     5    1
   105     6     8    1
   106    87    85   ar
   107    87    86   ar
   108     5     2    1
   109     4     3    2
   110    49    47    1
   111    85    83   ar
   112   109   106    1
   113    86    84   ar
   114     1     2    1
   115     3     2    1
   116   106   107    1
   117   106   105    1
   118    48    47    1
   119    83    82   ar
   120    83    81   ar
   121    47    44    1
   122   107   108    2
   123    84    81   ar
   124    82    80   ar
   125    81    79   ar
   126   105    98   am
   127    38    39    1
   128    41    40    2
   129    44    43    1
   130    44    45    1
   131    94    92    1
   132    40    43   am
   133    40    39    1
   134    99    98    2
   135    80    79   ar
   136    79    78    1
   137    98    97    1
   138    39    42    1
   139    74    75    1
   140    91    90    2
   141    92    93    1
   142    92    89    1
   143    45    46    2
   144    95    93    1
   145    78    75    1
   146    90    96   am
   147    90    89    1
   148    97    96    1
   149    97   100    1
   150    75    76    1
   151    89    88    1
   152    77    76    2
   153   100   101    1
   154   101   102    1
   155   103   102   ar
   156   102   104   ar
