@<TRIPOS>MOLECULE
tmp/4jv8A00.pdb
 184 168 0 0 0
SMALL
GASTEIGER

@<TRIPOS>ATOM
      1  N         32.8020  -16.4530   -8.3040 N.3    16  LEU16      -0.1245
      2  CA        31.3660  -16.3130   -8.3590 C.3    16  LEU16       0.1561
      3  C         30.8430  -17.6280   -8.9730 C.2    16  LEU16       0.2260
      4  O         31.1180  -17.9180  -10.1600 O.2    16  LEU16      -0.2867
      5  CB        31.0200  -15.0460   -9.1760 C.3    16  LEU16       0.0270
      6  CG        29.5950  -14.5890   -9.1420 C.3    16  LEU16       0.0019
      7  CD1       29.5240  -13.1400   -9.8330 C.3    16  LEU16       0.0001
      8  CD2       28.7200  -15.4690   -9.9120 C.3    16  LEU16       0.0001
      9  N         24.4860  -17.1040  -10.2510 N.3    19  MET19      -0.1245
     10  CA        23.7800  -15.8720   -9.9980 C.3    19  MET19       0.1570
     11  C         22.3870  -16.0220  -10.6640 C.2    19  MET19       0.2261
     12  O         22.3380  -16.6570  -11.7150 O.2    19  MET19      -0.2867
     13  CB        24.5830  -14.6560  -10.5520 C.3    19  MET19       0.0387
     14  CG        23.8560  -13.3450  -10.2740 C.3    19  MET19       0.0595
     15  SD        25.0290  -12.0350  -10.5660 S.3    19  MET19      -0.1393
     16  CE        25.6690  -12.5590  -12.1590 C.3    19  MET19       0.0692
     17  N         18.6760  -13.4380  -11.4990 N.3    21  LEU21      -0.1245
     18  CA        17.9300  -12.2290  -11.3770 C.3    21  LEU21       0.1561
     19  C         16.3990  -12.5080  -11.4980 C.2    21  LEU21       0.2260
     20  O         16.0740  -13.3390  -12.3520 O.2    21  LEU21      -0.2867
     21  CB        18.2800  -11.2220  -12.5240 C.3    21  LEU21       0.0270
     22  CG        19.7770  -10.8310  -12.5720 C.3    21  LEU21       0.0019
     23  CD1       19.9260  -10.0210  -13.9200 C.3    21  LEU21       0.0001
     24  CD2       20.1770   -9.9380  -11.4220 C.3    21  LEU21       0.0001
     25  N         16.6930  -14.5160  -15.3060 N.3    31  TRP31      -0.1241
     26  CA        17.9660  -14.8450  -15.8490 C.3    31  TRP31       0.1605
     27  C         18.7030  -15.6910  -14.7920 C.2    31  TRP31       0.2264
     28  O         18.5940  -15.3300  -13.6050 O.2    31  TRP31      -0.2867
     29  CB        18.7980  -13.5470  -16.1490 C.3    31  TRP31       0.0550
     30  CG        20.1300  -13.8360  -16.7740 C.ar   31  TRP31       0.0003
     31  CD1       20.3860  -13.9750  -18.1040 C.ar   31  TRP31       0.0946
     32  CD2       21.3550  -14.1480  -16.1110 C.ar   31  TRP31       0.0152
     33  NE1       21.6990  -14.3190  -18.3260 N.ar   31  TRP31      -0.2442
     34  CE2       22.3330  -14.4330  -17.1050 C.ar   31  TRP31       0.0810
     35  CE3       21.7390  -14.1790  -14.7540 C.ar   31  TRP31       0.0012
     36  CZ2       23.6980  -14.7830  -16.7480 C.ar   31  TRP31       0.0191
     37  CZ3       23.1000  -14.5540  -14.4310 C.ar   31  TRP31       0.0001
     38  CH2       24.0180  -14.8630  -15.4060 C.ar   31  TRP31       0.0015
     39  N         30.8800  -14.2890  -14.2080 N.3    37  LEU37      -0.1231
     40  CA        30.8910  -13.0670  -14.9990 C.3    37  LEU37       0.1693
     41  C         31.6780  -11.9980  -14.4030 C.2    37  LEU37       0.2592
     42  O         31.7970  -10.9500  -15.1100 O.2    37  LEU37      -0.2718
     43  CB        29.4110  -12.5300  -15.0920 C.3    37  LEU37       0.0284
     44  CG        28.5360  -13.5460  -15.7340 C.3    37  LEU37       0.0019
     45  CD1       27.1370  -12.9120  -15.9000 C.3    37  LEU37       0.0001
     46  CD2       28.9750  -13.9320  -16.9970 C.3    37  LEU37       0.0001
     47  N         32.2960  -12.2160  -13.2410 N.am   38  SER38      -0.1952
     48  CA        33.1770  -11.1730  -12.7090 C.3    38  SER38       0.1924
     49  C         34.6580  -11.4090  -12.9660 C.2    38  SER38       0.2314
     50  O         35.4870  -10.6320  -12.4780 O.2    38  SER38      -0.2863
     51  CB        33.0130  -11.0940  -11.2410 C.3    38  SER38       0.2116
     52  OG        33.5870  -12.0980  -10.5270 O.3    38  SER38      -0.2180
     53  N         25.7990  -11.1750  -21.7780 N.3    46  ALA46      -0.1245
     54  CA        24.6400  -11.8490  -21.2710 C.3    46  ALA46       0.1562
     55  C         23.4110  -11.4360  -22.0230 C.2    46  ALA46       0.2260
     56  O         23.3880  -10.2340  -22.4540 O.2    46  ALA46      -0.2867
     57  CB        24.4400  -11.5750  -19.7700 C.3    46  ALA46       0.0290
     58  N         19.3870  -11.0790  -21.6680 N.3    48  VAL48      -0.1245
     59  CA        18.3490  -10.9950  -20.6580 C.3    48  VAL48       0.1561
     60  C         17.0070  -10.7460  -21.3340 C.2    48  VAL48       0.2260
     61  O         16.9540  -10.0980  -22.4010 O.2    48  VAL48      -0.2867
     62  CB        18.5530   -9.9340  -19.5570 C.3    48  VAL48       0.0252
     63  CG1       19.7540  -10.2920  -18.7370 C.3    48  VAL48       0.0019
     64  CG2       18.6280   -8.5520  -20.1270 C.3    48  VAL48       0.0019
     65  N         12.6410   -7.3250  -18.5780 N.3    52  ILE52      -0.1245
     66  CA        13.2830   -6.9870  -17.2780 C.3    52  ILE52       0.1561
     67  C         13.3710   -5.4920  -17.0870 C.2    52  ILE52       0.2260
     68  O         13.3460   -4.9610  -16.0100 O.2    52  ILE52      -0.2867
     69  CB        14.6950   -7.6820  -17.1830 C.3    52  ILE52       0.0252
     70  CG1       15.1190   -7.6290  -15.7150 C.3    52  ILE52       0.0019
     71  CG2       15.7450   -6.8930  -17.9750 C.3    52  ILE52       0.0019
     72  CD1       16.1160   -8.7730  -15.4200 C.3    52  ILE52       0.0001
     73  N         14.4250   -5.4430   -9.3540 N.3    58  VAL58      -0.1245
     74  CA        14.9060   -6.7540   -9.6520 C.3    58  VAL58       0.1561
     75  C         15.6510   -7.2730   -8.4000 C.2    58  VAL58       0.2260
     76  O         16.3580   -6.4940   -7.7600 O.2    58  VAL58      -0.2867
     77  CB        15.9510   -6.7150  -10.8530 C.3    58  VAL58       0.0252
     78  CG1       16.7440   -8.0370  -10.9970 C.3    58  VAL58       0.0019
     79  CG2       15.1960   -6.3780  -12.1740 C.3    58  VAL58       0.0019
     80  N         18.4480   -9.8410   -6.9320 N.3    60  ARG60      -0.1301
     81  CA        19.6090  -10.6840   -7.3470 C.3    60  ARG60       0.1248
     82  C         20.0630  -11.6840   -6.2640 C.3    60  ARG60       0.2009
     83  O         20.0480  -11.1910   -5.0750 O.3    60  ARG60      -0.2188
     84  CB        20.7200   -9.7130   -7.6530 C.3    60  ARG60       0.0254
     85  CG        22.0350  -10.4590   -8.0470 C.3    60  ARG60       0.0485
     86  CD        23.1800   -9.4500   -8.3960 C.3    60  ARG60       0.2205
     87  NE        23.5020   -8.6470   -7.1890 N.pl3  60  ARG60      -0.0865
     88  CZ        23.9830   -7.3920   -7.2320 C.cat  60  ARG60       0.5346
     89  NH1       24.2360   -6.7760   -8.4150 N.pl3  60  ARG60       0.1354
     90  NH2       24.2260   -6.7000   -6.0660 N.pl3  60  ARG60       0.1354
     91  N         23.4890  -13.9660   -5.5910 N.3    62  LEU62      -0.1245
     92  CA        24.8820  -14.0270   -6.1030 C.3    62  LEU62       0.1561
     93  C         25.5430  -15.0250   -5.1320 C.2    62  LEU62       0.2260
     94  O         25.6840  -14.6370   -3.9400 O.2    62  LEU62      -0.2867
     95  CB        25.5220  -12.6190   -6.0320 C.3    62  LEU62       0.0270
     96  CG        26.8160  -12.2680   -6.7220 C.3    62  LEU62       0.0019
     97  CD1       26.9160  -10.7140   -6.7530 C.3    62  LEU62       0.0001
     98  CD2       27.9280  -12.9510   -5.8980 C.3    62  LEU62       0.0001
     99  N         30.3030   -4.0460   -3.3660 N.3    75  LEU75      -0.1301
    100  CA        30.2820   -3.8750   -4.8500 C.3    75  LEU75       0.1247
    101  C         29.9060   -2.4690   -5.2640 C.3    75  LEU75       0.2009
    102  O         28.9800   -1.8470   -4.5960 O.3    75  LEU75      -0.2188
    103  CB        29.1900   -4.7770   -5.4020 C.3    75  LEU75       0.0217
    104  CG        29.3110   -6.2300   -5.4460 C.3    75  LEU75       0.0015
    105  CD1       28.0210   -6.8540   -6.2060 C.3    75  LEU75       0.0000
    106  CD2       30.6270   -6.7240   -5.8880 C.3    75  LEU75       0.0000
    107  N         28.6410   -0.7600   -8.9140 N.3    77  GLN77      -0.1245
    108  CA        28.2940   -1.1230  -10.3080 C.3    77  GLN77       0.1566
    109  C         27.8200    0.0830  -11.0570 C.2    77  GLN77       0.2260
    110  O         27.1380    0.9730  -10.4890 O.2    77  GLN77      -0.2867
    111  CB        27.2200   -2.1540  -10.3260 C.3    77  GLN77       0.0367
    112  CG        27.7400   -3.5000   -9.7960 C.3    77  GLN77       0.0905
    113  CD        26.6640   -4.5870   -9.8090 C.2    77  GLN77       0.2608
    114  OE1       25.6130   -4.4230   -9.1470 O.2    77  GLN77      -0.2717
    115  NE2       26.8390   -5.6480  -10.5580 N.am   77  GLN77      -0.0878
    116  N         25.1720    1.9270   -8.6900 N.3    89  TRP89      -0.1241
    117  CA        24.5980    1.2240   -7.5900 C.3    89  TRP89       0.1605
    118  C         25.7300    0.7910   -6.6330 C.2    89  TRP89       0.2264
    119  O         26.8810    0.5590   -7.0100 O.2    89  TRP89      -0.2867
    120  CB        24.0150   -0.0500   -8.0740 C.3    89  TRP89       0.0550
    121  CG        22.8980    0.1520   -9.1600 C.ar   89  TRP89       0.0003
    122  CD1       21.9830    1.2000   -9.2380 C.ar   89  TRP89       0.0946
    123  CD2       22.6280   -0.7150  -10.2310 C.ar   89  TRP89       0.0152
    124  NE1       21.1810    0.9920  -10.3090 N.ar   89  TRP89      -0.2442
    125  CE2       21.5280   -0.1530  -10.9460 C.ar   89  TRP89       0.0810
    126  CE3       23.1750   -1.9160  -10.6640 C.ar   89  TRP89       0.0012
    127  CZ2       20.9870   -0.7340  -12.1060 C.ar   89  TRP89       0.0191
    128  CZ3       22.6340   -2.5470  -11.8720 C.ar   89  TRP89       0.0001
    129  CH2       21.5400   -1.9330  -12.5460 C.ar   89  TRP89       0.0015
    130  N         17.6350   -4.2700   -6.5680 N.3   108  ILE108     -0.1245
    131  CA        18.0060   -3.2110   -7.4670 C.3   108  ILE108      0.1561
    132  C         16.7240   -2.4920   -7.9520 C.2   108  ILE108      0.2260
    133  O         15.9260   -3.0860   -8.6790 O.2   108  ILE108     -0.2867
    134  CB        18.7580   -3.7590   -8.6450 C.3   108  ILE108      0.0252
    135  CG1       20.0100   -4.5480   -8.1970 C.3   108  ILE108      0.0019
    136  CG2       19.2350   -2.5580   -9.5730 C.3   108  ILE108      0.0019
    137  CD1       19.8710   -5.9980   -8.2480 C.3   108  ILE108      0.0001
    138  N         27.5740   -3.2640  -18.1010 N.3   126  ILE126     -0.1245
    139  CA        27.5550   -3.1890  -16.6060 C.3   126  ILE126      0.1561
    140  C         29.0110   -3.3900  -16.1460 C.2   126  ILE126      0.2260
    141  O         29.6150   -4.4490  -16.4520 O.2   126  ILE126     -0.2867
    142  CB        26.6890   -4.2450  -16.0450 C.3   126  ILE126      0.0252
    143  CG1       25.2720   -4.2940  -16.6410 C.3   126  ILE126      0.0019
    144  CG2       26.6810   -4.0440  -14.4810 C.3   126  ILE126      0.0019
    145  CD1       24.4680   -3.0240  -16.4490 C.3   126  ILE126      0.0001
    146  N         31.3620   -3.8450  -13.0150 N.3   128  THR128     -0.1218
    147  CA        31.2710   -4.2800  -11.5920 C.3   128  THR128      0.1862
    148  C         32.6650   -4.2120  -10.9960 C.2   128  THR128      0.2287
    149  O         33.6450   -4.7880  -11.5020 O.2   128  THR128     -0.2866
    150  CB        30.8010   -5.7030  -11.7080 C.3   128  THR128      0.1770
    151  OG1       29.3760   -5.6930  -12.0480 O.3   128  THR128     -0.2211
    152  CG2       30.9120   -6.4020  -10.3660 C.3   128  THR128      0.0375
    153  N         34.4770   -5.0940   -7.3860 N.3   130  PHE130     -0.1241
    154  CA        34.3820   -5.7040   -6.0560 C.3   130  PHE130      0.1605
    155  C         35.5340   -5.1410   -5.2470 C.2   130  PHE130      0.2264
    156  O         36.6620   -5.0070   -5.6270 O.2   130  PHE130     -0.2867
    157  CB        34.6140   -7.2330   -6.1760 C.3   130  PHE130      0.0534
    158  CG        33.3230   -8.0060   -6.5480 C.ar  130  PHE130     -0.0203
    159  CD1       32.2040   -8.0830   -5.6950 C.ar  130  PHE130     -0.0042
    160  CD2       33.2380   -8.5610   -7.8050 C.ar  130  PHE130     -0.0042
    161  CE1       31.0820   -8.8320   -6.0750 C.ar  130  PHE130     -0.0003
    162  CE2       32.0740   -9.3260   -8.1980 C.ar  130  PHE130     -0.0003
    163  CZ        31.0350   -9.4620   -7.3340 C.ar  130  PHE130     -0.0000
    164  N         35.2930   -5.7850  -13.6680 N.3   140  SER140     -0.1217
    165  CA        34.8790   -6.6910  -14.8050 C.3   140  SER140      0.1889
    166  C         33.7120   -6.0120  -15.4680 C.2   140  SER140      0.2288
    167  O         33.0910   -5.0770  -14.9440 O.2   140  SER140     -0.2866
    168  CB        34.5250   -8.0590  -14.2530 C.3   140  SER140      0.2089
    169  OG        33.5020   -7.9800  -13.2850 O.3   140  SER140     -0.2183
    170  N         30.2500   -6.6980  -18.2810 N.3   142  VAL142     -0.1245
    171  CA        29.3450   -7.5450  -19.0570 C.3   142  VAL142      0.1561
    172  C         28.5970   -6.6460  -20.0210 C.2   142  VAL142      0.2260
    173  O         27.9520   -5.6330  -19.6200 O.2   142  VAL142     -0.2867
    174  CB        28.2860   -8.2360  -18.1630 C.3   142  VAL142      0.0252
    175  CG1       27.3820   -9.1750  -18.9340 C.3   142  VAL142      0.0019
    176  CG2       28.9800   -9.0950  -17.0160 C.3   142  VAL142      0.0019
    177  N         25.3110   -6.2800  -22.3380 N.3   144  LEU144     -0.1245
    178  CA        23.9780   -6.8190  -22.2680 C.3   144  LEU144      0.1561
    179  C         23.1980   -6.7360  -23.5880 C.2   144  LEU144      0.2260
    180  O         23.2860   -5.7190  -24.2930 O.2   144  LEU144     -0.2867
    181  CB        23.1360   -6.0630  -21.2290 C.3   144  LEU144      0.0270
    182  CG        23.6220   -6.2620  -19.7680 C.3   144  LEU144      0.0019
    183  CD1       22.6360   -5.6160  -18.8630 C.3   144  LEU144      0.0001
    184  CD2       23.7980   -7.7770  -19.4360 C.3   144  LEU144      0.0001
@<TRIPOS>BOND
     1   180   179    2
     2   179   178    1
     3    56    55    2
     4    61    60    2
     5   177   178    1
     6   178   181    1
     7    55    54    1
     8    53    54    1
     9    58    59    1
    10    60    59    1
    11    54    57    1
    12   181   182    1
    13    59    62    1
    14    64    62    1
    15   172   173    2
    16   172   171    1
    17   182   184    1
    18   182   183    1
    19    62    63    1
    20   171   170    1
    21   171   174    1
    22   175   174    1
    23    65    66    1
    24    33    31   ar
    25    33    34   ar
    26   174   176    1
    27    31    30   ar
    28   138   139    1
    29    71    69    1
    30    66    69    1
    31    66    67    1
    32    69    70    1
    33    34    36   ar
    34    34    32   ar
    35    67    68    2
    36    46    44    1
    37    30    29    1
    38    30    32   ar
    39    36    38   ar
    40   143   145    1
    41   143   142    1
    42   139   140    1
    43   139   142    1
    44   141   140    2
    45    29    26    1
    46    32    35   ar
    47   142   144    1
    48    45    44    1
    49    26    25    1
    50    26    27    1
    51    44    43    1
    52    70    72    1
    53   166   167    2
    54   166   165    1
    55    38    37   ar
    56    42    41    2
    57    43    40    1
    58    40    41    1
    59    40    39    1
    60   165   168    1
    61   165   164    1
    62    27    28    2
    63    35    37   ar
    64    41    47   am
    65   168   169    1
    66    23    22    1
    67    47    48    1
    68   146   147    1
    69    49    48    1
    70    49    50    2
    71    48    51    1
    72    22    21    1
    73    22    24    1
    74   129   127   ar
    75   129   128   ar
    76    21    18    1
    77    20    19    2
    78    79    77    1
    79    16    15    1
    80   127   125   ar
    81   151   150    1
    82   128   126   ar
    83    12    11    2
    84   150   147    1
    85   150   152    1
    86   147   148    1
    87   149   148    2
    88    17    18    1
    89    19    18    1
    90    51    52    1
    91   109   110    2
    92   109   108    1
    93    78    77    1
    94   125   124   ar
    95   125   123   ar
    96    77    74    1
    97   126   123   ar
    98    11    10    1
    99    15    14    1
   100   115   113   am
   101    13    14    1
   102    13    10    1
   103   111   108    1
   104   111   112    1
   105   124   122   ar
   106   108   107    1
   107     9    10    1
   108   123   121   ar
   109     4     3    2
   110     8     6    1
   111     7     6    1
   112   113   112    1
   113   113   114    2
   114    74    73    1
   115    74    75    1
   116   136   134    1
   117   122   121   ar
   118     5     6    1
   119     5     2    1
   120   121   120    1
   121     3     2    1
   122   116   117    1
   123   133   132    2
   124   134   135    1
   125   134   131    1
   126    89    88    1
   127    75    76    2
   128    86    85    1
   129    86    87    1
   130     2     1    1
   131   137   135    1
   132   162   160   ar
   133   162   163   ar
   134   120   117    1
   135    85    84    1
   136   132   131    1
   137   160   158   ar
   138    84    81    1
   139   117   118    1
   140   131   130    1
   141   153   154    1
   142    81    80    1
   143    81    82    1
   144   163   161   ar
   145    88    87    2
   146    88    90    1
   147   119   118    2
   148    97    96    1
   149    96    95    1
   150    96    98    1
   151   158   157    1
   152   158   159   ar
   153    82    83    1
   154   105   104    1
   155   157   154    1
   156    92    95    1
   157    92    91    1
   158    92    93    1
   159   161   159   ar
   160   154   155    1
   161   106   104    1
   162   156   155    2
   163   104   103    1
   164   103   100    1
   165   101   100    1
   166   101   102    1
   167    93    94    2
   168   100    99    1
