@<TRIPOS>MOLECULE
tmp/4jv9A00.pdb
 130 123 0 0 0
SMALL
GASTEIGER

@<TRIPOS>ATOM
      1  N          4.2130  -22.8510   -1.0050 N.3    26  LYS26      -0.1245
      2  CA         3.7760  -23.8920   -1.9130 C.3    26  LYS26       0.1561
      3  C          4.9030  -24.3270   -2.8380 C.2    26  LYS26       0.2260
      4  O          4.9960  -25.4970   -3.2060 O.2    26  LYS26      -0.2867
      5  CB         2.5930  -23.4110   -2.7400 C.3    26  LYS26       0.0271
      6  CG         2.0780  -24.4560   -3.6830 C.3    26  LYS26       0.0035
      7  CD         1.1060  -23.8540   -4.6680 C.3    26  LYS26       0.0206
      8  CE         0.4640  -24.9440   -5.5210 C.3    26  LYS26       0.1093
      9  NZ        -0.2900  -24.3480   -6.6580 N.3    26  LYS26      -0.1314
     10  N          7.4560  -26.4940   -0.7140 N.3    29  LEU29      -0.1231
     11  CA         6.9240  -27.8340   -0.5580 C.3    29  LEU29       0.1693
     12  C          6.9650  -28.6310   -1.8430 C.2    29  LEU29       0.2592
     13  O          7.2140  -29.8340   -1.8240 O.2    29  LEU29      -0.2718
     14  CB         5.4920  -27.7590   -0.0390 C.3    29  LEU29       0.0284
     15  CG         5.3290  -27.3750    1.4320 C.3    29  LEU29       0.0019
     16  CD1        3.8790  -27.0150    1.6890 C.3    29  LEU29       0.0001
     17  CD2        5.7740  -28.5240    2.3210 C.3    29  LEU29       0.0001
     18  N          6.7250  -27.9540   -2.9610 N.am   30  PHE30      -0.1976
     19  CA         6.7470  -28.6140   -4.2530 C.3    30  PHE30       0.1639
     20  C          8.1450  -29.1730   -4.5480 C.2    30  PHE30       0.2290
     21  O          8.2840  -30.3330   -4.9290 O.2    30  PHE30      -0.2864
     22  CB         6.3390  -27.6440   -5.3560 C.3    30  PHE30       0.0560
     23  CG         6.2580  -28.2840   -6.7110 C.ar   30  PHE30      -0.0200
     24  CD1        5.0550  -28.7960   -7.1880 C.ar   30  PHE30      -0.0042
     25  CD2        7.4010  -28.4250   -7.4940 C.ar   30  PHE30      -0.0042
     26  CE1        4.9960  -29.4360   -8.4280 C.ar   30  PHE30      -0.0003
     27  CE2        7.3500  -29.0610   -8.7250 C.ar   30  PHE30      -0.0003
     28  CZ         6.1480  -29.5690   -9.1940 C.ar   30  PHE30      -0.0000
     29  N         10.6510  -29.4340   -2.3050 N.3    32  LEU32      -0.1231
     30  CA        11.0290  -30.3050   -1.2140 C.3    32  LEU32       0.1693
     31  C         10.4880  -31.6970   -1.5470 C.2    32  LEU32       0.2593
     32  O         11.1950  -32.6980   -1.4360 O.2    32  LEU32      -0.2718
     33  CB        10.4210  -29.8080    0.0920 C.3    32  LEU32       0.0284
     34  CG        10.6670  -30.7340    1.2730 C.3    32  LEU32       0.0019
     35  CD1       12.1650  -30.9730    1.4030 C.3    32  LEU32       0.0001
     36  CD2       10.0910  -30.1200    2.5490 C.3    32  LEU32       0.0001
     37  N          9.2320  -31.7380   -1.9810 N.am   33  GLY33      -0.1942
     38  CA         8.5990  -32.9960   -2.3280 C.3    33  GLY33       0.2014
     39  C          9.1870  -33.7010   -3.5340 C.2    33  GLY33       0.2638
     40  O          9.2160  -34.9290   -3.5700 O.2    33  GLY33      -0.2714
     41  N          9.6420  -32.9330   -4.5230 N.am   34  GLN34      -0.1977
     42  CA        10.2390  -33.5090   -5.7170 C.3    34  GLN34       0.1601
     43  C         11.6070  -34.0690   -5.3560 C.2    34  GLN34       0.2287
     44  O         12.1380  -34.9370   -6.0360 O.2    34  GLN34      -0.2864
     45  CB        10.3870  -32.4540   -6.8090 C.3    34  GLN34       0.0394
     46  CG        11.0290  -32.9680   -8.0780 C.3    34  GLN34       0.0908
     47  CD        11.1790  -31.8920   -9.1320 C.2    34  GLN34       0.2608
     48  OE1       11.9590  -32.0260  -10.0630 O.2    34  GLN34      -0.2717
     49  NE2       10.4280  -30.8210   -8.9920 N.am   34  GLN34      -0.0878
     50  N         12.2990  -35.5390   -2.3570 N.3    36  ILE36      -0.1231
     51  CA        11.9780  -36.7660   -1.6310 C.3    36  ILE36       0.1692
     52  C         11.6270  -37.8620   -2.6210 C.2    36  ILE36       0.2591
     53  O         12.1010  -38.9870   -2.5210 O.2    36  ILE36      -0.2718
     54  CB        10.7540  -36.5400   -0.7230 C.3    36  ILE36       0.0266
     55  CG1       11.1510  -35.7080    0.4910 C.3    36  ILE36       0.0019
     56  CG2       10.1270  -37.8580   -0.3420 C.3    36  ILE36       0.0020
     57  CD1       10.0010  -34.9050    1.0750 C.3    36  ILE36       0.0001
     58  N         10.7680  -37.5050   -3.5690 N.am   37  MET37      -0.1979
     59  CA        10.3080  -38.4200   -4.6020 C.3    37  MET37       0.1605
     60  C         11.4290  -38.8210   -5.5630 C.2    37  MET37       0.2287
     61  O         11.5160  -39.9770   -5.9570 O.2    37  MET37      -0.2864
     62  CB         9.1410  -37.7990   -5.3820 C.3    37  MET37       0.0413
     63  CG         7.8540  -37.6180   -4.5810 C.3    37  MET37       0.0598
     64  SD         7.3650  -39.0710   -3.6360 S.3    37  MET37      -0.1393
     65  CE         6.9670  -40.2640   -4.8600 C.3    37  MET37       0.0692
     66  N         11.1350  -42.1880    0.6230 N.3    42  TYR42      -0.1241
     67  CA         9.9330  -42.7670    1.2040 C.3    42  TYR42       0.1605
     68  C         10.0200  -44.2910    1.1840 C.2    42  TYR42       0.2264
     69  O         10.7860  -44.8640    0.4110 O.2    42  TYR42      -0.2867
     70  CB         8.6960  -42.3030    0.4200 C.3    42  TYR42       0.0534
     71  CG         8.6320  -42.7850   -1.0160 C.ar   42  TYR42      -0.0201
     72  CD1        8.0630  -44.0150   -1.3380 C.ar   42  TYR42      -0.0009
     73  CD2        9.1600  -42.0150   -2.0480 C.ar   42  TYR42      -0.0009
     74  CE1        8.0220  -44.4600   -2.6470 C.ar   42  TYR42       0.0417
     75  CE2        9.1330  -42.4550   -3.3600 C.ar   42  TYR42       0.0417
     76  CZ         8.5620  -43.6760   -3.6550 C.ar   42  TYR42       0.1957
     77  OH         8.5420  -44.1090   -4.9590 O.3    42  TYR42      -0.2866
     78  N          4.3440  -45.6960    2.1400 N.3    47  GLN47      -0.1245
     79  CA         4.6830  -44.5150    1.3590 C.3    47  GLN47       0.1566
     80  C          4.5500  -43.1250    1.9450 C.2    47  GLN47       0.2260
     81  O          4.9520  -42.1570    1.3060 O.2    47  GLN47      -0.2867
     82  CB         3.9390  -44.5760    0.0280 C.3    47  GLN47       0.0367
     83  CG         4.3720  -45.7410   -0.8220 C.3    47  GLN47       0.0905
     84  CD         3.5680  -45.8650   -2.0830 C.2    47  GLN47       0.2608
     85  OE1        2.5820  -45.1490   -2.2780 O.2    47  GLN47      -0.2717
     86  NE2        3.9740  -46.7820   -2.9520 N.am   47  GLN47      -0.0878
     87  N          9.0390  -41.2290    5.5550 N.3    50  VAL50      -0.1245
     88  CA        10.2730  -40.8150    4.9090 C.3    50  VAL50       0.1561
     89  C         11.5140  -41.1030    5.7470 C.2    50  VAL50       0.2260
     90  O         11.5600  -40.7830    6.9310 O.2    50  VAL50      -0.2867
     91  CB        10.2170  -39.3060    4.5580 C.3    50  VAL50       0.0252
     92  CG1       11.5300  -38.8570    3.9530 C.3    50  VAL50       0.0019
     93  CG2        9.0800  -39.0470    3.5830 C.3    50  VAL50       0.0019
     94  N         16.2210  -31.0740    8.7700 N.3    61  PHE61      -0.1241
     95  CA        15.1230  -31.3010    9.6990 C.3    61  PHE61       0.1605
     96  C         15.5120  -31.7470   11.1040 C.2    61  PHE61       0.2264
     97  O         14.7150  -31.6580   12.0300 O.2    61  PHE61      -0.2867
     98  CB        14.1840  -32.3470    9.1020 C.3    61  PHE61       0.0534
     99  CG        13.1970  -31.8030    8.1100 C.ar   61  PHE61      -0.0203
    100  CD1       13.3180  -30.5200    7.5890 C.ar   61  PHE61      -0.0042
    101  CD2       12.1470  -32.6030    7.6800 C.ar   61  PHE61      -0.0042
    102  CE1       12.3830  -30.0280    6.6730 C.ar   61  PHE61      -0.0003
    103  CE2       11.2140  -32.1330    6.7720 C.ar   61  PHE61      -0.0003
    104  CZ        11.3370  -30.8430    6.2540 C.ar   61  PHE61      -0.0000
    105  N         10.3190  -39.1050    9.2080 N.3    66  PHE66      -0.1241
    106  CA         9.1020  -38.3680    9.4980 C.3    66  PHE66       0.1605
    107  C          8.0000  -38.8030    8.5440 C.2    66  PHE66       0.2264
    108  O          8.2710  -39.4410    7.5280 O.2    66  PHE66      -0.2867
    109  CB         9.3510  -36.8590    9.3920 C.3    66  PHE66       0.0534
    110  CG         9.6100  -36.3780    7.9960 C.ar   66  PHE66      -0.0203
    111  CD1        8.5520  -36.0400    7.1570 C.ar   66  PHE66      -0.0042
    112  CD2       10.9110  -36.2650    7.5160 C.ar   66  PHE66      -0.0042
    113  CE1        8.7850  -35.6000    5.8580 C.ar   66  PHE66      -0.0003
    114  CE2       11.1540  -35.8250    6.2210 C.ar   66  PHE66      -0.0003
    115  CZ        10.0900  -35.4900    5.3910 C.ar   66  PHE66      -0.0000
    116  N          4.7530  -37.6700    6.1120 N.3    68  VAL68      -0.1245
    117  CA         4.1770  -36.5600    5.3670 C.3    68  VAL68       0.1561
    118  C          2.7650  -36.1980    5.8510 C.2    68  VAL68       0.2260
    119  O          2.2440  -35.1400    5.5090 O.2    68  VAL68      -0.2867
    120  CB         4.1520  -36.8660    3.8350 C.3    68  VAL68       0.0252
    121  CG1        5.5630  -37.0970    3.3400 C.3    68  VAL68       0.0019
    122  CG2        3.2870  -38.0890    3.5380 C.3    68  VAL68       0.0019
    123  N          5.9470  -30.9410    9.9320 N.3    74  ILE74      -0.1245
    124  CA         6.7130  -30.6340    8.7380 C.3    74  ILE74       0.1561
    125  C          6.8610  -29.1230    8.6220 C.2    74  ILE74       0.2260
    126  O          7.9450  -28.6330    8.3280 O.2    74  ILE74      -0.2867
    127  CB         6.0390  -31.1960    7.4590 C.3    74  ILE74       0.0252
    128  CG1        6.2090  -32.7200    7.4060 C.3    74  ILE74       0.0019
    129  CG2        6.6570  -30.5600    6.2290 C.3    74  ILE74       0.0019
    130  CD1        5.4430  -33.3910    6.2960 C.3    74  ILE74       0.0001
@<TRIPOS>BOND
     1    48    47    2
     2    28    27   ar
     3    28    26   ar
     4    47    49   am
     5    47    46    1
     6    27    25   ar
     7    26    24   ar
     8    46    45    1
     9    25    23   ar
    10    24    23   ar
    11    45    42    1
    12    23    22    1
    13     9     8    1
    14    44    43    2
    15    61    60    2
    16    42    43    1
    17    42    41    1
    18    60    59    1
    19     8     7    1
    20    62    59    1
    21    62    63    1
    22    22    19    1
    23    77    76    1
    24    21    20    2
    25    65    64    1
    26     7     6    1
    27    59    58    1
    28    63    64    1
    29    20    19    1
    30    41    39   am
    31    19    18    1
    32     6     5    1
    33    76    75   ar
    34    76    74   ar
    35    40    39    2
    36    58    52   am
    37    39    38    1
    38    75    73   ar
    39     4     3    2
    40    18    12   am
    41    86    84   am
    42     3     2    1
    43     5     2    1
    44    74    72   ar
    45    52    53    2
    46    52    51    1
    47    50    51    1
    48    38    37    1
    49    29    30    1
    50    85    84    2
    51    84    83    1
    52    73    71   ar
    53    37    31   am
    54     2     1    1
    55    12    13    2
    56    12    11    1
    57    51    54    1
    58    31    32    2
    59    31    30    1
    60    72    71   ar
    61    30    33    1
    62    71    70    1
    63    83    82    1
    64    54    56    1
    65    54    55    1
    66    10    11    1
    67    11    14    1
    68    14    15    1
    69    82    79    1
    70    33    34    1
    71    69    68    2
    72    70    67    1
    73    55    57    1
    74    66    67    1
    75    68    67    1
    76    34    35    1
    77    34    36    1
    78    81    80    2
    79    79    80    1
    80    79    78    1
    81    15    16    1
    82    15    17    1
    83   121   120    1
    84   122   120    1
    85    93    91    1
    86   120   117    1
    87    92    91    1
    88    91    88    1
    89    88    87    1
    90    88    89    1
    91   117   118    1
    92   117   116    1
    93   115   113   ar
    94   115   114   ar
    95   119   118    2
    96    89    90    2
    97   113   111   ar
    98   114   112   ar
    99   129   127    1
   100   104   102   ar
   101   104   103   ar
   102   130   128    1
   103   102   100   ar
   104   103   101   ar
   105   111   110   ar
   106   128   127    1
   107   127   124    1
   108   112   110   ar
   109   108   107    2
   110   100    99   ar
   111   101    99   ar
   112   110   109    1
   113    99    98    1
   114   126   125    2
   115   107   106    1
   116   125   124    1
   117   124   123    1
   118    94    95    1
   119    98    95    1
   120   105   106    1
   121   109   106    1
   122    95    96    1
   123    96    97    2
