@<TRIPOS>MOLECULE
tmp/4jvaA01.pdb
 139 135 0 0 0
SMALL
GASTEIGER

@<TRIPOS>ATOM
      1  N         -2.8620   30.8110  -13.1940 N.3   176  ILE176     -0.1245
      2  CA        -1.5660   30.3360  -12.7050 C.3   176  ILE176      0.1561
      3  C         -0.5080   31.0280  -13.5390 C.2   176  ILE176      0.2260
      4  O         -0.7770   31.4120  -14.6790 O.2   176  ILE176     -0.2867
      5  CB        -1.3660   28.7960  -12.8300 C.3   176  ILE176      0.0252
      6  CG1       -1.4470   28.3590  -14.2880 C.3   176  ILE176      0.0019
      7  CG2       -2.3700   28.0600  -11.9550 C.3   176  ILE176      0.0019
      8  CD1       -1.4370   26.8400  -14.4670 C.3   176  ILE176      0.0001
      9  N         -3.9990   29.0090  -22.3140 N.3   195  ILE195     -0.1245
     10  CA        -2.7160   28.5620  -21.8040 C.3   195  ILE195      0.1561
     11  C         -1.6520   29.1590  -22.7130 C.2   195  ILE195      0.2260
     12  O         -1.7050   28.9750  -23.9210 O.2   195  ILE195     -0.2867
     13  CB        -2.6240   27.0390  -21.8750 C.3   195  ILE195      0.0252
     14  CG1       -3.8430   26.4200  -21.1800 C.3   195  ILE195      0.0019
     15  CG2       -1.3010   26.5580  -21.2710 C.3   195  ILE195      0.0019
     16  CD1       -3.8770   26.6050  -19.6880 C.3   195  ILE195      0.0001
     17  N          2.7820   30.4380  -23.1950 N.3   197  MET197     -0.1245
     18  CA         4.1670   30.2160  -22.7840 C.3   197  MET197      0.1570
     19  C          5.0630   31.3920  -23.1200 C.2   197  MET197      0.2261
     20  O          4.9040   32.0210  -24.1620 O.2   197  MET197     -0.2867
     21  CB         4.7440   28.9730  -23.4540 C.3   197  MET197      0.0387
     22  CG         4.3000   27.6750  -22.8340 C.3   197  MET197      0.0595
     23  SD         5.1620   26.2960  -23.5870 S.3   197  MET197     -0.1393
     24  CE         6.7120   26.3990  -22.7590 C.3   197  MET197      0.0692
     25  N         -0.4980   28.1710  -26.4210 N.3   206  ILE206     -0.1231
     26  CA        -0.3370   26.7630  -26.7390 C.3   206  ILE206      0.1692
     27  C         -1.5470   25.8510  -26.5370 C.2   206  ILE206      0.2591
     28  O         -1.5120   24.6790  -26.9250 O.2   206  ILE206     -0.2718
     29  CB         0.8910   26.1800  -25.9920 C.3   206  ILE206      0.0266
     30  CG1        0.6670   26.2110  -24.4800 C.3   206  ILE206      0.0019
     31  CG2        2.1370   26.9940  -26.3520 C.3   206  ILE206      0.0020
     32  CD1        1.8470   25.6970  -23.6840 C.3   206  ILE206      0.0001
     33  N         -2.6140   26.3780  -25.9460 N.am  207  ALA207     -0.1980
     34  CA        -3.8250   25.5860  -25.7350 C.3   207  ALA207      0.1597
     35  C         -5.0090   26.4260  -25.2620 C.2   207  ALA207      0.2287
     36  O         -4.8600   27.5880  -24.9020 O.2   207  ALA207     -0.2864
     37  CB        -3.5500   24.4770  -24.7340 C.3   207  ALA207      0.0319
     38  N         -8.6150   25.5830  -22.9050 N.3   209  CYS209     -0.1235
     39  CA        -9.3340   24.5690  -22.1540 C.3   209  CYS209      0.1677
     40  C        -10.7980   24.9460  -21.9670 C.2   209  CYS209      0.2270
     41  O        -11.1250   26.0470  -21.5210 O.2   209  CYS209     -0.2867
     42  CB        -8.6540   24.3550  -20.8010 C.3   209  CYS209      0.0956
     43  SG        -6.9210   23.8770  -20.9500 S.3   209  CYS209     -0.0801
     44  N         -8.9960   19.5600  -18.0300 N.3   214  TYR214     -0.1227
     45  CA        -8.1460   19.8790  -16.8950 C.3   214  TYR214      0.1736
     46  C         -6.8090   20.5060  -17.2870 C.2   214  TYR214      0.2595
     47  O         -6.3550   20.3750  -18.4210 O.2   214  TYR214     -0.2718
     48  CB        -7.8880   18.6050  -16.0890 C.3   214  TYR214      0.0548
     49  CG        -7.0540   17.5590  -16.8070 C.ar  214  TYR214     -0.0200
     50  CD1       -5.6980   17.7730  -17.0640 C.ar  214  TYR214     -0.0009
     51  CD2       -7.6130   16.3520  -17.2090 C.ar  214  TYR214     -0.0009
     52  CE1       -4.9210   16.8140  -17.7030 C.ar  214  TYR214      0.0417
     53  CE2       -6.8420   15.3830  -17.8480 C.ar  214  TYR214      0.0417
     54  CZ        -5.4970   15.6200  -18.0910 C.ar  214  TYR214      0.1957
     55  OH        -4.7210   14.6680  -18.7200 O.3   214  TYR214     -0.2866
     56  N         -6.1840   21.1880  -16.3330 N.am  215  PHE215     -0.1962
     57  CA        -4.8800   21.7950  -16.5500 C.3   215  PHE215      0.1771
     58  C         -4.1780   22.0380  -15.2130 C.2   215  PHE215      0.2620
     59  O         -4.8060   21.9930  -14.1590 O.2   215  PHE215     -0.2715
     60  CB        -4.9960   23.0950  -17.3520 C.3   215  PHE215      0.0574
     61  CG        -5.7180   24.1950  -16.6390 C.ar  215  PHE215     -0.0200
     62  CD1       -7.1050   24.2770  -16.6820 C.ar  215  PHE215     -0.0042
     63  CD2       -5.0050   25.1530  -15.9110 C.ar  215  PHE215     -0.0042
     64  CE1       -7.7810   25.2970  -16.0080 C.ar  215  PHE215     -0.0003
     65  CE2       -5.6740   26.1820  -15.2310 C.ar  215  PHE215     -0.0003
     66  CZ        -7.0720   26.2500  -15.2820 C.ar  215  PHE215     -0.0000
     67  N         -2.8750   22.2830  -15.2580 N.am  216  GLY216     -0.1940
     68  CA        -2.1260   22.4940  -14.0340 C.3   216  GLY216      0.2014
     69  C         -1.7180   21.1780  -13.3770 C.2   216  GLY216      0.2639
     70  O         -1.1800   21.1740  -12.2750 O.2   216  GLY216     -0.2714
     71  N         -1.9640   20.0570  -14.0480 N.am  217  GLU217     -0.1963
     72  CA        -1.6150   18.7530  -13.4970 C.3   217  GLU217      0.1733
     73  C         -0.2040   18.3110  -13.8620 C.2   217  GLU217      0.2616
     74  O          0.3590   17.4170  -13.2300 O.2   217  GLU217     -0.2715
     75  CB        -2.5950   17.6940  -13.9840 C.3   217  GLU217      0.0429
     76  CG        -2.2740   17.1120  -15.3510 C.3   217  GLU217      0.1163
     77  CD        -2.1830   18.1570  -16.4570 C.2   217  GLU217      0.3649
     78  OE1       -2.9240   19.1620  -16.4050 O.co2 217  GLU217     -0.2457
     79  OE2       -1.3780   17.9540  -17.3920 O.co2 217  GLU217     -0.2457
     80  N          0.3670   18.9340  -14.8830 N.am  218  LEU218     -0.1963
     81  CA         1.7080   18.5710  -15.3210 C.3   218  LEU218      0.1728
     82  C          2.7360   18.7590  -14.2170 C.2   218  LEU218      0.2616
     83  O          3.5100   17.8530  -13.9370 O.2   218  LEU218     -0.2715
     84  CB         2.1060   19.3950  -16.5490 C.3   218  LEU218      0.0311
     85  CG         3.4640   19.1410  -17.2160 C.3   218  LEU218      0.0022
     86  CD1        3.6100   17.6760  -17.6260 C.3   218  LEU218      0.0001
     87  CD2        3.5810   20.0470  -18.4420 C.3   218  LEU218      0.0001
     88  N          2.7350   19.9290  -13.5860 N.am  219  ALA219     -0.1977
     89  CA         3.6890   20.2330  -12.5220 C.3   219  ALA219      0.1597
     90  C          3.4770   19.4120  -11.2630 C.2   219  ALA219      0.2287
     91  O          4.3580   19.3510  -10.4140 O.2   219  ALA219     -0.2864
     92  CB         3.6360   21.7130  -12.1770 C.3   219  ALA219      0.0319
     93  N          7.9360   22.8710  -11.6830 N.3   225  PRO225     -0.2102
     94  CA         7.2420   24.1610  -11.5570 C.3   225  PRO225      0.1504
     95  C          6.2460   24.3600  -12.7130 C.2   225  PRO225      0.2576
     96  O          6.1800   23.5410  -13.6440 O.2   225  PRO225     -0.2718
     97  CB         8.3820   25.1850  -11.6050 C.3   225  PRO225      0.0282
     98  CG         9.6140   24.3790  -11.2600 C.3   225  PRO225      0.0208
     99  CD         9.3660   23.0730  -11.9560 C.3   225  PRO225      0.0893
    100  N          5.4800   25.4490  -12.6560 N.am  226  ARG226     -0.1966
    101  CA         4.4970   25.7400  -13.6980 C.3   226  ARG226      0.1729
    102  C          5.1670   25.8580  -15.0500 C.2   226  ARG226      0.2616
    103  O          6.0140   26.7170  -15.2490 O.2   226  ARG226     -0.2715
    104  CB         3.7360   27.0320  -13.3840 C.3   226  ARG226      0.0348
    105  CG         2.7930   26.9140  -12.2040 C.3   226  ARG226      0.0492
    106  CD         1.8640   25.6920  -12.3490 C.3   226  ARG226      0.2205
    107  NE         0.8640   25.6310  -11.2810 N.pl3 226  ARG226     -0.0865
    108  CZ         0.0020   24.6330  -11.1100 C.cat 226  ARG226      0.5346
    109  NH1        0.0100   23.5920  -11.9310 N.pl3 226  ARG226      0.1354
    110  NH2       -0.8790   24.6840  -10.1200 N.pl3 226  ARG226      0.1354
    111  N          4.7710   24.9890  -15.9750 N.am  227  ALA227     -0.1963
    112  CA         5.3350   24.9670  -17.3170 C.3   227  ALA227      0.1728
    113  C          4.6240   25.8820  -18.2890 C.2   227  ALA227      0.2616
    114  O          4.9310   25.8570  -19.4870 O.2   227  ALA227     -0.2715
    115  CB         5.3180   23.5550  -17.8670 C.3   227  ALA227      0.0334
    116  N          3.6740   26.6730  -17.7890 N.am  228  ALA228     -0.1977
    117  CA         2.9160   27.6100  -18.6280 C.3   228  ALA228      0.1597
    118  C          1.9100   28.3960  -17.7990 C.2   228  ALA228      0.2287
    119  O          1.4560   27.9250  -16.7520 O.2   228  ALA228     -0.2864
    120  CB         2.1870   26.8530  -19.7560 C.3   228  ALA228      0.0319
    121  N          1.5500   14.5050  -25.4710 N.3   263  THR263     -0.1203
    122  CA         1.0040   15.4370  -26.4510 C.3   263  THR263      0.1994
    123  C          1.3570   16.8790  -26.0790 C.2   263  THR263      0.2617
    124  O          0.6950   17.8260  -26.5050 O.2   263  THR263     -0.2717
    125  CB        -0.5380   15.2990  -26.5370 C.3   263  THR263      0.1784
    126  OG1       -0.8960   13.9100  -26.5360 O.3   263  THR263     -0.2211
    127  CG2       -1.0680   15.9430  -27.8190 C.3   263  THR263      0.0376
    128  N          2.4020   17.0390  -25.2750 N.am  264  TYR264     -0.1975
    129  CA         2.8510   18.3590  -24.8550 C.3   264  TYR264      0.1639
    130  C          4.1430   18.7380  -25.5610 C.2   264  TYR264      0.2290
    131  O          5.0610   19.2740  -24.9440 O.2   264  TYR264     -0.2864
    132  CB         3.0640   18.3950  -23.3400 C.3   264  TYR264      0.0560
    133  CG         1.7920   18.5100  -22.5270 C.ar  264  TYR264     -0.0198
    134  CD1        0.5670   18.0880  -23.0430 C.ar  264  TYR264     -0.0009
    135  CD2        1.8220   19.0090  -21.2250 C.ar  264  TYR264     -0.0009
    136  CE1       -0.5970   18.1590  -22.2850 C.ar  264  TYR264      0.0417
    137  CE2        0.6640   19.0810  -20.4560 C.ar  264  TYR264      0.0417
    138  CZ        -0.5430   18.6550  -20.9930 C.ar  264  TYR264      0.1957
    139  OH        -1.6950   18.7230  -20.2400 O.3   264  TYR264     -0.2866
@<TRIPOS>BOND
     1   127   125    1
     2    28    27    2
     3    26    27    1
     4    26    25    1
     5    26    29    1
     6   125   126    1
     7   125   122    1
     8    27    33   am
     9   124   123    2
    10   122   123    1
    11   122   121    1
    12    31    29    1
    13   123   128   am
    14    29    30    1
    15    33    34    1
    16    34    35    1
    17    34    37    1
    18   130   131    2
    19   130   129    1
    20   128   129    1
    21    35    36    2
    22   129   132    1
    23    30    32    1
    24    20    19    2
    25    12    11    2
    26    23    22    1
    27    23    24    1
    28    21    22    1
    29    21    18    1
    30   132   133    1
    31    17    18    1
    32    19    18    1
    33   134   133   ar
    34   134   136   ar
    35    38    39    1
    36    11    10    1
    37   133   135   ar
    38     9    10    1
    39   136   138   ar
    40    39    40    1
    41    39    42    1
    42    40    41    2
    43    13    10    1
    44    13    15    1
    45    13    14    1
    46   135   137   ar
    47    14    16    1
    48   138   137   ar
    49   138   139    1
    50    43    42    1
    51   120   117    1
    52   114   113    2
    53    55    54    1
    54   117   118    1
    55   117   116    1
    56    87    85    1
    57    47    46    2
    58   113   116   am
    59   113   112    1
    60    54    53   ar
    61    54    52   ar
    62    44    45    1
    63   115   112    1
    64    53    51   ar
    65   118   119    2
    66    52    50   ar
    67    86    85    1
    68    79    77   ar
    69    60    61    1
    70    60    57    1
    71   112   111    1
    72    46    45    1
    73    46    56   am
    74    85    84    1
    75    51    49   ar
    76    50    49   ar
    77    45    48    1
    78    49    48    1
    79    62    61   ar
    80    62    64   ar
    81    61    63   ar
    82    57    56    1
    83    57    58    1
    84    84    81    1
    85    77    78   ar
    86    77    76    1
    87    64    66   ar
    88   111   102   am
    89    63    65   ar
    90    76    75    1
    91    81    80    1
    92    81    82    1
    93    66    65   ar
    94    67    58   am
    95    67    68    1
    96   103   102    2
    97    58    59    2
    98   102   101    1
    99    80    73   am
   100     4     3    2
   101     8     6    1
   102     6     5    1
   103    82    83    2
   104    82    88   am
   105    71    72    1
   106    71    69   am
   107    68    69    1
   108    75    72    1
   109    73    72    1
   110    73    74    2
   111   101   104    1
   112   101   100    1
   113    96    95    2
   114    88    89    1
   115     3     2    1
   116   104   105    1
   117    69    70    2
   118     1     2    1
   119     5     2    1
   120     5     7    1
   121    95   100   am
   122    95    94    1
   123    89    92    1
   124    89    90    1
   125   106   105    1
   126   106   107    1
   127    99    93    1
   128    99    98    1
   129   109   108    1
   130    93    94    1
   131    97    94    1
   132    97    98    1
   133   107   108    2
   134    90    91    2
   135   108   110    1
