@<TRIPOS>MOLECULE
tmp/4jvaA00.pdb
 161 154 0 0 0
SMALL
GASTEIGER

@<TRIPOS>ATOM
      1  N         -1.0480   15.2700   14.2400 N.3    54  ILE54      -0.1245
      2  CA        -1.9550   14.1690   13.9410 C.3    54  ILE54       0.1561
      3  C         -1.1550   12.8790   13.8090 C.2    54  ILE54       0.2260
      4  O         -0.0800   12.8700   13.2200 O.2    54  ILE54      -0.2867
      5  CB        -2.7230   14.3940   12.6120 C.3    54  ILE54       0.0252
      6  CG1       -3.7700   15.4930   12.7810 C.3    54  ILE54       0.0019
      7  CG2       -3.3950   13.1020   12.1740 C.3    54  ILE54       0.0019
      8  CD1       -4.7190   15.6420   11.6010 C.3    54  ILE54       0.0001
      9  N          4.2360   15.0820    5.8100 N.3    73  ILE73      -0.1245
     10  CA         3.1640   14.0990    5.7750 C.3    73  ILE73       0.1561
     11  C          3.7550   12.6970    5.7720 C.2    73  ILE73       0.2260
     12  O          4.6350   12.3890    4.9670 O.2    73  ILE73      -0.2867
     13  CB         2.2810   14.3010    4.5150 C.3    73  ILE73       0.0252
     14  CG1        1.8320   15.7680    4.4380 C.3    73  ILE73       0.0019
     15  CG2        1.0880   13.3400    4.5480 C.3    73  ILE73       0.0019
     16  CD1        1.1060   16.1450    3.1650 C.3    73  ILE73       0.0001
     17  N          2.9470    8.3700    5.9630 N.3    75  VAL75      -0.1245
     18  CA         2.0430    7.2340    5.8290 C.3    75  VAL75       0.1561
     19  C          2.8520    5.9470    6.0590 C.2    75  VAL75       0.2260
     20  O          4.0410    5.8720    5.7190 O.2    75  VAL75      -0.2867
     21  CB         1.3910    7.1780    4.4280 C.3    75  VAL75       0.0252
     22  CG1        0.4210    6.0050    4.3570 C.3    75  VAL75       0.0019
     23  CG2        0.6570    8.4810    4.1380 C.3    75  VAL75       0.0019
     24  N          5.4960   11.3000    2.5670 N.3    84  VAL84      -0.1231
     25  CA         4.8180   11.2720    1.2840 C.3    84  VAL84       0.1692
     26  C          4.4610   12.6550    0.7440 C.2    84  VAL84       0.2592
     27  O          3.6580   12.7760   -0.1810 O.2    84  VAL84      -0.2718
     28  CB         3.5370   10.4410    1.3890 C.3    84  VAL84       0.0266
     29  CG1        3.8830    8.9610    1.4650 C.3    84  VAL84       0.0020
     30  CG2        2.7600   10.8630    2.6280 C.3    84  VAL84       0.0020
     31  N          5.0660   13.6910    1.3130 N.am   85  GLY85      -0.1957
     32  CA         4.7880   15.0430    0.8700 C.3    85  GLY85       0.1869
     33  C          4.9370   16.0240    2.0140 C.2    85  GLY85       0.2309
     34  O          5.6760   15.7590    2.9540 O.2    85  GLY85      -0.2863
     35  N          3.4360   20.2910    3.7010 N.3    87  TYR87      -0.1241
     36  CA         2.7530   21.5820    3.5780 C.3    87  TYR87       0.1605
     37  C          3.7620   22.6670    3.8950 C.2    87  TYR87       0.2264
     38  O          4.6470   22.4600    4.7230 O.2    87  TYR87      -0.2867
     39  CB         1.5970   21.6810    4.5750 C.3    87  TYR87       0.0534
     40  CG         0.4900   20.6880    4.3410 C.ar   87  TYR87      -0.0201
     41  CD1       -0.4740   20.9030    3.3660 C.ar   87  TYR87      -0.0009
     42  CD2        0.4180   19.5210    5.0870 C.ar   87  TYR87      -0.0009
     43  CE1       -1.4900   19.9700    3.1370 C.ar   87  TYR87       0.0417
     44  CE2       -0.5860   18.5850    4.8680 C.ar   87  TYR87       0.0417
     45  CZ        -1.5350   18.8080    3.8920 C.ar   87  TYR87       0.1957
     46  OH        -2.5030   17.8430    3.6620 O.3    87  TYR87      -0.2866
     47  N         -4.5560   23.1530    4.2760 N.3    92  SER92      -0.1202
     48  CA        -5.4240   22.6330    5.3230 C.3    92  SER92       0.2020
     49  C         -5.3540   21.1130    5.3690 C.2    92  SER92       0.2619
     50  O         -5.0950   20.4750    4.3460 O.2    92  SER92      -0.2717
     51  CB        -6.8620   23.0690    5.0530 C.3    92  SER92       0.2103
     52  OG        -7.3350   22.4840    3.8500 O.3    92  SER92      -0.2182
     53  N         -5.5980   20.5320    6.5440 N.am   93  PHE93      -0.1961
     54  CA        -5.5530   19.0790    6.6980 C.3    93  PHE93       0.1771
     55  C         -6.3100   18.5900    7.9240 C.2    93  PHE93       0.2620
     56  O         -6.5160   19.3350    8.8870 O.2    93  PHE93      -0.2715
     57  CB        -4.0970   18.5990    6.7670 C.3    93  PHE93       0.0574
     58  CG        -3.3370   19.1270    7.9530 C.ar   93  PHE93      -0.0200
     59  CD1       -3.5680   18.6260    9.2290 C.ar   93  PHE93      -0.0042
     60  CD2       -2.4120   20.1470    7.8010 C.ar   93  PHE93      -0.0042
     61  CE1       -2.8910   19.1400   10.3370 C.ar   93  PHE93      -0.0003
     62  CE2       -1.7340   20.6630    8.8990 C.ar   93  PHE93      -0.0003
     63  CZ        -1.9790   20.1570   10.1700 C.ar   93  PHE93      -0.0000
     64  N         -6.7170   17.3270    7.8790 N.am   94  GLY94      -0.1940
     65  CA        -7.4530   16.7370    8.9760 C.3    94  GLY94       0.2014
     66  C         -8.9370   16.7280    8.7040 C.2    94  GLY94       0.2639
     67  O         -9.7370   16.6650    9.6300 O.2    94  GLY94      -0.2714
     68  N         -9.3170   16.7760    7.4320 N.am   95  GLU95      -0.1963
     69  CA       -10.7330   16.8000    7.0760 C.3    95  GLU95       0.1733
     70  C        -11.3510   15.4300    6.8000 C.2    95  GLU95       0.2616
     71  O        -12.5680   15.2430    6.9620 O.2    95  GLU95      -0.2715
     72  CB       -10.9420   17.6900    5.8500 C.3    95  GLU95       0.0429
     73  CG       -10.4380   17.1110    4.5110 C.3    95  GLU95       0.1163
     74  CD        -8.9230   17.1610    4.3600 C.2    95  GLU95       0.3649
     75  OE1       -8.3150   18.1740    4.7610 O.co2  95  GLU95      -0.2457
     76  OE2       -8.3360   16.1980    3.8230 O.co2  95  GLU95      -0.2457
     77  N        -10.5140   14.4790    6.3800 N.am   96  LEU96      -0.1963
     78  CA       -10.9790   13.1360    6.0540 C.3    96  LEU96       0.1728
     79  C        -11.6360   12.4080    7.2240 C.2    96  LEU96       0.2616
     80  O        -12.6630   11.7540    7.0570 O.2    96  LEU96      -0.2715
     81  CB        -9.8140   12.3050    5.5230 C.3    96  LEU96       0.0311
     82  CG        -9.0810   12.8450    4.2920 C.3    96  LEU96       0.0022
     83  CD1       -7.8990   11.9490    3.9550 C.3    96  LEU96       0.0001
     84  CD2      -10.0510   12.9200    3.1320 C.3    96  LEU96       0.0001
     85  N        -11.0370   12.5250    8.4030 N.am   97  ALA97      -0.1977
     86  CA       -11.5450   11.8820    9.6120 C.3    97  ALA97       0.1597
     87  C        -12.9410   12.3610    9.9540 C.2    97  ALA97       0.2287
     88  O        -13.8160   11.5570   10.2790 O.2    97  ALA97      -0.2864
     89  CB       -10.6090   12.1600   10.7880 C.3    97  ALA97       0.0319
     90  N        -13.5540    8.2620    9.9010 N.3   102  THR102     -0.1204
     91  CA       -12.5540    7.1960    9.8460 C.3   102  THR102      0.1979
     92  C        -11.3180    7.6300   10.6200 C.2   102  THR102      0.2460
     93  O        -11.1120    8.8150   10.8680 O.2   102  THR102     -0.2732
     94  CB       -12.1030    6.8790    8.3980 C.3   102  THR102      0.1783
     95  OG1      -11.4560    8.0280    7.8310 O.3   102  THR102     -0.2211
     96  CG2      -13.2890    6.4720    7.5400 C.3   102  THR102      0.0376
     97  N        -10.4660    6.6750   11.0020 N.am  103  PRO103     -0.2717
     98  CA        -9.2720    7.0670   11.7490 C.3   103  PRO103      0.1535
     99  C         -8.4010    7.9990   10.9250 C.2   103  PRO103      0.2598
    100  O         -8.4720    7.9900    9.6970 O.2   103  PRO103     -0.2715
    101  CB        -8.5800    5.7330   12.0070 C.3   103  PRO103      0.0310
    102  CG        -9.7190    4.7470   11.9970 C.3   103  PRO103      0.0237
    103  CD       -10.5320    5.2140   10.8400 C.3   103  PRO103      0.0939
    104  N         -7.5900    8.8090   11.5980 N.am  104  ARG104     -0.1964
    105  CA        -6.6760    9.6980   10.8960 C.3   104  ARG104      0.1729
    106  C         -5.9340    8.7960    9.9120 C.2   104  ARG104      0.2616
    107  O         -5.4080    7.7490   10.2950 O.2   104  ARG104     -0.2715
    108  CB        -5.6730   10.3320   11.8650 C.3   104  ARG104      0.0348
    109  CG        -6.2600   11.3390   12.8520 C.3   104  ARG104      0.0492
    110  CD        -6.9620   12.4910   12.1480 C.3   104  ARG104      0.2205
    111  NE        -7.1130   13.6710   13.0050 N.pl3 104  ARG104     -0.0865
    112  CZ        -7.8380   14.7400   12.6800 C.cat 104  ARG104      0.5346
    113  NH1       -8.4870   14.7810   11.5220 N.pl3 104  ARG104      0.1354
    114  NH2       -7.9090   15.7730   13.5090 N.pl3 104  ARG104      0.1354
    115  N         -5.9070    9.1990    8.6460 N.am  105  ALA105     -0.1963
    116  CA        -5.2660    8.4180    7.6030 C.3   105  ALA105      0.1728
    117  C         -3.8550    8.8870    7.3250 C.2   105  ALA105      0.2616
    118  O         -3.3360    8.7000    6.2270 O.2   105  ALA105     -0.2715
    119  CB        -6.0900    8.4840    6.3310 C.3   105  ALA105      0.0334
    120  N         -3.2180    9.5050    8.3030 N.am  106  ALA106     -0.1977
    121  CA        -1.8570    9.9500    8.0790 C.3   106  ALA106      0.1597
    122  C         -1.3170   10.5890    9.3300 C.2   106  ALA106      0.2287
    123  O         -2.0100   10.6850   10.3320 O.2   106  ALA106     -0.2864
    124  CB        -1.7980   10.9350    6.9100 C.3   106  ALA106      0.0319
    125  N          0.7830   14.0300   10.6920 N.3   108  ILE108     -0.1245
    126  CA         1.2180   15.3700   10.3570 C.3   108  ILE108      0.1561
    127  C          2.0560   15.8220   11.5320 C.2   108  ILE108      0.2260
    128  O          1.6360   15.6860   12.6780 O.2   108  ILE108     -0.2867
    129  CB         0.0130   16.3080   10.1820 C.3   108  ILE108      0.0252
    130  CG1       -1.0170   15.6570    9.2460 C.3   108  ILE108      0.0019
    131  CG2        0.4860   17.6580    9.6570 C.3   108  ILE108      0.0019
    132  CD1       -0.5340   15.4140    7.8120 C.3   108  ILE108      0.0001
    133  N         -2.3250   17.1540   -2.4890 N.3   244  GLN244     -0.1245
    134  CA        -2.5590   16.0300   -1.5700 C.3   244  GLN244      0.1566
    135  C         -3.8030   15.2880   -1.9990 C.2   244  GLN244      0.2260
    136  O         -3.8400   14.0650   -2.0150 O.2   244  GLN244     -0.2867
    137  CB        -2.7600   16.5000   -0.1240 C.3   244  GLN244      0.0367
    138  CG        -1.5520   17.1570    0.5380 C.3   244  GLN244      0.0905
    139  CD        -1.1840   18.4420   -0.1300 C.2   244  GLN244      0.2608
    140  OE1       -1.9230   18.9280   -0.9820 O.2   244  GLN244     -0.2717
    141  NE2       -0.0490   19.0140    0.2480 N.am  244  GLN244     -0.0878
    142  N         -2.9590   13.4820   -5.5860 N.3   247  GLU247     -0.1231
    143  CA        -2.2560   12.2230   -5.3780 C.3   247  GLU247      0.1699
    144  C         -3.0660   11.1960   -4.5900 C.2   247  GLU247      0.2592
    145  O         -2.8780    9.9860   -4.7570 O.2   247  GLU247     -0.2718
    146  CB        -0.9420   12.4950   -4.6570 C.3   247  GLU247      0.0402
    147  CG        -0.1610   13.6240   -5.3080 C.3   247  GLU247      0.1161
    148  CD         1.2120   13.8390   -4.7010 C.2   247  GLU247      0.3649
    149  OE1        1.3540   13.7690   -3.4650 O.co2 247  GLU247     -0.2457
    150  OE2        2.1530   14.0990   -5.4700 O.co2 247  GLU247     -0.2457
    151  N         -3.9830   11.6640   -3.7530 N.am  248  ARG248     -0.1980
    152  CA        -4.7650   10.7460   -2.9480 C.3   248  ARG248      0.1597
    153  C         -5.8810   10.0470   -3.6960 C.2   248  ARG248      0.2287
    154  O         -6.1720    8.8710   -3.4410 O.2   248  ARG248     -0.2864
    155  CB        -5.3380   11.4780   -1.7380 C.3   248  ARG248      0.0334
    156  CG        -6.1760   10.6200   -0.8170 C.3   248  ARG248      0.0492
    157  CD        -6.5630   11.4240    0.4170 C.3   248  ARG248      0.2205
    158  NE        -7.5200   12.4800    0.1130 N.pl3 248  ARG248     -0.0865
    159  CZ        -8.8030   12.2520   -0.1440 C.cat 248  ARG248      0.5346
    160  NH1       -9.6220   13.2600   -0.4190 N.pl3 248  ARG248      0.1354
    161  NH2       -9.2690   11.0090   -0.1110 N.pl3 248  ARG248      0.1354
@<TRIPOS>BOND
     1   142   143    1
     2   150   148   ar
     3   143   146    1
     4   143   144    1
     5   147   148    1
     6   147   146    1
     7   145   144    2
     8   148   149   ar
     9   144   151   am
    10   151   152    1
    11   153   154    2
    12   153   152    1
    13   152   155    1
    14   133   134    1
    15   136   135    2
    16   135   134    1
    17   155   156    1
    18   134   137    1
    19   140   139    2
    20   156   157    1
    21   160   159    1
    22    27    26    2
    23   159   161    1
    24   159   158    2
    25   139   141   am
    26   139   138    1
    27   137   138    1
    28   158   157    1
    29    26    25    1
    30    26    31   am
    31    32    31    1
    32    32    33    1
    33    25    28    1
    34    25    24    1
    35    28    29    1
    36    28    30    1
    37    33    34    2
    38    84    82    1
    39    43    41   ar
    40    43    45   ar
    41    16    14    1
    42    41    40   ar
    43    36    35    1
    44    36    37    1
    45    36    39    1
    46    46    45    1
    47    76    74   ar
    48    52    51    1
    49    45    44   ar
    50    37    38    2
    51    83    82    1
    52    23    21    1
    53    47    48    1
    54    82    81    1
    55    40    39    1
    56    40    42   ar
    57    50    49    2
    58    22    21    1
    59    74    73    1
    60    74    75   ar
    61    21    18    1
    62    14    13    1
    63    73    72    1
    64    13    15    1
    65    13    10    1
    66    44    42   ar
    67    12    11    2
    68    51    48    1
    69    48    49    1
    70    49    53   am
    71    81    78    1
    72    20    19    2
    73    11    10    1
    74    10     9    1
    75    18    17    1
    76    18    19    1
    77    72    69    1
    78    78    77    1
    79    78    79    1
    80   118   117    2
    81   119   116    1
    82    77    70   am
    83    53    54    1
    84    54    57    1
    85    54    55    1
    86    57    58    1
    87    70    71    2
    88    70    69    1
    89   124   121    1
    90    80    79    2
    91    69    68    1
    92    79    85   am
    93   117   116    1
    94   117   120   am
    95    68    66   am
    96    96    94    1
    97   116   115    1
    98    60    58   ar
    99    60    62   ar
   100   132   130    1
   101    95    94    1
   102    64    55   am
   103    64    65    1
   104    55    56    2
   105    58    59   ar
   106   121   120    1
   107   121   122    1
   108    94    91    1
   109    85    86    1
   110   115   106   am
   111    66    65    1
   112    66    67    2
   113    62    63   ar
   114    59    61   ar
   115   130   129    1
   116   122   123    2
   117    86    87    1
   118    86    89    1
   119   131   129    1
   120   100    99    2
   121    91    90    1
   122    91    92    1
   123   106   107    2
   124   106   105    1
   125    87    88    2
   126    63    61   ar
   127   129   126    1
   128   126   125    1
   129   126   127    1
   130    92    93    2
   131    92    97   am
   132   103    97    1
   133   103   102    1
   134   105   104    1
   135   105   108    1
   136    99   104   am
   137    99    98    1
   138    97    98    1
   139   113   112    1
   140   127   128    2
   141     8     6    1
   142    98   101    1
   143   108   109    1
   144   102   101    1
   145   110   109    1
   146   110   111    1
   147     7     5    1
   148     5     6    1
   149     5     2    1
   150   112   111    2
   151   112   114    1
   152     4     3    2
   153     3     2    1
   154     2     1    1
