@<TRIPOS>MOLECULE
tmp/4jvcA00.pdb
 95 88 0 0 0
SMALL
GASTEIGER

@<TRIPOS>ATOM
      1  N        -49.7570   10.6660   11.9210 N.3     9  ALA9       -0.1245
      2  CA       -48.9450    9.4720   11.6600 C.3     9  ALA9        0.1562
      3  C        -47.7450    9.9310   10.8920 C.2     9  ALA9        0.2260
      4  O        -46.8990    9.1560   10.5610 O.2     9  ALA9       -0.2867
      5  CB       -49.7240    8.4630   10.8180 C.3     9  ALA9        0.0290
      6  N        -55.1620   10.8180   11.7750 N.3    36  PRO36      -0.2116
      7  CA       -55.3060   10.3360   10.4130 C.3    36  PRO36       0.1372
      8  C        -56.7270    9.9250   10.1260 C.2    36  PRO36       0.2244
      9  O        -57.1080    9.7970    8.9670 O.2    36  PRO36      -0.2868
     10  CB       -54.3230    9.1440   10.3340 C.3    36  PRO36       0.0268
     11  CG       -53.5300    9.2100   11.5920 C.3    36  PRO36       0.0207
     12  CD       -54.4450    9.8440   12.6010 C.3    36  PRO36       0.0892
     13  N        -51.7750    9.4680    5.7600 N.3    56  ILE56      -0.1245
     14  CA       -51.7310    8.0900    5.3040 C.3    56  ILE56       0.1561
     15  C        -53.0430    7.5540    4.7780 C.2    56  ILE56       0.2260
     16  O        -53.0390    6.4660    4.2010 O.2    56  ILE56      -0.2867
     17  CB       -51.2020    7.1620    6.3770 C.3    56  ILE56       0.0252
     18  CG1      -52.3080    6.8900    7.3380 C.3    56  ILE56       0.0019
     19  CG2      -49.8990    7.7180    7.0120 C.3    56  ILE56       0.0019
     20  CD1      -51.8250    6.2790    8.6370 C.3    56  ILE56       0.0001
     21  N        -45.5420    1.2560   10.5700 N.3    75  ALA75      -0.1245
     22  CA       -46.3170    1.2150   11.7840 C.3    75  ALA75       0.1562
     23  C        -46.3500   -0.1920   12.3040 C.2    75  ALA75       0.2260
     24  O        -46.0600   -1.1290   11.5790 O.2    75  ALA75      -0.2867
     25  CB       -47.6990    1.6950   11.4880 C.3    75  ALA75       0.0290
     26  N        -58.4980    4.4550   16.4060 N.3   104  LEU104     -0.1245
     27  CA       -58.4890    5.8620   16.2710 C.3   104  LEU104      0.1561
     28  C        -59.9080    6.1190   15.8900 C.2   104  LEU104      0.2260
     29  O        -60.4540    5.4160   15.0330 O.2   104  LEU104     -0.2867
     30  CB       -57.5160    6.2810   15.1560 C.3   104  LEU104      0.0270
     31  CG       -56.3820    7.2720   15.4910 C.3   104  LEU104      0.0019
     32  CD1      -55.8440    7.0320   16.8810 C.3   104  LEU104      0.0001
     33  CD2      -55.2510    7.1220   14.4770 C.3   104  LEU104      0.0001
     34  N        -58.9620    1.4110    5.2090 N.3   114  LEU114     -0.1231
     35  CA       -57.6140    1.5340    5.6740 C.3   114  LEU114      0.1693
     36  C        -57.5420    1.6720    7.1930 C.2   114  LEU114      0.2591
     37  O        -56.7160    0.9860    7.8420 O.2   114  LEU114     -0.2718
     38  CB       -56.9640    2.7250    4.9670 C.3   114  LEU114      0.0284
     39  CG       -55.4480    2.7630    4.7360 C.3   114  LEU114      0.0019
     40  CD1      -54.8130    3.7820    5.6550 C.3   114  LEU114      0.0001
     41  CD2      -54.7940    1.3980    4.8960 C.3   114  LEU114      0.0001
     42  N        -58.3860    2.5340    7.7650 N.am  115  LEU115     -0.1980
     43  CA       -58.4350    2.6890    9.2370 C.3   115  LEU115      0.1596
     44  C        -59.6450    2.0870   10.0390 C.2   115  LEU115      0.2287
     45  O        -59.5990    2.0580   11.2780 O.2   115  LEU115     -0.2864
     46  CB       -58.2560    4.1740    9.5880 C.3   115  LEU115      0.0297
     47  CG       -57.2460    4.9000    8.6980 C.3   115  LEU115      0.0022
     48  CD1      -57.2080    6.3770    9.0360 C.3   115  LEU115      0.0001
     49  CD2      -55.8470    4.3560    8.8610 C.3   115  LEU115      0.0001
     50  N        -52.9710    9.0500   19.2520 N.3   128  PHE128     -0.1241
     51  CA       -51.9600    8.0330   19.6520 C.3   128  PHE128      0.1605
     52  C        -51.5030    8.0070   21.0740 C.2   128  PHE128      0.2264
     53  O        -51.1450    6.9500   21.5680 O.2   128  PHE128     -0.2867
     54  CB       -50.7490    8.0190   18.6890 C.3   128  PHE128      0.0534
     55  CG       -51.1370    7.5510   17.3100 C.ar  128  PHE128     -0.0203
     56  CD1      -50.8510    8.2610   16.2270 C.ar  128  PHE128     -0.0042
     57  CD2      -51.8990    6.3950   17.1490 C.ar  128  PHE128     -0.0042
     58  CE1      -51.2430    7.8630   14.9590 C.ar  128  PHE128     -0.0003
     59  CE2      -52.2780    5.9740   15.9040 C.ar  128  PHE128     -0.0003
     60  CZ       -51.9610    6.7140   14.8060 C.ar  128  PHE128     -0.0000
     61  N        -52.5680   -0.1540   16.6880 N.3   143  ILE143     -0.1231
     62  CA       -51.6940    0.0160   15.5490 C.3   143  ILE143      0.1692
     63  C        -51.1440    1.4320   15.6610 C.2   143  ILE143      0.2592
     64  O        -51.8990    2.3580   15.7640 O.2   143  ILE143     -0.2718
     65  CB       -52.4920   -0.0890   14.2470 C.3   143  ILE143      0.0266
     66  CG1      -52.9490   -1.5170   13.9570 C.3   143  ILE143      0.0019
     67  CG2      -51.6730    0.3600   13.0690 C.3   143  ILE143      0.0020
     68  CD1      -54.3200   -1.5780   13.2540 C.3   143  ILE143      0.0001
     69  N        -49.8400    1.5970   15.6020 N.am  144  ALA144     -0.1966
     70  CA       -49.2170    2.8630   15.9420 C.3   144  ALA144      0.1713
     71  C        -48.0500    3.1810   15.0510 C.2   144  ALA144      0.2458
     72  O        -47.4280    2.3140   14.5970 O.2   144  ALA144     -0.2730
     73  CB       -48.7160    2.7880   17.3390 C.3   144  ALA144      0.0333
     74  N        -47.7640    4.4670   14.7790 N.am  145  PRO145     -0.2727
     75  CA       -46.6360    4.7520   13.9250 C.3   145  PRO145      0.1402
     76  C        -45.3720    4.3310   14.5870 C.2   145  PRO145      0.2269
     77  O        -45.3240    4.2520   15.7970 O.2   145  PRO145     -0.2865
     78  CB       -46.6470    6.2410   13.8030 C.3   145  PRO145      0.0296
     79  CG       -48.0500    6.6060   14.0080 C.3   145  PRO145      0.0237
     80  CD       -48.6190    5.6370   14.9610 C.3   145  PRO145      0.0939
     81  N        -45.3540   -2.3460    9.2440 N.3   170  ILE170     -0.1245
     82  CA       -46.3520   -2.3210    8.2150 C.3   170  ILE170      0.1561
     83  C        -46.2060   -1.1100    7.3670 C.2   170  ILE170      0.2260
     84  O        -46.3700   -0.0200    7.8380 O.2   170  ILE170     -0.2867
     85  CB       -47.7540   -2.3230    8.8180 C.3   170  ILE170      0.0252
     86  CG1      -47.9070   -3.5310    9.6880 C.3   170  ILE170      0.0019
     87  CG2      -48.7890   -2.3840    7.7410 C.3   170  ILE170      0.0019
     88  CD1      -49.0700   -3.4580   10.6210 C.3   170  ILE170      0.0001
     89  N        -46.8530    1.9140    4.8520 N.3   172  THR172     -0.1218
     90  CA       -47.9380    2.6280    4.2140 C.3   172  THR172      0.1862
     91  C        -47.5230    3.8710    3.5350 C.2   172  THR172      0.2287
     92  O        -46.7850    4.6510    4.0840 O.2   172  THR172     -0.2866
     93  CB       -49.0970    3.0060    5.1630 C.3   172  THR172      0.1770
     94  OG1      -48.5810    3.2540    6.4800 O.3   172  THR172     -0.2211
     95  CG2      -50.1830    1.8670    5.1560 C.3   172  THR172      0.0375
@<TRIPOS>BOND
     1    91    92    2
     2    91    90    1
     3    16    15    2
     4    90    89    1
     5    90    93    1
     6    39    41    1
     7    39    38    1
     8    39    40    1
     9    15    14    1
    10    38    35    1
    11    95    93    1
    12    93    94    1
    13    34    35    1
    14    14    13    1
    15    14    17    1
    16    35    36    1
    17    17    19    1
    18    17    18    1
    19    36    42   am
    20    36    37    2
    21    18    20    1
    22    83    84    2
    23    83    82    1
    24    87    85    1
    25    42    43    1
    26    82    85    1
    27    82    81    1
    28    47    49    1
    29    47    48    1
    30    47    46    1
    31    85    86    1
    32     9     8    2
    33    43    46    1
    34    43    44    1
    35    86    88    1
    36    44    45    2
    37     8     7    1
    38    10     7    1
    39    10    11    1
    40     7     6    1
    41     4     3    2
    42    21    22    1
    43     5     2    1
    44     3     2    1
    45    25    22    1
    46    24    23    2
    47    11    12    1
    48     2     1    1
    49     6    12    1
    50    22    23    1
    51    67    65    1
    52    68    66    1
    53    78    75    1
    54    78    79    1
    55    75    76    1
    56    75    74    1
    57    66    65    1
    58    79    80    1
    59    65    62    1
    60    33    31    1
    61    76    77    2
    62    72    71    2
    63    74    80    1
    64    74    71   am
    65    60    58   ar
    66    60    59   ar
    67    58    56   ar
    68    29    28    2
    69    71    70    1
    70    30    31    1
    71    30    27    1
    72    31    32    1
    73    62    63    1
    74    62    61    1
    75    69    63   am
    76    69    70    1
    77    63    64    2
    78    28    27    1
    79    59    57   ar
    80    70    73    1
    81    56    55   ar
    82    27    26    1
    83    57    55   ar
    84    55    54    1
    85    54    51    1
    86    50    51    1
    87    51    52    1
    88    52    53    2
