@<TRIPOS>MOLECULE
tmp/4jvdA00.pdb
 167 154 0 0 0
SMALL
GASTEIGER

@<TRIPOS>ATOM
      1  N        -25.8880   66.1150    7.1850 N.3     9  ALA9       -0.1245
      2  CA       -27.3190   66.2130    7.5510 C.3     9  ALA9        0.1562
      3  C        -27.6270   67.4920    8.2650 C.2     9  ALA9        0.2260
      4  O        -28.7770   67.8980    8.3590 O.2     9  ALA9       -0.2867
      5  CB       -27.7220   65.0570    8.4280 C.3     9  ALA9        0.0290
      6  N        -22.8350   61.5430    7.4990 N.3    36  PRO36      -0.2116
      7  CA       -23.2400   61.2380    8.8620 C.3    36  PRO36       0.1372
      8  C        -22.8390   59.8180    9.1590 C.2    36  PRO36       0.2244
      9  O        -22.5040   59.4800   10.2910 O.2    36  PRO36      -0.2868
     10  CB       -24.7490   61.3770    8.8430 C.3    36  PRO36       0.0268
     11  CG       -25.0380   62.2130    7.6570 C.3    36  PRO36       0.0207
     12  CD       -23.9540   61.9290    6.6540 C.3    36  PRO36       0.0892
     13  N        -26.0390   63.9260   13.4810 N.3    56  ILE56      -0.1245
     14  CA       -27.2990   63.3350   13.8660 C.3    56  ILE56       0.1561
     15  C        -27.1290   61.9480   14.4420 C.2    56  ILE56       0.2260
     16  O        -28.0770   61.3970   15.0120 O.2    56  ILE56      -0.2867
     17  CB       -28.2440   63.1470   12.6940 C.3    56  ILE56       0.0252
     18  CG1      -27.5260   62.4670   11.5540 C.3    56  ILE56       0.0019
     19  CG2      -28.8500   64.4630   12.2660 C.3    56  ILE56       0.0019
     20  CD1      -28.5030   61.8290   10.5990 C.3    56  ILE56       0.0001
     21  N        -34.0610   68.8670   13.9750 N.3    73  THR73      -0.1218
     22  CA       -33.9440   69.0930   12.5660 C.3    73  THR73       0.1862
     23  C        -34.7290   67.9510   11.9770 C.2    73  THR73       0.2287
     24  O        -35.0010   66.9610   12.6680 O.2    73  THR73      -0.2866
     25  CB       -32.4740   69.0620   12.1400 C.3    73  THR73       0.1770
     26  OG1      -32.3270   69.7410   10.8920 O.3    73  THR73      -0.2211
     27  CG2      -31.9590   67.6370   12.0350 C.3    73  THR73       0.0375
     28  N        -36.0160   65.2600    8.7090 N.3    75  ALA75      -0.1245
     29  CA       -35.6120   64.4470    7.5920 C.3    75  ALA75       0.1562
     30  C        -36.8800   63.8740    7.0460 C.2    75  ALA75       0.2260
     31  O        -37.8720   63.8020    7.7540 O.2    75  ALA75      -0.2867
     32  CB       -34.7240   63.3250    8.0660 C.3    75  ALA75       0.0290
     33  N        -38.6000   60.7220    4.2990 N.3    77  VAL77      -0.1245
     34  CA       -38.3630   59.6100    3.4200 C.3    77  VAL77       0.1561
     35  C        -39.0380   60.0370    2.1340 C.2    77  VAL77       0.2260
     36  O        -40.1920   60.4510    2.1360 O.2    77  VAL77      -0.2867
     37  CB       -38.6970   58.2240    4.0200 C.3    77  VAL77       0.0252
     38  CG1      -39.6430   58.3420    5.1780 C.3    77  VAL77       0.0019
     39  CG2      -39.2060   57.2660    2.9740 C.3    77  VAL77       0.0019
     40  N        -46.0940   52.1630    3.6650 N.3    93  ILE93      -0.1245
     41  CA       -45.1120   52.5710    4.6750 C.3    93  ILE93       0.1561
     42  C        -44.4600   51.3580    5.4110 C.2    93  ILE93       0.2260
     43  O        -43.3610   51.4780    5.9650 O.2    93  ILE93      -0.2867
     44  CB       -45.7570   53.5890    5.6590 C.3    93  ILE93       0.0252
     45  CG1      -45.8960   54.9560    4.9750 C.3    93  ILE93       0.0019
     46  CG2      -44.9520   53.7310    6.9350 C.3    93  ILE93       0.0019
     47  CD1      -46.4590   56.0550    5.8530 C.3    93  ILE93       0.0001
     48  N        -41.7760   49.5440    2.5670 N.3    96  LEU96      -0.1245
     49  CA       -40.4550   50.1040    2.3690 C.3    96  LEU96       0.1561
     50  C        -39.4080   49.0360    2.6050 C.2    96  LEU96       0.2260
     51  O        -38.4270   48.9760    1.8810 O.2    96  LEU96      -0.2867
     52  CB       -40.1890   51.2330    3.3430 C.3    96  LEU96       0.0270
     53  CG       -41.0680   52.4780    3.3040 C.3    96  LEU96       0.0019
     54  CD1      -40.5910   53.4410    4.3770 C.3    96  LEU96       0.0001
     55  CD2      -41.0790   53.2040    1.9720 C.3    96  LEU96       0.0001
     56  N        -26.8960   55.7600    2.6880 N.3   104  LEU104     -0.1245
     57  CA       -25.6190   56.4060    2.7990 C.3   104  LEU104      0.1561
     58  C        -24.6850   55.3000    3.2110 C.2   104  LEU104      0.2260
     59  O        -24.9080   54.6340    4.2380 O.2   104  LEU104     -0.2867
     60  CB       -25.6800   57.4650    3.9110 C.3   104  LEU104      0.0270
     61  CG       -25.3420   58.9420    3.6680 C.3   104  LEU104      0.0019
     62  CD1      -25.7540   59.4250    2.2820 C.3   104  LEU104      0.0001
     63  CD2      -26.0400   59.7710    4.7490 C.3   104  LEU104      0.0001
     64  N        -29.4680   53.6110   14.1240 N.3   114  LEU114     -0.1231
     65  CA       -30.1160   54.7860   13.6070 C.3   114  LEU114      0.1693
     66  C        -29.9470   54.8850   12.1110 C.2   114  LEU114      0.2591
     67  O        -30.9280   55.1400   11.4200 O.2   114  LEU114     -0.2718
     68  CB       -29.5570   56.0220   14.3300 C.3   114  LEU114      0.0284
     69  CG       -30.1590   57.4310   14.2530 C.3   114  LEU114      0.0019
     70  CD1      -29.5080   58.1990   13.1330 C.3   114  LEU114      0.0001
     71  CD2      -31.6620   57.4680   14.0640 C.3   114  LEU114      0.0001
     72  N        -28.7440   54.6440   11.5900 N.am  115  LEU115     -0.1980
     73  CA       -28.5130   54.8470   10.1360 C.3   115  LEU115      0.1596
     74  C        -28.5260   53.6000    9.2810 C.2   115  LEU115      0.2287
     75  O        -28.6220   53.6900    8.0620 O.2   115  LEU115     -0.2864
     76  CB       -27.2110   55.6260    9.8950 C.3   115  LEU115      0.0297
     77  CG       -27.1650   56.9400   10.6890 C.3   115  LEU115      0.0022
     78  CD1      -25.7680   57.5100   10.7740 C.3   115  LEU115      0.0001
     79  CD2      -28.0950   57.9710   10.0670 C.3   115  LEU115      0.0001
     80  N        -33.1570   50.1430    6.2980 N.3   118  VAL118     -0.1245
     81  CA       -34.2990   49.4130    6.8060 C.3   118  VAL118      0.1561
     82  C        -34.6570   48.2090    5.9550 C.2   118  VAL118      0.2260
     83  O        -35.1160   47.1980    6.4940 O.2   118  VAL118     -0.2867
     84  CB       -35.5290   50.2940    6.9010 C.3   118  VAL118      0.0252
     85  CG1      -35.2310   51.4790    7.7690 C.3   118  VAL118      0.0019
     86  CG2      -35.9730   50.7500    5.5370 C.3   118  VAL118      0.0019
     87  N        -25.6170   62.7410   -0.0100 N.3   128  PHE128     -0.1241
     88  CA       -27.0370   62.9590   -0.2900 C.3   128  PHE128      0.1605
     89  C        -27.3120   63.4500   -1.6900 C.2   128  PHE128      0.2264
     90  O        -28.4670   63.7540   -2.0270 O.2   128  PHE128     -0.2867
     91  CB       -27.6780   63.9820    0.6920 C.3   128  PHE128      0.0534
     92  CG       -27.7480   63.5080    2.1170 C.ar  128  PHE128     -0.0203
     93  CD1      -26.9910   64.1280    3.1050 C.ar  128  PHE128     -0.0042
     94  CD2      -28.5460   62.4220    2.4620 C.ar  128  PHE128     -0.0042
     95  CE1      -27.0360   63.6860    4.4060 C.ar  128  PHE128     -0.0003
     96  CE2      -28.5870   61.9710    3.7520 C.ar  128  PHE128     -0.0003
     97  CZ       -27.8360   62.6080    4.7240 C.ar  128  PHE128     -0.0000
     98  N        -35.8820   54.5730   -3.0050 N.3   141  TRP141     -0.1241
     99  CA       -36.3520   55.6710   -2.1200 C.3   141  TRP141      0.1605
    100  C        -35.2410   55.9140   -1.0860 C.2   141  TRP141      0.2264
    101  O        -34.3870   55.0130   -0.8520 O.2   141  TRP141     -0.2867
    102  CB       -37.6510   55.2780   -1.3690 C.3   141  TRP141      0.0550
    103  CG       -37.4880   54.0240   -0.4750 C.ar  141  TRP141      0.0003
    104  CD1      -37.6740   52.7180   -0.8430 C.ar  141  TRP141      0.0946
    105  CD2      -37.0610   53.9860    0.8940 C.ar  141  TRP141      0.0152
    106  NE1      -37.4190   51.8700    0.2170 N.ar  141  TRP141     -0.2442
    107  CE2      -37.0160   52.6230    1.2860 C.ar  141  TRP141      0.0810
    108  CE3      -36.7130   54.9730    1.8340 C.ar  141  TRP141      0.0012
    109  CZ2      -36.6240   52.2310    2.5630 C.ar  141  TRP141      0.0191
    110  CZ3      -36.3360   54.5840    3.1100 C.ar  141  TRP141      0.0001
    111  CH2      -36.2980   53.2330    3.4620 C.ar  141  TRP141      0.0015
    112  N        -33.8970   58.3670    2.7640 N.3   143  ILE143     -0.1245
    113  CA       -34.1560   59.3580    3.8190 C.3   143  ILE143      0.1561
    114  C        -33.1250   60.4710    3.7240 C.2   143  ILE143      0.2260
    115  O        -31.9210   60.2340    3.8680 O.2   143  ILE143     -0.2867
    116  CB       -34.0620   58.7560    5.2430 C.3   143  ILE143      0.0252
    117  CG1      -34.9250   57.5050    5.3890 C.3   143  ILE143      0.0019
    118  CG2      -34.4840   59.7750    6.2740 C.3   143  ILE143      0.0019
    119  CD1      -34.3280   56.4570    6.2950 C.3   143  ILE143      0.0001
    120  N        -32.1640   64.8440    4.6600 N.3   145  PRO145     -0.2116
    121  CA       -32.5220   66.0260    5.4570 C.3   145  PRO145      0.1372
    122  C        -33.4730   66.9360    4.7350 C.2   145  PRO145      0.2244
    123  O        -33.4730   66.9780    3.5160 O.2   145  PRO145     -0.2868
    124  CB       -31.1980   66.7680    5.6230 C.3   145  PRO145      0.0268
    125  CG       -30.1200   65.7650    5.3150 C.3   145  PRO145      0.0207
    126  CD       -30.7190   64.8070    4.3320 C.3   145  PRO145      0.0892
    127  N        -42.9750   60.1950    1.6340 N.3   161  LEU161     -0.1231
    128  CA       -43.7310   59.0640    2.2020 C.3   161  LEU161      0.1693
    129  C        -43.8210   59.0130    3.7330 C.2   161  LEU161      0.2592
    130  O        -44.5950   58.2480    4.2650 O.2   161  LEU161     -0.2718
    131  CB       -43.0540   57.7750    1.7860 C.3   161  LEU161      0.0284
    132  CG       -42.4550   57.7720    0.3800 C.3   161  LEU161      0.0019
    133  CD1      -41.7350   56.4540    0.1100 C.3   161  LEU161      0.0001
    134  CD2      -43.5630   58.0030   -0.6310 C.3   161  LEU161      0.0001
    135  N        -42.9830   59.7840    4.4260 N.am  162  SER162     -0.1952
    136  CA       -42.7740   59.6670    5.8660 C.3   162  SER162      0.1924
    137  C        -44.0140   60.0400    6.6470 C.2   162  SER162      0.2314
    138  O        -44.0530   59.8320    7.8510 O.2   162  SER162     -0.2863
    139  CB       -41.6560   60.6310    6.2970 C.3   162  SER162      0.2116
    140  OG       -42.1800   61.9090    6.7290 O.3   162  SER162     -0.2180
    141  N        -46.0190   57.9590    9.1170 N.3   165  TYR165     -0.1241
    142  CA       -45.1330   57.4390   10.1590 C.3   165  TYR165      0.1605
    143  C        -44.9160   58.5250   11.1670 C.2   165  TYR165      0.2264
    144  O        -45.1540   58.3210   12.3800 O.2   165  TYR165     -0.2867
    145  CB       -43.7930   56.9480    9.5880 C.3   165  TYR165      0.0534
    146  CG       -42.7600   56.6440   10.6310 C.ar  165  TYR165     -0.0201
    147  CD1      -41.9140   57.6270   11.0810 C.ar  165  TYR165     -0.0009
    148  CD2      -42.6520   55.3780   11.1890 C.ar  165  TYR165     -0.0009
    149  CE1      -40.9740   57.3700   12.0400 C.ar  165  TYR165      0.0417
    150  CE2      -41.7040   55.1000   12.1570 C.ar  165  TYR165      0.0417
    151  CZ       -40.8680   56.1130   12.5700 C.ar  165  TYR165      0.1957
    152  OH       -39.9160   55.8970   13.5330 O.3   165  TYR165     -0.2866
    153  N        -39.4930   63.5140   10.1000 N.3   170  ILE170     -0.1245
    154  CA       -39.0250   62.6410   11.1600 C.3   170  ILE170      0.1561
    155  C        -38.1520   63.4460   12.0510 C.2   170  ILE170      0.2260
    156  O        -37.0900   63.8450   11.6330 O.2   170  ILE170     -0.2867
    157  CB       -38.1900   61.5030   10.5890 C.3   170  ILE170      0.0252
    158  CG1      -39.0170   60.7390    9.5640 C.3   170  ILE170      0.0019
    159  CG2      -37.7670   60.5680   11.6990 C.3   170  ILE170      0.0019
    160  CD1      -38.3240   59.5270    9.0020 C.3   170  ILE170      0.0001
    161  N        -35.4310   64.5360   14.3550 N.3   172  THR172     -0.1218
    162  CA       -34.1340   63.8970   14.6260 C.3   172  THR172      0.1862
    163  C        -33.1900   64.8660   15.3350 C.2   172  THR172      0.2287
    164  O        -32.9960   66.0020   14.9000 O.2   172  THR172     -0.2866
    165  CB       -33.4450   63.2800   13.3670 C.3   172  THR172      0.1770
    166  OG1      -32.1870   63.9150   13.1570 O.3   172  THR172     -0.2211
    167  CG2      -34.2290   63.4600   12.1110 C.3   172  THR172      0.0375
@<TRIPOS>BOND
     1    98    99    1
     2    99   102    1
     3    99   100    1
     4    90    89    2
     5    89    88    1
     6   102   103    1
     7   100   101    2
     8   104   103   ar
     9   104   106   ar
    10   134   132    1
    11   103   105   ar
    12    88    87    1
    13    88    91    1
    14   133   132    1
    15   106   107   ar
    16   132   131    1
    17    91    92    1
    18   105   107   ar
    19   105   108   ar
    20   107   109   ar
    21   127   128    1
    22   131   128    1
    23   108   110   ar
    24    51    50    2
    25    55    53    1
    26    92    94   ar
    27    92    93   ar
    28    35    36    2
    29    35    34    1
    30   128   129    1
    31    62    61    1
    32    49    48    1
    33    49    50    1
    34    49    52    1
    35    94    96   ar
    36   109   111   ar
    37    56    57    1
    38   112   113    1
    39    57    58    1
    40    57    60    1
    41    39    37    1
    42    93    95   ar
    43   110   111   ar
    44    58    59    2
    45    53    52    1
    46    53    54    1
    47    34    37    1
    48    34    33    1
    49   123   122    2
    50    40    41    1
    51    61    60    1
    52    61    63    1
    53   114   113    1
    54   114   115    2
    55   129   130    2
    56   129   135   am
    57    96    97   ar
    58   113   116    1
    59    37    38    1
    60   126   120    1
    61   126   125    1
    62    95    97   ar
    63   135   136    1
    64   120   121    1
    65    41    42    1
    66    41    44    1
    67   122   121    1
    68    45    44    1
    69    45    47    1
    70   116   117    1
    71   116   118    1
    72   125   124    1
    73   117   119    1
    74    42    43    2
    75   121   124    1
    76    86    84    1
    77    44    46    1
    78   136   139    1
    79   136   137    1
    80    82    83    2
    81    82    81    1
    82   139   140    1
    83    80    81    1
    84   137   138    2
    85    12     6    1
    86    12    11    1
    87    81    84    1
    88    84    85    1
    89    30    29    1
    90    30    31    2
    91     1     2    1
    92     6     7    1
    93     2     3    1
    94     2     5    1
    95    29    32    1
    96    29    28    1
    97    11    10    1
    98    75    74    2
    99     3     4    2
   100    10     7    1
   101     7     8    1
   102   160   158    1
   103   141   142    1
   104     8     9    2
   105    74    73    1
   106   158   157    1
   107   145   142    1
   108   145   146    1
   109    76    73    1
   110    76    77    1
   111    79    77    1
   112   153   154    1
   113    73    72    1
   114   142   143    1
   115   157   154    1
   116   157   159    1
   117    20    18    1
   118   146   147   ar
   119   146   148   ar
   120    77    78    1
   121    26    25    1
   122   147   149   ar
   123   154   155    1
   124   143   144    2
   125   148   150   ar
   126    67    66    2
   127    18    17    1
   128    72    66   am
   129   156   155    2
   130    23    22    1
   131    23    24    2
   132    27    25    1
   133   149   151   ar
   134   167   165    1
   135    66    65    1
   136    25    22    1
   137   150   151   ar
   138    19    17    1
   139    22    21    1
   140   151   152    1
   141    17    14    1
   142    70    69    1
   143   166   165    1
   144   165   162    1
   145    13    14    1
   146    65    64    1
   147    65    68    1
   148    14    15    1
   149    71    69    1
   150    69    68    1
   151   161   162    1
   152    15    16    2
   153   162   163    1
   154   164   163    2
