@<TRIPOS>MOLECULE
tmp/4jveA00.pdb
 158 150 0 0 0
SMALL
GASTEIGER

@<TRIPOS>ATOM
      1  N          6.5130   -5.0500   49.2860 N.3    34  LYS34      -0.1245
      2  CA         5.2490   -5.7380   49.5130 C.3    34  LYS34       0.1561
      3  C          5.1480   -7.0290   48.7000 C.2    34  LYS34       0.2260
      4  O          4.6860   -8.0590   49.1980 O.2    34  LYS34      -0.2867
      5  CB         4.0860   -4.8120   49.1390 C.3    34  LYS34       0.0271
      6  CG         2.8840   -4.9470   50.0480 C.3    34  LYS34       0.0035
      7  CD         1.7650   -3.9660   49.6870 C.3    34  LYS34       0.0206
      8  CE         0.7100   -3.8930   50.7890 C.3    34  LYS34       0.1093
      9  NZ         0.3630   -5.2750   51.2730 N.3    34  LYS34      -0.1314
     10  N          7.8020   -9.7970   50.0260 N.3    37  LEU37      -0.1231
     11  CA         7.3090  -10.4820   51.2170 C.3    37  LEU37       0.1693
     12  C          6.1320  -11.3860   50.8670 C.2    37  LEU37       0.2592
     13  O          6.0070  -12.4910   51.3970 O.2    37  LEU37      -0.2718
     14  CB         6.9090   -9.4690   52.2920 C.3    37  LEU37       0.0284
     15  CG         8.0780   -8.8540   53.0830 C.3    37  LEU37       0.0019
     16  CD1        8.7450   -9.9200   53.9350 C.3    37  LEU37       0.0001
     17  CD2        9.0890   -8.2400   52.1360 C.3    37  LEU37       0.0001
     18  N          5.2810  -10.9250   49.9560 N.am   38  PHE38      -0.1976
     19  CA         4.1420  -11.7300   49.5420 C.3    38  PHE38       0.1639
     20  C          4.5890  -13.0850   49.0050 C.2    38  PHE38       0.2290
     21  O          3.9990  -14.1060   49.3320 O.2    38  PHE38      -0.2864
     22  CB         3.3340  -11.0560   48.4400 C.3    38  PHE38       0.0560
     23  CG         2.2070  -11.9130   47.9280 C.ar   38  PHE38      -0.0200
     24  CD1        0.9600  -11.8850   48.5400 C.ar   38  PHE38      -0.0042
     25  CD2        2.4160  -12.8120   46.8890 C.ar   38  PHE38      -0.0042
     26  CE1       -0.0680  -12.7300   48.1160 C.ar   38  PHE38      -0.0003
     27  CE2        1.3880  -13.6620   46.4580 C.ar   38  PHE38      -0.0003
     28  CZ         0.1460  -13.6200   47.0850 C.ar   38  PHE38      -0.0000
     29  N          7.4700  -14.4530   49.5880 N.3    40  LEU40      -0.1231
     30  CA         8.1960  -15.1240   50.6530 C.3    40  LEU40       0.1693
     31  C          7.1990  -15.9500   51.4570 C.2    40  LEU40       0.2593
     32  O          7.4370  -17.1150   51.7540 O.2    40  LEU40      -0.2718
     33  CB         8.8830  -14.1000   51.5650 C.3    40  LEU40       0.0284
     34  CG         9.8480  -14.6960   52.5830 C.3    40  LEU40       0.0019
     35  CD1       10.9820  -15.3800   51.8410 C.3    40  LEU40       0.0001
     36  CD2       10.3940  -13.6020   53.5020 C.3    40  LEU40       0.0001
     37  N          6.0690  -15.3350   51.7850 N.am   41  GLY41      -0.1942
     38  CA         5.0440  -16.0320   52.5360 C.3    41  GLY41       0.2014
     39  C          4.4840  -17.2060   51.7580 C.2    41  GLY41       0.2638
     40  O          4.2100  -18.2590   52.3380 O.2    41  GLY41      -0.2714
     41  N          4.3150  -17.0410   50.4480 N.am   42  GLN42      -0.1977
     42  CA         3.7790  -18.1180   49.6160 C.3    42  GLN42       0.1601
     43  C          4.6790  -19.3530   49.6800 C.2    42  GLN42       0.2287
     44  O          4.2010  -20.4820   49.6980 O.2    42  GLN42      -0.2864
     45  CB         3.6310  -17.6500   48.1700 C.3    42  GLN42       0.0394
     46  CG         3.1860  -18.7250   47.1770 C.3    42  GLN42       0.0908
     47  CD         1.7420  -19.1830   47.3670 C.2    42  GLN42       0.2608
     48  OE1        0.9370  -18.5080   48.0090 O.2    42  GLN42      -0.2717
     49  NE2        1.4090  -20.3280   46.7850 N.am   42  GLN42      -0.0878
     50  N          6.7100  -20.0930   52.1940 N.3    44  ILE44      -0.1231
     51  CA         6.5120  -20.5410   53.5620 C.3    44  ILE44       0.1692
     52  C          5.2560  -21.4050   53.7190 C.2    44  ILE44       0.2591
     53  O          5.2910  -22.4610   54.3430 O.2    44  ILE44      -0.2718
     54  CB         6.4000  -19.3240   54.5050 C.3    44  ILE44       0.0266
     55  CG1        7.7170  -18.5410   54.4900 C.3    44  ILE44       0.0019
     56  CG2        6.0310  -19.7830   55.9130 C.3    44  ILE44       0.0020
     57  CD1        7.6430  -17.1870   55.1550 C.3    44  ILE44       0.0001
     58  N          4.1480  -20.9410   53.1610 N.am   45  MET45      -0.1979
     59  CA         2.9030  -21.6800   53.2510 C.3    45  MET45       0.1605
     60  C          2.9660  -22.9570   52.4430 C.2    45  MET45       0.2287
     61  O          2.5450  -24.0160   52.9090 O.2    45  MET45      -0.2864
     62  CB         1.7270  -20.8290   52.7700 C.3    45  MET45       0.0413
     63  CG         1.4130  -19.6930   53.6960 C.3    45  MET45       0.0598
     64  SD         1.3620  -20.3060   55.3810 S.3    45  MET45      -0.1393
     65  CE         0.4190  -19.1510   56.1250 C.3    45  MET45       0.0692
     66  N          6.4840  -23.5460   59.2190 N.3    50  TYR50      -0.1241
     67  CA         5.9090  -22.8430   60.3560 C.3    50  TYR50       0.1605
     68  C          5.5560  -23.7480   61.5430 C.2    50  TYR50       0.2264
     69  O          5.4780  -24.9730   61.4030 O.2    50  TYR50      -0.2867
     70  CB         4.6720  -22.0670   59.8900 C.3    50  TYR50       0.0534
     71  CG         3.6700  -22.8710   59.0780 C.ar   50  TYR50      -0.0201
     72  CD1        3.0040  -23.9720   59.6320 C.ar   50  TYR50      -0.0009
     73  CD2        3.3610  -22.5070   57.7640 C.ar   50  TYR50      -0.0009
     74  CE1        2.0550  -24.6840   58.8940 C.ar   50  TYR50       0.0417
     75  CE2        2.4150  -23.2110   57.0200 C.ar   50  TYR50       0.0417
     76  CZ         1.7670  -24.2970   57.5900 C.ar   50  TYR50       0.1957
     77  OH         0.8380  -24.9910   56.8590 O.3    50  TYR50      -0.2866
     78  N          0.9580  -21.5900   63.3670 N.3    54  GLN54      -0.1245
     79  CA         1.3580  -20.6200   62.3510 C.3    54  GLN54       0.1566
     80  C          1.7230  -19.2730   62.9580 C.2    54  GLN54       0.2260
     81  O          1.4730  -18.2320   62.3620 O.2    54  GLN54      -0.2867
     82  CB         0.2240  -20.4220   61.3330 C.3    54  GLN54       0.0367
     83  CG        -0.2690  -21.7090   60.6750 C.3    54  GLN54       0.0905
     84  CD        -1.0850  -21.4750   59.3960 C.2    54  GLN54       0.2608
     85  OE1       -1.3260  -22.4090   58.6140 O.2    54  GLN54      -0.2717
     86  NE2       -1.5060  -20.2340   59.1800 N.am   54  GLN54      -0.0878
     87  N          7.8140  -18.7740   62.0640 N.3    57  ILE57      -0.1245
     88  CA         8.3640  -19.3560   60.8710 C.3    57  ILE57       0.1561
     89  C          9.4680  -20.3170   61.2980 C.2    57  ILE57       0.2260
     90  O         10.3560  -19.9430   62.0560 O.2    57  ILE57      -0.2867
     91  CB         8.9270  -18.2530   59.9300 C.3    57  ILE57       0.0252
     92  CG1        7.7860  -17.6310   59.1280 C.3    57  ILE57       0.0019
     93  CG2        9.9490  -18.8390   58.9680 C.3    57  ILE57       0.0019
     94  CD1        7.0100  -16.5950   59.8540 C.3    57  ILE57       0.0001
     95  N         14.8830  -21.2030   52.0530 N.3    65  LEU65      -0.1245
     96  CA        14.9340  -20.1250   53.0280 C.3    65  LEU65       0.1561
     97  C         16.2090  -20.2740   53.8570 C.2    65  LEU65       0.2260
     98  O         16.8700  -19.3000   54.1720 O.2    65  LEU65      -0.2867
     99  CB        13.7320  -20.1870   53.9610 C.3    65  LEU65       0.0270
    100  CG        13.0670  -18.8330   54.2260 C.3    65  LEU65       0.0019
    101  CD1       11.9950  -18.9840   55.3020 C.3    65  LEU65       0.0001
    102  CD2       14.1180  -17.8220   54.6610 C.3    65  LEU65       0.0001
    103  N         12.2650  -16.2590   63.2110 N.3    73  PHE73      -0.1241
    104  CA        11.3350  -15.1600   63.0350 C.3    73  PHE73       0.1605
    105  C          9.9400  -15.5030   63.5040 C.2    73  PHE73       0.2264
    106  O          9.4700  -16.6430   63.3980 O.2    73  PHE73      -0.2867
    107  CB        11.2280  -14.7250   61.5580 C.3    73  PHE73       0.0534
    108  CG        12.5380  -14.3680   60.9270 C.ar   73  PHE73      -0.0203
    109  CD1       13.3270  -15.3550   60.3410 C.ar   73  PHE73      -0.0042
    110  CD2       12.9890  -13.0460   60.9170 C.ar   73  PHE73      -0.0042
    111  CE1       14.5590  -15.0420   59.7750 C.ar   73  PHE73      -0.0003
    112  CE2       14.2160  -12.7120   60.3580 C.ar   73  PHE73      -0.0003
    113  CZ        15.0060  -13.7090   59.7730 C.ar   73  PHE73      -0.0000
    114  N          5.8850  -14.3320   63.1060 N.3    75  VAL75      -0.1245
    115  CA         5.1230  -13.7770   61.9900 C.3    75  VAL75       0.1561
    116  C          4.6790  -12.3450   62.1830 C.2    75  VAL75       0.2260
    117  O          4.2420  -11.7040   61.2340 O.2    75  VAL75      -0.2867
    118  CB         3.8870  -14.5990   61.7140 C.3    75  VAL75       0.0252
    119  CG1        4.2920  -16.0360   61.4150 C.3    75  VAL75       0.0019
    120  CG2        2.9480  -14.5180   62.9180 C.3    75  VAL75       0.0019
    121  N          7.3070   -7.7160   61.9340 N.3    78  HIS78      -0.1241
    122  CA         7.4670   -7.1490   60.6070 C.3    78  HIS78       0.1621
    123  C          8.8090   -6.4990   60.3770 C.2    78  HIS78       0.2264
    124  O          9.5410   -6.8910   59.4730 O.2    78  HIS78      -0.2867
    125  CB         6.3630   -6.1380   60.3320 C.3    78  HIS78       0.0745
    126  CG         5.0470   -6.7630   60.0340 C.ar   78  HIS78       0.0817
    127  ND1        4.6490   -7.9630   60.5990 N.ar   78  HIS78      -0.2268
    128  CD2        4.0100   -6.3620   59.2600 C.ar   78  HIS78       0.1154
    129  CE1        3.4340   -8.2610   60.1880 C.ar   78  HIS78       0.1986
    130  NE2        3.0220   -7.3040   59.3730 N.ar   78  HIS78      -0.2212
    131  N         11.7530   -8.6950   59.9220 N.3    81  ILE81      -0.1231
    132  CA        11.7430   -9.4530   58.6770 C.3    81  ILE81       0.1692
    133  C         12.2230   -8.5500   57.5560 C.2    81  ILE81       0.2592
    134  O         12.9960   -8.9670   56.7120 O.2    81  ILE81      -0.2718
    135  CB        10.3490   -9.9530   58.3250 C.3    81  ILE81       0.0266
    136  CG1        9.7990  -10.7860   59.4810 C.3    81  ILE81       0.0019
    137  CG2       10.4220  -10.8050   57.0590 C.3    81  ILE81       0.0020
    138  CD1        8.3390  -11.1130   59.3610 C.3    81  ILE81       0.0001
    139  N         11.7770   -7.2990   57.5690 N.am   82  TYR82      -0.1976
    140  CA        12.1730   -6.3530   56.5360 C.3    82  TYR82       0.1639
    141  C         13.6700   -6.1340   56.5200 C.2    82  TYR82       0.2290
    142  O         14.2890   -6.0720   55.4620 O.2    82  TYR82      -0.2864
    143  CB        11.4820   -5.0220   56.7480 C.3    82  TYR82       0.0560
    144  CG        10.3030   -4.8300   55.8520 C.ar   82  TYR82      -0.0198
    145  CD1        9.2670   -5.7620   55.8220 C.ar   82  TYR82      -0.0009
    146  CD2       10.2160   -3.7200   55.0250 C.ar   82  TYR82      -0.0009
    147  CE1        8.1770   -5.5820   54.9930 C.ar   82  TYR82       0.0417
    148  CE2        9.1350   -3.5340   54.1910 C.ar   82  TYR82       0.0417
    149  CZ         8.1200   -4.4610   54.1760 C.ar   82  TYR82       0.1957
    150  OH         7.0470   -4.2640   53.3430 O.3    82  TYR82      -0.2866
    151  N         16.1170   -8.1780   57.5080 N.3    84  MET84      -0.1245
    152  CA        16.8200   -9.3160   56.9340 C.3    84  MET84       0.1570
    153  C         16.6790   -9.2360   55.4040 C.2    84  MET84       0.2261
    154  O         17.6580   -9.3890   54.6660 O.2    84  MET84      -0.2867
    155  CB        16.2230  -10.6240   57.4780 C.3    84  MET84       0.0387
    156  CG        15.0940  -11.2290   56.6510 C.3    84  MET84       0.0595
    157  SD        15.7840  -12.0810   55.2190 S.3    84  MET84      -0.1393
    158  CE        14.8190  -13.5910   55.1720 C.3    84  MET84       0.0692
@<TRIPOS>BOND
     1    27    25   ar
     2    27    28   ar
     3    49    47   am
     4    25    23   ar
     5    28    26   ar
     6    46    47    1
     7    46    45    1
     8    47    48    2
     9    23    22    1
    10    23    24   ar
    11    26    24   ar
    12    45    42    1
    13    22    19    1
    14     3     4    2
    15     3     2    1
    16    20    21    2
    17    20    19    1
    18     5     2    1
    19     5     6    1
    20     1     2    1
    21    19    18    1
    22    29    30    1
    23    42    43    1
    24    42    41    1
    25    43    44    2
    26     7     6    1
    27     7     8    1
    28    18    12   am
    29    10    11    1
    30    41    39   am
    31    30    31    1
    32    30    33    1
    33     8     9    1
    34    12    11    1
    35    12    13    2
    36    11    14    1
    37    31    32    2
    38    31    37   am
    39    33    34    1
    40    39    40    2
    41    39    38    1
    42    37    38    1
    43    35    34    1
    44    95    96    1
    45    17    15    1
    46    50    51    1
    47    14    15    1
    48    60    61    2
    49    60    59    1
    50    34    36    1
    51    62    59    1
    52    62    63    1
    53    96    97    1
    54    96    99    1
    55    15    16    1
    56    58    59    1
    57    58    52   am
    58   150   149    1
    59    51    52    1
    60    51    54    1
    61    63    64    1
    62    52    53    2
    63    97    98    2
    64    99   100    1
    65   149   148   ar
    66   149   147   ar
    67   148   146   ar
    68   100   102    1
    69   100   101    1
    70    55    54    1
    71    55    57    1
    72    54    56    1
    73   154   153    2
    74   147   145   ar
    75   146   144   ar
    76   158   157    1
    77   157   156    1
    78    64    65    1
    79   153   152    1
    80   142   141    2
    81   145   144   ar
    82   144   143    1
    83   141   140    1
    84   140   143    1
    85   140   139    1
    86   156   155    1
    87   134   133    2
    88    77    76    1
    89   152   155    1
    90   152   151    1
    91    75    76   ar
    92    75    73   ar
    93   137   135    1
    94   133   139   am
    95   133   132    1
    96    76    74   ar
    97    73    71   ar
    98   135   132    1
    99   135   136    1
   100    85    84    2
   101   132   131    1
   102    74    72   ar
   103    93    91    1
   104    71    72   ar
   105    71    70    1
   106    92    94    1
   107    92    91    1
   108    86    84   am
   109    66    67    1
   110   128   130   ar
   111   128   126   ar
   112   138   136    1
   113   130   129   ar
   114    84    83    1
   115   124   123    2
   116   113   111   ar
   117   113   112   ar
   118   111   109   ar
   119    70    67    1
   120    91    88    1
   121   126   125    1
   122   126   127   ar
   123   129   127   ar
   124   125   122    1
   125   109   108   ar
   126    67    68    1
   127   112   110   ar
   128   123   122    1
   129   122   121    1
   130    83    82    1
   131    88    89    1
   132    88    87    1
   133   110   108   ar
   134   108   107    1
   135   117   116    2
   136    89    90    2
   137    82    79    1
   138    69    68    2
   139   119   118    1
   140   107   104    1
   141   118   115    1
   142   118   120    1
   143   115   116    1
   144   115   114    1
   145    79    80    1
   146    79    78    1
   147    81    80    2
   148   104   103    1
   149   104   105    1
   150   106   105    2
