@<TRIPOS>MOLECULE
tmp/4jvgC00.pdb
 220 211 0 0 0
SMALL
GASTEIGER

@<TRIPOS>ATOM
      1  N         47.5770    8.0150   90.5130 N.3    16  ILE16      -0.1245
      2  CA        47.5860    8.4520   89.1280 C.3    16  ILE16       0.1561
      3  C         46.5260    9.4920   88.7740 C.2    16  ILE16       0.2260
      4  O         46.6310   10.1820   87.7420 O.2    16  ILE16      -0.2867
      5  CB        47.4910    7.2180   88.1820 C.3    16  ILE16       0.0252
      6  CG1       48.8880    6.8400   87.7130 C.3    16  ILE16       0.0019
      7  CG2       46.5830    7.4920   86.9920 C.3    16  ILE16       0.0019
      8  CD1       49.9580    7.7820   88.2450 C.3    16  ILE16       0.0001
      9  N         42.7210    6.8280   91.3080 N.3    24  VAL24      -0.1245
     10  CA        43.4090    5.7130   90.6630 C.3    24  VAL24       0.1561
     11  C         44.9070    5.6810   90.9440 C.2    24  VAL24       0.2260
     12  O         45.5930    6.7090   90.8800 O.2    24  VAL24      -0.2867
     13  CB        43.1550    5.6110   89.1500 C.3    24  VAL24       0.0252
     14  CG1       41.6790    5.4160   88.8910 C.3    24  VAL24       0.0019
     15  CG2       43.6770    6.8210   88.4540 C.3    24  VAL24       0.0019
     16  N         45.5800   -0.7980   86.8410 N.3    34  ALA34      -0.1231
     17  CA        45.1310    0.4820   87.3720 C.3    34  ALA34       0.1694
     18  C         43.9650    0.1850   88.3120 C.2    34  ALA34       0.2592
     19  O         43.1180   -0.6810   88.0270 O.2    34  ALA34      -0.2718
     20  CB        44.7170    1.4190   86.2550 C.3    34  ALA34       0.0304
     21  N         43.9330    0.8890   89.4380 N.am   35  VAL35      -0.1966
     22  CA        42.9320    0.6260   90.4570 C.3    35  VAL35       0.1727
     23  C         42.2110    1.8960   90.8180 C.2    35  VAL35       0.2616
     24  O         42.8470    2.8930   91.1350 O.2    35  VAL35      -0.2715
     25  CB        43.5780    0.0830   91.7540 C.3    35  VAL35       0.0290
     26  CG1       42.6150   -0.8290   92.4860 C.3    35  VAL35       0.0023
     27  CG2       44.8790   -0.6500   91.4430 C.3    35  VAL35       0.0023
     28  N         40.8840    1.8650   90.7670 N.am   36  LYS36      -0.1977
     29  CA        40.0810    2.9980   91.2320 C.3    36  LYS36       0.1596
     30  C         39.4250    2.6240   92.5560 C.2    36  LYS36       0.2287
     31  O         38.9410    1.5040   92.7330 O.2    36  LYS36      -0.2864
     32  CB        39.0150    3.4010   90.2110 C.3    36  LYS36       0.0298
     33  CG        38.2770    4.6750   90.5500 C.3    36  LYS36       0.0038
     34  CD        36.8090    4.6400   90.0710 C.3    36  LYS36       0.0206
     35  CE        36.6830    4.5520   88.5450 C.3    36  LYS36       0.1093
     36  NZ        35.9680    5.7160   87.8980 N.3    36  LYS36      -0.1314
     37  N         28.1720    3.8910   93.0390 N.3    50  ALA50      -0.1245
     38  CA        29.0870    4.1130   91.9190 C.3    50  ALA50       0.1562
     39  C         29.9510    2.8830   91.6950 C.2    50  ALA50       0.2260
     40  O         30.4880    2.6680   90.5950 O.2    50  ALA50      -0.2867
     41  CB        29.9560    5.3300   92.1780 C.3    50  ALA50       0.0290
     42  N         27.3110   -0.0930   90.3240 N.3    53  ASN53      -0.1225
     43  CA        26.9620    0.1810   88.9340 C.3    53  ASN53       0.1785
     44  C         28.1320   -0.0460   87.9880 C.2    53  ASN53       0.2597
     45  O         28.0140   -0.7860   87.0220 O.2    53  ASN53      -0.2718
     46  CB        26.4070    1.6110   88.7540 C.3    53  ASN53       0.1169
     47  CG        25.0140    1.7890   89.3570 C.2    53  ASN53       0.2627
     48  OD1       24.2360    0.8390   89.4550 O.2    53  ASN53      -0.2716
     49  ND2       24.7010    3.0130   89.7650 N.am   53  ASN53      -0.0877
     50  N         29.2630    0.5840   88.2790 N.am   54  GLU54      -0.1979
     51  CA        30.4100    0.5580   87.3780 C.3    54  GLU54       0.1602
     52  C         30.9310   -0.8630   87.1600 C.2    54  GLU54       0.2287
     53  O         31.4360   -1.1900   86.0830 O.2    54  GLU54      -0.2864
     54  CB        31.5220    1.4680   87.9040 C.3    54  GLU54       0.0415
     55  CG        32.6890    1.6470   86.9540 C.3    54  GLU54       0.1163
     56  CD        33.7420    2.5960   87.5040 C.2    54  GLU54       0.3649
     57  OE1       33.7550    2.8200   88.7330 O.co2  54  GLU54      -0.2457
     58  OE2       34.5520    3.1220   86.7110 O.co2  54  GLU54      -0.2457
     59  N         28.4310   -2.6150   84.7890 N.3    57  VAL57      -0.1231
     60  CA        28.6390   -2.2930   83.3850 C.3    57  VAL57       0.1692
     61  C         29.8440   -2.9920   82.8210 C.2    57  VAL57       0.2591
     62  O         29.7850   -3.5980   81.7450 O.2    57  VAL57      -0.2718
     63  CB        28.9880   -0.8170   83.1930 C.3    57  VAL57       0.0266
     64  CG1       28.5230   -0.3530   81.8270 C.3    57  VAL57       0.0020
     65  CG2       28.4010    0.0320   84.2970 C.3    57  VAL57       0.0020
     66  N         30.9540   -2.8550   83.5330 N.am   58  LEU58      -0.1980
     67  CA        32.2370   -3.2720   83.0100 C.3    58  LEU58       0.1596
     68  C         32.3250   -4.7880   82.8400 C.2    58  LEU58       0.2287
     69  O         32.9420   -5.2880   81.8960 O.2    58  LEU58      -0.2864
     70  CB        33.3490   -2.7460   83.9170 C.3    58  LEU58       0.0297
     71  CG        33.6220   -1.2670   83.6500 C.3    58  LEU58       0.0022
     72  CD1       34.6350   -0.7110   84.6230 C.3    58  LEU58       0.0001
     73  CD2       34.0930   -1.0770   82.2000 C.3    58  LEU58       0.0001
     74  N         31.5570   -6.1770   79.4240 N.3    61  THR61      -0.1218
     75  CA        32.3400   -5.7490   78.2730 C.3    61  THR61       0.1862
     76  C         33.6140   -6.5560   78.0900 C.2    61  THR61       0.2287
     77  O         34.4510   -6.6600   78.9890 O.2    61  THR61      -0.2866
     78  CB        32.7000   -4.2380   78.3470 C.3    61  THR61       0.1770
     79  OG1       33.2600   -3.9310   79.6320 O.3    61  THR61      -0.2211
     80  CG2       31.4700   -3.3870   78.1270 C.3    61  THR61       0.0375
     81  N         37.3960   -1.6030   74.2490 N.3    66  ILE66      -0.1231
     82  CA        36.9080   -1.1800   75.5550 C.3    66  ILE66       0.1692
     83  C         37.9770   -1.4700   76.5790 C.2    66  ILE66       0.2591
     84  O         38.5330   -2.5680   76.6160 O.2    66  ILE66      -0.2718
     85  CB        35.6070   -1.8660   75.9490 C.3    66  ILE66       0.0266
     86  CG1       34.5270   -1.5410   74.9300 C.3    66  ILE66       0.0019
     87  CG2       35.1800   -1.4030   77.3170 C.3    66  ILE66       0.0020
     88  CD1       34.4690   -0.0800   74.6050 C.3    66  ILE66       0.0001
     89  N         38.2600   -0.4760   77.4040 N.am   67  LEU67      -0.1980
     90  CA        39.2460   -0.6430   78.4310 C.3    67  LEU67       0.1596
     91  C         38.8750   -1.9040   79.2070 C.2    67  LEU67       0.2287
     92  O         37.6890   -2.1930   79.4100 O.2    67  LEU67      -0.2864
     93  CB        39.2720    0.5730   79.3400 C.3    67  LEU67       0.0297
     94  CG        40.3770    0.5260   80.4010 C.3    67  LEU67       0.0022
     95  CD1       41.7360    0.7420   79.7730 C.3    67  LEU67       0.0001
     96  CD2       40.1070    1.5490   81.4640 C.3    67  LEU67       0.0001
     97  N         38.2410   -1.0350   92.0170 N.3    80  ILE80      -0.1245
     98  CA        37.9800   -1.5850   90.6940 C.3    80  ILE80       0.1561
     99  C         39.2890   -1.6430   89.8930 C.2    80  ILE80       0.2260
    100  O         40.0250   -0.6480   89.8120 O.2    80  ILE80      -0.2867
    101  CB        36.8760   -0.7940   89.9610 C.3    80  ILE80       0.0252
    102  CG1       35.6190   -0.7510   90.8200 C.3    80  ILE80       0.0019
    103  CG2       36.5480   -1.4280   88.6390 C.3    80  ILE80       0.0019
    104  CD1       34.4470   -0.0730   90.1700 C.3    80  ILE80       0.0001
    105  N         41.5610   -2.4530   86.4220 N.3    82  THR82      -0.1203
    106  CA        41.6210   -2.5450   84.9780 C.3    82  THR82       0.1994
    107  C         43.0720   -2.6880   84.5680 C.2    82  THR82       0.2618
    108  O         43.9770   -2.4730   85.3570 O.2    82  THR82      -0.2717
    109  CB        41.0770   -1.2970   84.3110 C.3    82  THR82       0.1784
    110  OG1       42.1320   -0.3410   84.1740 O.3    82  THR82      -0.2211
    111  CG2       39.9620   -0.6930   85.1330 C.3    82  THR82       0.0376
    112  N         43.2870   -3.0460   83.3160 N.am   83  GLN83      -0.1965
    113  CA        44.6230   -3.1800   82.7730 C.3    83  GLN83       0.1733
    114  C         45.3340   -1.8570   82.8800 C.2    83  GLN83       0.2616
    115  O         44.7060   -0.8010   82.8750 O.2    83  GLN83      -0.2715
    116  CB        44.5520   -3.5890   81.2970 C.3    83  GLN83       0.0408
    117  CG        43.5630   -2.7750   80.4720 C.3    83  GLN83       0.0908
    118  CD        43.6840   -3.0440   78.9910 C.2    83  GLN83       0.2608
    119  OE1       42.8550   -2.6000   78.1940 O.2    83  GLN83      -0.2717
    120  NE2       44.7250   -3.7730   78.6100 N.am   83  GLN83      -0.0878
    121  N         46.6510   -1.9080   82.9930 N.am   84  TRP84      -0.1960
    122  CA        47.4500   -0.6900   82.9390 C.3    84  TRP84       0.1771
    123  C         47.8450   -0.4560   81.4950 C.2    84  TRP84       0.2619
    124  O         48.2050   -1.3860   80.7950 O.2    84  TRP84      -0.2715
    125  CB        48.6990   -0.8200   83.8120 C.3    84  TRP84       0.0590
    126  CG        49.5430    0.3780   83.7390 C.ar   84  TRP84       0.0006
    127  CD1       50.7320    0.5150   83.0750 C.ar   84  TRP84       0.0946
    128  CD2       49.2550    1.6540   84.3000 C.ar   84  TRP84       0.0152
    129  NE1       51.2050    1.7930   83.2030 N.ar   84  TRP84      -0.2442
    130  CE2       50.3120    2.5140   83.9540 C.ar   84  TRP84       0.0810
    131  CE3       48.2010    2.1480   85.0730 C.ar   84  TRP84       0.0012
    132  CZ2       50.3530    3.8530   84.3570 C.ar   84  TRP84       0.0191
    133  CZ3       48.2400    3.4740   85.4660 C.ar   84  TRP84       0.0001
    134  CH2       49.3090    4.3110   85.1110 C.ar   84  TRP84       0.0015
    135  N         47.7560    0.7770   81.0320 N.am   85  CYS85      -0.1968
    136  CA        48.0720    1.0590   79.6370 C.3    85  CYS85       0.1712
    137  C         49.0350    2.2150   79.5420 C.2    85  CYS85       0.2296
    138  O         48.8960    3.1950   80.2660 O.2    85  CYS85      -0.2864
    139  CB        46.8100    1.4080   78.8300 C.3    85  CYS85       0.0983
    140  SG        45.5990    0.0510   78.5700 S.3    85  CYS85      -0.0798
    141  N         29.3470   -1.4760   72.4320 N.3   120  LEU120     -0.1245
    142  CA        28.5220   -1.0610   73.5600 C.3   120  LEU120      0.1561
    143  C         27.0470   -1.0740   73.1800 C.2   120  LEU120      0.2260
    144  O         26.2610   -1.8640   73.7300 O.2   120  LEU120     -0.2867
    145  CB        28.9270    0.3360   74.0310 C.3   120  LEU120      0.0270
    146  CG        30.2970    0.4090   74.7080 C.3   120  LEU120      0.0019
    147  CD1       30.6300    1.8370   75.1100 C.3   120  LEU120      0.0001
    148  CD2       30.3460   -0.5260   75.9120 C.3   120  LEU120      0.0001
    149  N         24.3890   -0.5830   75.9660 N.3   125  ILE125     -0.1231
    150  CA        25.0580    0.2640   76.9190 C.3   125  ILE125      0.1692
    151  C         25.1580    1.6350   76.3150 C.2   125  ILE125      0.2592
    152  O         25.6440    1.7930   75.1980 O.2   125  ILE125     -0.2718
    153  CB        26.4760   -0.2340   77.1790 C.3   125  ILE125      0.0266
    154  CG1       26.4980   -1.1860   78.3680 C.3   125  ILE125      0.0019
    155  CG2       27.4080    0.9360   77.4370 C.3   125  ILE125      0.0020
    156  CD1       27.5300   -2.2620   78.2340 C.3   125  ILE125      0.0001
    157  N         24.6850    2.6320   77.0450 N.am  126  ILE126     -0.1966
    158  CA        24.8650    4.0080   76.6050 C.3   126  ILE126      0.1727
    159  C         26.0020    4.6200   77.4250 C.2   126  ILE126      0.2616
    160  O         25.9690    4.6120   78.6630 O.2   126  ILE126     -0.2715
    161  CB        23.5760    4.8320   76.7450 C.3   126  ILE126      0.0290
    162  CG1       22.4980    3.9930   77.4200 C.3   126  ILE126      0.0022
    163  CG2       23.0780    5.2800   75.3970 C.3   126  ILE126      0.0023
    164  CD1       21.1040    4.4910   77.1150 C.3   126  ILE126      0.0001
    165  N         27.0320    5.0820   76.7310 N.am  127  HIS127     -0.1973
    166  CA        28.2130    5.6160   77.3780 C.3   127  HIS127      0.1656
    167  C         27.9510    6.8750   78.1880 C.2   127  HIS127      0.2291
    168  O         28.3870    6.9940   79.3190 O.2   127  HIS127     -0.2864
    169  CB        29.2500    5.8950   76.3050 C.3   127  HIS127      0.0771
    170  CG        30.5930    6.2560   76.8350 C.ar  127  HIS127      0.0820
    171  ND1       30.7630    7.0680   77.9290 N.ar  127  HIS127     -0.2267
    172  CD2       31.8320    5.9370   76.4050 C.ar  127  HIS127      0.1154
    173  CE1       32.0510    7.2220   78.1600 C.ar  127  HIS127      0.1986
    174  NE2       32.7220    6.5500   77.2460 N.ar  127  HIS127     -0.2212
    175  N         41.2530    6.5990   75.2090 N.3   136  PHE136     -0.1241
    176  CA        42.6550    6.4310   75.5420 C.3   136  PHE136      0.1605
    177  C         43.4490    5.8320   74.3830 C.2   136  PHE136      0.2264
    178  O         42.9600    4.9530   73.6670 O.2   136  PHE136     -0.2867
    179  CB        42.8040    5.5360   76.7560 C.3   136  PHE136      0.0534
    180  CG        44.2020    5.4830   77.2810 C.ar  136  PHE136     -0.0203
    181  CD1       44.6750    6.4840   78.1200 C.ar  136  PHE136     -0.0042
    182  CD2       45.0500    4.4340   76.9390 C.ar  136  PHE136     -0.0042
    183  CE1       45.9560    6.4340   78.6130 C.ar  136  PHE136     -0.0003
    184  CE2       46.3460    4.3830   77.4420 C.ar  136  PHE136     -0.0003
    185  CZ        46.7960    5.3840   78.2780 C.ar  136  PHE136     -0.0000
    186  N         38.2400    2.7220   75.0620 N.3   145  ILE145     -0.1231
    187  CA        37.1640    3.5910   75.5260 C.3   145  ILE145      0.1692
    188  C         36.7890    3.2800   76.9690 C.2   145  ILE145      0.2593
    189  O         36.8040    2.1250   77.3670 O.2   145  ILE145     -0.2718
    190  CB        35.9260    3.4110   74.6510 C.3   145  ILE145      0.0266
    191  CG1       36.2530    3.7630   73.2090 C.3   145  ILE145      0.0019
    192  CG2       34.7820    4.2560   75.1500 C.3   145  ILE145      0.0020
    193  CD1       35.0690    3.7290   72.3140 C.3   145  ILE145      0.0001
    194  N         36.4720    4.3150   77.7460 N.am  146  GLY146     -0.1942
    195  CA        36.0360    4.1520   79.1250 C.3   146  GLY146      0.2014
    196  C         35.5220    5.4550   79.7050 C.2   146  GLY146      0.2639
    197  O         35.4930    6.4750   79.0180 O.2   146  GLY146     -0.2714
    198  N         35.0910    5.4320   80.9620 N.am  147  ASP147     -0.1957
    199  CA        34.7660    6.6860   81.6300 C.3   147  ASP147      0.1840
    200  C         35.8520    7.0040   82.6660 C.2   147  ASP147      0.2622
    201  O         35.9170    6.4040   83.7600 O.2   147  ASP147     -0.2715
    202  CB        33.3690    6.6530   82.2610 C.3   147  ASP147      0.1450
    203  CG        32.7180    8.0450   82.3140 C.2   147  ASP147      0.3671
    204  OD1       33.4180    9.0340   82.6720 O.co2 147  ASP147     -0.2456
    205  OD2       31.5060    8.1550   81.9960 O.co2 147  ASP147     -0.2456
    206  N         36.6870    7.9780   82.3100 N.am  148  PHE148     -0.1960
    207  CA        37.8360    8.3570   83.1160 C.3   148  PHE148      0.1771
    208  C         37.3870    9.4440   84.0620 C.2   148  PHE148      0.2620
    209  O         38.1300    9.8510   84.9480 O.2   148  PHE148     -0.2715
    210  CB        38.9640    8.8720   82.2220 C.3   148  PHE148      0.0574
    211  CG        39.5590    7.8180   81.3230 C.ar  148  PHE148     -0.0200
    212  CD1       40.8980    7.5100   81.3900 C.ar  148  PHE148     -0.0042
    213  CD2       38.7790    7.1420   80.4080 C.ar  148  PHE148     -0.0042
    214  CE1       41.4470    6.5390   80.5680 C.ar  148  PHE148     -0.0003
    215  CE2       39.3250    6.1700   79.5870 C.ar  148  PHE148     -0.0003
    216  CZ        40.6630    5.8700   79.6720 C.ar  148  PHE148     -0.0000
    217  N         36.1570    9.9160   83.8700 N.am  149  GLY149     -0.1954
    218  CA        35.6330   10.9600   84.7240 C.3   149  GLY149      0.1869
    219  C         35.5740   10.4380   86.1430 C.2   149  GLY149      0.2309
    220  O         34.8810    9.4500   86.4410 O.2   149  GLY149     -0.2863
@<TRIPOS>BOND
     1   193   191    1
     2   141   142    1
     3   143   142    1
     4   143   144    2
     5   191   190    1
     6   142   145    1
     7   178   177    2
     8   145   146    1
     9    81    82    1
    10   177   176    1
    11    88    86    1
    12   190   192    1
    13   190   187    1
    14   146   147    1
    15   146   148    1
    16    86    85    1
    17   186   187    1
    18   152   151    2
    19   175   176    1
    20   163   161    1
    21   187   188    1
    22   176   179    1
    23    82    85    1
    24    82    83    1
    25    85    87    1
    26   149   150    1
    27   169   170    1
    28   169   166    1
    29   151   150    1
    30   151   157   am
    31   172   170   ar
    32   172   174   ar
    33    83    84    2
    34    83    89   am
    35   158   161    1
    36   158   157    1
    37   158   159    1
    38   165   166    1
    39   165   159   am
    40   161   162    1
    41   179   180    1
    42   170   171   ar
    43   150   153    1
    44   182   180   ar
    45   182   184   ar
    46   188   189    2
    47   188   194   am
    48   164   162    1
    49   153   155    1
    50   153   154    1
    51   174   173   ar
    52   180   181   ar
    53   166   167    1
    54    89    90    1
    55   159   160    2
    56   184   185   ar
    57   194   195    1
    58   171   173   ar
    59    76    75    1
    60    76    77    2
    61   181   183   ar
    62    80    78    1
    63   167   168    2
    64   119   118    2
    65   156   154    1
    66    75    78    1
    67    75    74    1
    68   185   183   ar
    69    78    79    1
    70    90    91    1
    71    90    93    1
    72   140   139    1
    73   120   118   am
    74   139   136    1
    75   118   117    1
    76   197   196    2
    77   195   196    1
    78    91    92    2
    79    93    94    1
    80   137   136    1
    81   137   138    2
    82   215   216   ar
    83   215   213   ar
    84   136   135    1
    85   216   214   ar
    86   196   198   am
    87    95    94    1
    88    94    96    1
    89   213   211   ar
    90   117   116    1
    91   214   212   ar
    92   124   123    2
    93   198   199    1
    94   135   123   am
    95   116   113    1
    96   211   212   ar
    97   211   210    1
    98   123   122    1
    99   199   202    1
   100   199   200    1
   101    62    61    2
   102    64    63    1
   103    69    68    2
   104   205   203   ar
   105    73    71    1
   106   210   207    1
   107   202   203    1
   108   206   200   am
   109   206   207    1
   110   203   204   ar
   111   200   201    2
   112   113   114    1
   113   113   112    1
   114    61    60    1
   115    61    66   am
   116    68    67    1
   117   115   114    2
   118   114   121   am
   119   122   121    1
   120   122   125    1
   121    67    66    1
   122    67    70    1
   123   127   129   ar
   124   127   126   ar
   125   207   208    1
   126    63    60    1
   127    63    65    1
   128   129   130   ar
   129   112   107   am
   130    60    59    1
   131    71    70    1
   132    71    72    1
   133   126   125    1
   134   126   128   ar
   135   217   208   am
   136   217   218    1
   137   130   128   ar
   138   130   132   ar
   139   208   209    2
   140   110   109    1
   141   128   131   ar
   142   109   106    1
   143   109   111    1
   144   132   134   ar
   145   107   106    1
   146   107   108    2
   147   218   219    1
   148   106   105    1
   149   131   133   ar
   150   134   133   ar
   151    53    52    2
   152   219   220    2
   153    20    17    1
   154    58    56   ar
   155    16    17    1
   156    55    56    1
   157    55    54    1
   158     7     5    1
   159    45    44    2
   160    52    51    1
   161    17    18    1
   162    51    54    1
   163    51    50    1
   164    56    57   ar
   165     6     5    1
   166     6     8    1
   167     4     3    2
   168    36    35    1
   169    44    50   am
   170    44    43    1
   171    19    18    2
   172     5     2    1
   173    18    21   am
   174    15    13    1
   175    35    34    1
   176   103   101    1
   177    46    43    1
   178    46    47    1
   179     3     2    1
   180    14    13    1
   181    43    42    1
   182     2     1    1
   183    13    10    1
   184    47    48    2
   185    47    49   am
   186    21    22    1
   187   100    99    2
   188    99    98    1
   189   101    98    1
   190   101   102    1
   191    34    33    1
   192   104   102    1
   193    32    33    1
   194    32    29    1
   195    22    23    1
   196    22    25    1
   197    40    39    2
   198    10    11    1
   199    10     9    1
   200    98    97    1
   201    28    23   am
   202    28    29    1
   203    23    24    2
   204    12    11    2
   205    29    30    1
   206    27    25    1
   207    39    38    1
   208    25    26    1
   209    38    41    1
   210    38    37    1
   211    30    31    2
