@<TRIPOS>MOLECULE
tmp/4jviA00.pdb
 196 183 0 0 0
SMALL
GASTEIGER

@<TRIPOS>ATOM
      1  N        -25.0560   64.9790    7.1840 N.3     9  ALA9       -0.1245
      2  CA       -26.4920   65.0110    7.4680 C.3     9  ALA9        0.1562
      3  C        -26.8540   66.2070    8.2880 C.2     9  ALA9        0.2260
      4  O        -28.0240   66.5460    8.3990 O.2     9  ALA9       -0.2867
      5  CB       -26.9520   63.7260    8.1590 C.3     9  ALA9        0.0290
      6  N        -22.2070   60.2960    7.4960 N.3    36  PRO36      -0.2116
      7  CA       -22.6100   59.9300    8.8610 C.3    36  PRO36       0.1372
      8  C        -22.1930   58.4900    9.1680 C.2    36  PRO36       0.2244
      9  O        -21.8510   58.1740   10.3260 O.2    36  PRO36      -0.2868
     10  CB       -24.1300   60.0700    8.8530 C.3    36  PRO36       0.0268
     11  CG       -24.4260   60.9340    7.6530 C.3    36  PRO36       0.0207
     12  CD       -23.3070   60.7750    6.6470 C.3    36  PRO36       0.0892
     13  N        -25.3970   62.6420   13.4230 N.3    56  ILE56      -0.1245
     14  CA       -26.6090   62.0370   13.8110 C.3    56  ILE56       0.1561
     15  C        -26.4180   60.6230   14.3840 C.2    56  ILE56       0.2260
     16  O        -27.3860   60.0750   14.9010 O.2    56  ILE56      -0.2867
     17  CB       -27.6100   62.0110   12.6710 C.3    56  ILE56       0.0252
     18  CG1      -27.0490   61.2000   11.5420 C.3    56  ILE56       0.0019
     19  CG2      -28.0000   63.4270   12.2540 C.3    56  ILE56       0.0019
     20  CD1      -28.0940   60.8260   10.5120 C.3    56  ILE56       0.0001
     21  N        -33.0160   67.5280   14.0000 N.3    73  THR73      -0.1203
     22  CA       -33.1260   67.7750   12.5650 C.3    73  THR73       0.1994
     23  C        -34.1270   66.7720   11.9700 C.2    73  THR73       0.2618
     24  O        -34.6850   65.9560   12.7080 O.2    73  THR73      -0.2717
     25  CB       -31.7490   67.6510   11.9090 C.3    73  THR73       0.1784
     26  OG1      -31.8690   67.8880   10.5100 O.3    73  THR73      -0.2211
     27  CG2      -31.2250   66.2950   12.0850 C.3    73  THR73       0.0376
     28  N        -34.3760   66.8040   10.6600 N.am   74  LYS74      -0.1965
     29  CA       -35.3480   65.8400   10.1180 C.3    74  LYS74       0.1728
     30  C        -34.9490   65.0820    8.8770 C.2    74  LYS74       0.2616
     31  O        -34.3670   65.6170    7.9940 O.2    74  LYS74      -0.2715
     32  CB       -36.7180   66.4710    9.9370 C.3    74  LYS74       0.0311
     33  CG       -37.3030   67.0670   11.2130 C.3    74  LYS74       0.0038
     34  CD       -38.7970   67.3170   11.0660 C.3    74  LYS74       0.0206
     35  CE       -39.4600   67.4280   12.4320 C.3    74  LYS74       0.1093
     36  NZ       -39.1360   66.2560   13.3140 N.3    74  LYS74      -0.1314
     37  N        -35.2480   63.7990    8.8520 N.am   75  ALA75      -0.1977
     38  CA       -34.9470   62.9310    7.7330 C.3    75  ALA75       0.1597
     39  C        -36.2730   62.5830    7.1290 C.2    75  ALA75       0.2287
     40  O        -37.3160   62.6940    7.7960 O.2    75  ALA75      -0.2864
     41  CB       -34.3090   61.6530    8.2200 C.3    75  ALA75       0.0319
     42  N        -38.0140   59.5830    4.3200 N.3    77  VAL77      -0.1245
     43  CA       -37.7550   58.4900    3.4210 C.3    77  VAL77       0.1561
     44  C        -38.4180   58.8780    2.1500 C.2    77  VAL77       0.2260
     45  O        -39.6370   59.1500    2.1090 O.2    77  VAL77      -0.2867
     46  CB       -38.1450   57.0790    3.9080 C.3    77  VAL77       0.0252
     47  CG1      -38.7480   57.0800    5.2840 C.3    77  VAL77       0.0019
     48  CG2      -39.0150   56.3580    2.8950 C.3    77  VAL77       0.0019
     49  N        -45.3030   51.0090    4.3070 N.3    93  ILE93      -0.1245
     50  CA       -44.4790   51.1670    5.5010 C.3    93  ILE93       0.1561
     51  C        -43.8680   49.8040    5.8970 C.2    93  ILE93       0.2260
     52  O        -42.7160   49.7420    6.3520 O.2    93  ILE93      -0.2867
     53  CB       -45.3030   51.7850    6.6680 C.3    93  ILE93       0.0252
     54  CG1      -45.9530   53.1290    6.2700 C.3    93  ILE93       0.0019
     55  CG2      -44.5020   51.8640    7.9710 C.3    93  ILE93       0.0019
     56  CD1      -45.0350   54.1870    5.6940 C.3    93  ILE93       0.0001
     57  N        -41.3370   47.8920    2.5350 N.3    96  LEU96      -0.1245
     58  CA       -40.0930   48.4430    2.0810 C.3    96  LEU96       0.1561
     59  C        -38.8780   47.8250    2.7380 C.2    96  LEU96       0.2260
     60  O        -37.7600   48.2290    2.4450 O.2    96  LEU96      -0.2867
     61  CB       -40.1030   49.9600    2.2230 C.3    96  LEU96       0.0270
     62  CG       -39.7890   50.7400    3.4900 C.3    96  LEU96       0.0019
     63  CD1      -40.4970   52.0940    3.4020 C.3    96  LEU96       0.0001
     64  CD2      -40.1860   49.9830    4.7470 C.3    96  LEU96       0.0001
     65  N        -33.5310   49.5100   -1.0950 N.3   101  GLN101     -0.1245
     66  CA       -33.1350   50.6930   -0.3700 C.3   101  GLN101      0.1566
     67  C        -31.7630   51.1180   -0.8810 C.2   101  GLN101      0.2260
     68  O        -30.8440   50.3020   -0.9570 O.2   101  GLN101     -0.2867
     69  CB       -33.0770   50.4350    1.1450 C.3   101  GLN101      0.0367
     70  CG       -32.9990   51.7110    1.9810 C.3   101  GLN101      0.0905
     71  CD       -32.4720   51.5050    3.3960 C.2   101  GLN101      0.2608
     72  OE1      -32.5720   50.4190    3.9830 O.2   101  GLN101     -0.2717
     73  NE2      -31.9140   52.5640    3.9540 N.am  101  GLN101     -0.0878
     74  N        -26.5910   54.2530    2.7090 N.3   104  LEU104     -0.1245
     75  CA       -25.3260   54.9080    2.8100 C.3   104  LEU104      0.1561
     76  C        -24.2390   53.9170    3.2030 C.2   104  LEU104      0.2260
     77  O        -24.3070   53.2930    4.2650 O.2   104  LEU104     -0.2867
     78  CB       -25.4350   56.0270    3.8320 C.3   104  LEU104      0.0270
     79  CG       -24.6120   57.2790    3.4580 C.3   104  LEU104      0.0019
     80  CD1      -23.9830   57.1340    2.0840 C.3   104  LEU104      0.0001
     81  CD2      -25.4590   58.5480    3.4640 C.3   104  LEU104      0.0001
     82  N        -28.7130   52.5980   14.1750 N.3   114  LEU114     -0.1231
     83  CA       -29.3030   53.7900   13.6020 C.3   114  LEU114      0.1693
     84  C        -29.1270   53.8400   12.1000 C.2   114  LEU114      0.2592
     85  O        -30.0730   54.2040   11.4030 O.2   114  LEU114     -0.2718
     86  CB       -28.7340   55.0540   14.2590 C.3   114  LEU114      0.0284
     87  CG       -29.6280   56.3110   14.3780 C.3   114  LEU114      0.0019
     88  CD1      -29.2850   57.4300   13.4150 C.3   114  LEU114      0.0001
     89  CD2      -31.1130   55.9990   14.2360 C.3   114  LEU114      0.0001
     90  N        -27.9600   53.4480   11.5850 N.am  115  LEU115     -0.1966
     91  CA       -27.7390   53.6000   10.1390 C.3   115  LEU115      0.1728
     92  C        -27.7500   52.3520    9.2820 C.2   115  LEU115      0.2616
     93  O        -27.8460   52.4550    8.0670 O.2   115  LEU115     -0.2715
     94  CB       -26.5040   54.4670    9.8530 C.3   115  LEU115      0.0311
     95  CG       -26.5510   55.8010   10.6170 C.3   115  LEU115      0.0022
     96  CD1      -25.2660   56.5880   10.4970 C.3   115  LEU115      0.0001
     97  CD2      -27.6910   56.6590   10.1170 C.3   115  LEU115      0.0001
     98  N        -27.7760   51.2100    9.9260 N.am  116  ARG116     -0.1977
     99  CA       -27.8200   49.9560    9.2430 C.3   116  ARG116      0.1597
    100  C        -29.0700   49.9680    8.4060 C.2   116  ARG116      0.2287
    101  O        -30.0780   50.5260    8.8020 O.2   116  ARG116     -0.2864
    102  CB       -27.8840   48.8530   10.2860 C.3   116  ARG116      0.0334
    103  CG       -28.3000   47.4940    9.7730 C.3   116  ARG116      0.0492
    104  CD       -27.3440   46.4110   10.2440 C.3   116  ARG116      0.2205
    105  NE       -26.7790   46.7040   11.5510 N.pl3 116  ARG116     -0.0865
    106  CZ       -27.5000   47.1050   12.5830 C.cat 116  ARG116      0.5346
    107  NH1      -28.8070   47.2510   12.4450 N.pl3 116  ARG116      0.1354
    108  NH2      -26.9200   47.3560   13.7460 N.pl3 116  ARG116      0.1354
    109  N        -32.4880   49.1740    6.6690 N.3   118  VAL118     -0.1245
    110  CA       -33.6840   48.4320    6.9750 C.3   118  VAL118      0.1561
    111  C        -33.9040   47.2400    6.0710 C.2   118  VAL118      0.2260
    112  O        -34.3350   46.1940    6.5080 O.2   118  VAL118     -0.2867
    113  CB       -34.9030   49.3340    6.8830 C.3   118  VAL118      0.0252
    114  CG1      -34.6780   50.5620    7.7250 C.3   118  VAL118      0.0019
    115  CG2      -35.1380   49.7370    5.4490 C.3   118  VAL118      0.0019
    116  N        -25.1080   61.5880   -0.1580 N.3   128  PHE128     -0.1241
    117  CA       -26.5280   61.8120   -0.4020 C.3   128  PHE128      0.1605
    118  C        -26.9230   62.1130   -1.8220 C.2   128  PHE128      0.2264
    119  O        -27.9300   61.6020   -2.2790 O.2   128  PHE128     -0.2867
    120  CB       -27.1050   62.8570    0.5340 C.3   128  PHE128      0.0534
    121  CG       -27.1320   62.4280    1.9740 C.ar  128  PHE128     -0.0203
    122  CD1      -26.2670   63.0030    2.9040 C.ar  128  PHE128     -0.0042
    123  CD2      -28.0260   61.4460    2.4050 C.ar  128  PHE128     -0.0042
    124  CE1      -26.3080   62.6200    4.2320 C.ar  128  PHE128     -0.0003
    125  CE2      -28.0620   61.0540    3.7350 C.ar  128  PHE128     -0.0003
    126  CZ       -27.2130   61.6490    4.6480 C.ar  128  PHE128     -0.0000
    127  N        -35.4500   53.5210   -2.8900 N.3   141  TRP141     -0.1241
    128  CA       -35.9450   54.5520   -1.9460 C.3   141  TRP141      0.1605
    129  C        -34.8310   54.7650   -0.9140 C.2   141  TRP141      0.2264
    130  O        -34.0220   53.8520   -0.6620 O.2   141  TRP141     -0.2867
    131  CB       -37.2440   54.1210   -1.2190 C.3   141  TRP141      0.0550
    132  CG       -37.0560   52.8620   -0.3510 C.ar  141  TRP141      0.0003
    133  CD1      -37.2770   51.5830   -0.7380 C.ar  141  TRP141      0.0946
    134  CD2      -36.5760   52.7810    1.0160 C.ar  141  TRP141      0.0152
    135  NE1      -36.9790   50.7040    0.2740 N.ar  141  TRP141     -0.2442
    136  CE2      -36.5390   51.4040    1.3610 C.ar  141  TRP141      0.0810
    137  CE3      -36.1890   53.7330    1.9810 C.ar  141  TRP141      0.0012
    138  CZ2      -36.1120   50.9460    2.6170 C.ar  141  TRP141      0.0191
    139  CZ3      -35.7710   53.2750    3.2430 C.ar  141  TRP141      0.0001
    140  CH2      -35.7360   51.8920    3.5430 C.ar  141  TRP141      0.0015
    141  N        -33.4050   57.1290    2.8770 N.3   143  ILE143     -0.1245
    142  CA       -33.6540   58.0890    3.9450 C.3   143  ILE143      0.1561
    143  C        -32.6340   59.2190    3.7670 C.2   143  ILE143      0.2260
    144  O        -31.4090   58.9790    3.8150 O.2   143  ILE143     -0.2867
    145  CB       -33.4580   57.4560    5.3270 C.3   143  ILE143      0.0252
    146  CG1      -34.3690   56.2490    5.5040 C.3   143  ILE143      0.0019
    147  CG2      -33.7250   58.4750    6.4150 C.3   143  ILE143      0.0019
    148  CD1      -33.6080   55.0020    5.9140 C.3   143  ILE143      0.0001
    149  N        -31.5130   63.5490    4.7270 N.3   145  PRO145     -0.2116
    150  CA       -31.7540   64.7550    5.5450 C.3   145  PRO145      0.1372
    151  C        -32.6560   65.6870    4.8130 C.2   145  PRO145      0.2244
    152  O        -32.6640   65.7150    3.5760 O.2   145  PRO145     -0.2868
    153  CB       -30.3920   65.4380    5.6280 C.3   145  PRO145      0.0268
    154  CG       -29.4080   64.4250    5.1610 C.3   145  PRO145      0.0207
    155  CD       -30.1310   63.5160    4.2220 C.3   145  PRO145      0.0892
    156  N        -42.3490   58.9550    1.3920 N.3   161  LEU161     -0.1231
    157  CA       -43.0060   57.7500    1.8390 C.3   161  LEU161      0.1693
    158  C        -43.1310   57.6840    3.3520 C.2   161  LEU161      0.2592
    159  O        -43.7800   56.7930    3.8950 O.2   161  LEU161     -0.2718
    160  CB       -42.1810   56.5770    1.4300 C.3   161  LEU161      0.0284
    161  CG       -41.9690   56.4000   -0.0410 C.3   161  LEU161      0.0019
    162  CD1      -40.8320   55.4000   -0.1430 C.3   161  LEU161      0.0001
    163  CD2      -43.2440   55.8280   -0.6020 C.3   161  LEU161      0.0001
    164  N        -42.4990   58.6230    4.0290 N.am  162  SER162     -0.1952
    165  CA       -42.1750   58.4320    5.4340 C.3   162  SER162      0.1924
    166  C        -43.2330   58.9710    6.3500 C.2   162  SER162      0.2314
    167  O        -42.9430   59.2180    7.4890 O.2   162  SER162     -0.2863
    168  CB       -40.8390   59.1080    5.7720 C.3   162  SER162      0.2116
    169  OG       -41.0370   60.3960    6.3220 O.3   162  SER162     -0.2180
    170  N        -45.3160   56.6510    9.4820 N.3   165  TYR165     -0.1241
    171  CA       -44.3920   56.4360   10.5450 C.3   165  TYR165      0.1605
    172  C        -43.9510   57.8280   10.7570 C.2   165  TYR165      0.2264
    173  O        -43.6480   58.4920    9.8020 O.2   165  TYR165     -0.2867
    174  CB       -43.2340   55.6290   10.0030 C.3   165  TYR165      0.0534
    175  CG       -42.0960   55.4360   10.9500 C.ar  165  TYR165     -0.0201
    176  CD1      -41.2110   56.4450   11.2020 C.ar  165  TYR165     -0.0009
    177  CD2      -41.8950   54.2330   11.5740 C.ar  165  TYR165     -0.0009
    178  CE1      -40.1660   56.2660   12.0640 C.ar  165  TYR165      0.0417
    179  CE2      -40.8530   54.0490   12.4380 C.ar  165  TYR165      0.0417
    180  CZ       -39.9980   55.0740   12.6740 C.ar  165  TYR165      0.1957
    181  OH       -38.9630   54.8940   13.5340 O.3   165  TYR165     -0.2866
    182  N        -38.9240   62.3430   10.1940 N.3   170  ILE170     -0.1245
    183  CA       -38.3600   61.5130   11.2020 C.3   170  ILE170      0.1561
    184  C        -37.4800   62.3750   12.0090 C.2   170  ILE170      0.2260
    185  O        -36.6460   63.0690   11.4940 O.2   170  ILE170     -0.2867
    186  CB       -37.5270   60.4280   10.5830 C.3   170  ILE170      0.0252
    187  CG1      -38.3700   59.6830    9.5740 C.3   170  ILE170      0.0019
    188  CG2      -37.0450   59.4980   11.6590 C.3   170  ILE170      0.0019
    189  CD1      -37.7870   58.3700    9.1440 C.3   170  ILE170      0.0001
    190  N        -34.6030   63.3790   14.3020 N.3   172  THR172     -0.1218
    191  CA       -33.3230   62.7510   14.5790 C.3   172  THR172      0.1862
    192  C        -32.4550   63.6990   15.3890 C.2   172  THR172      0.2287
    193  O        -32.3800   64.8620   15.0480 O.2   172  THR172     -0.2866
    194  CB       -32.5900   62.2410   13.2940 C.3   172  THR172      0.1770
    195  OG1      -31.9000   63.3190   12.6960 O.3   172  THR172     -0.2211
    196  CG2      -33.5440   61.6140   12.2330 C.3   172  THR172      0.0375
@<TRIPOS>BOND
     1   127   128    1
     2   119   118    2
     3   128   131    1
     4   128   129    1
     5   118   117    1
     6   131   132    1
     7    65    66    1
     8    68    67    2
     9   129   130    2
    10    67    66    1
    11   133   132   ar
    12   133   135   ar
    13   163   161    1
    14   117   116    1
    15   117   120    1
    16    66    69    1
    17   132   134   ar
    18   162   161    1
    19   161   160    1
    20   135   136   ar
    21   120   121    1
    22   134   136   ar
    23   134   137   ar
    24    69    70    1
    25   136   138   ar
    26   156   157    1
    27   160   157    1
    28   157   158    1
    29   121   123   ar
    30   121   122   ar
    31    70    71    1
    32   137   139   ar
    33    58    61    1
    34    58    57    1
    35    58    59    1
    36    80    79    1
    37    45    44    2
    38    44    43    1
    39    61    62    1
    40   123   125   ar
    41    60    59    2
    42   138   140   ar
    43    74    75    1
    44    75    76    1
    45    75    78    1
    46   141   142    1
    47    48    46    1
    48   122   124   ar
    49    76    77    2
    50   139   140   ar
    51   158   159    2
    52   158   164   am
    53    71    73   am
    54    71    72    2
    55    63    62    1
    56    43    46    1
    57    43    42    1
    58    79    81    1
    59    79    78    1
    60    62    64    1
    61   152   151    2
    62   125   126   ar
    63   143   144    2
    64   143   142    1
    65    46    47    1
    66   142   145    1
    67   164   165    1
    68   155   149    1
    69   155   154    1
    70   124   126   ar
    71    49    50    1
    72   149   150    1
    73   151   150    1
    74   154   153    1
    75   145   146    1
    76   145   147    1
    77   165   168    1
    78   165   166    1
    79   115   113    1
    80    50    51    1
    81    50    53    1
    82   146   148    1
    83   150   153    1
    84    56    54    1
    85   168   169    1
    86    51    52    2
    87   111   112    2
    88   111   110    1
    89    54    53    1
    90   166   167    2
    91    12     6    1
    92    12    11    1
    93    53    55    1
    94   109   110    1
    95   113   110    1
    96   113   114    1
    97    39    38    1
    98    39    40    2
    99     1     2    1
   100     2     5    1
   101     2     3    1
   102     6     7    1
   103    11    10    1
   104    38    41    1
   105    38    37    1
   106    31    30    2
   107    93    92    2
   108     3     4    2
   109   100   101    2
   110   100    99    1
   111    37    30   am
   112    10     7    1
   113     7     8    1
   114    30    29    1
   115   189   187    1
   116     8     9    2
   117    99    98    1
   118    99   102    1
   119    92    98   am
   120    92    91    1
   121   170   171    1
   122   187   186    1
   123   103   104    1
   124   103   102    1
   125   173   172    2
   126    94    91    1
   127    94    95    1
   128    32    29    1
   129    32    33    1
   130   174   171    1
   131   174   175    1
   132    97    95    1
   133    29    28    1
   134    91    90    1
   135   182   183    1
   136   104   105    1
   137    96    95    1
   138    26    25    1
   139    20    18    1
   140   171   172    1
   141   186   183    1
   142   186   188    1
   143    28    23   am
   144   175   176   ar
   145   175   177   ar
   146    34    33    1
   147    34    35    1
   148   183   184    1
   149   176   178   ar
   150    85    84    2
   151   185   184    2
   152    18    17    1
   153   105   106    2
   154   177   179   ar
   155    90    84   am
   156    25    27    1
   157    25    22    1
   158    23    22    1
   159    23    24    2
   160   178   180   ar
   161    84    83    1
   162   196   194    1
   163    19    17    1
   164    35    36    1
   165   179   180   ar
   166   107   106    1
   167    22    21    1
   168   106   108    1
   169    17    14    1
   170   180   181    1
   171   195   194    1
   172   194   191    1
   173    88    87    1
   174    13    14    1
   175    83    82    1
   176    83    86    1
   177    14    15    1
   178    89    87    1
   179    86    87    1
   180   190   191    1
   181    15    16    2
   182   191   192    1
   183   193   192    2
