@<TRIPOS>MOLECULE
tmp/4jvjA00.pdb
 235 222 0 0 0
SMALL
GASTEIGER

@<TRIPOS>ATOM
      1  N          2.4850   30.6160   -2.8430 N.3    53  ARG53      -0.1245
      2  CA         2.4490   29.2270   -3.2100 C.3    53  ARG53       0.1563
      3  C          1.7160   28.4720   -2.1050 C.2    53  ARG53       0.2260
      4  O          0.7650   27.7260   -2.3750 O.2    53  ARG53      -0.2867
      5  CB         3.8630   28.7090   -3.4810 C.3    53  ARG53       0.0307
      6  CG         4.5640   29.3840   -4.6830 C.3    53  ARG53       0.0489
      7  CD         6.0640   29.1380   -4.5910 C.3    53  ARG53       0.2205
      8  NE         6.9090   29.9410   -5.4720 N.pl3  53  ARG53      -0.0865
      9  CZ         7.3740   31.1690   -5.2240 C.cat  53  ARG53       0.5346
     10  NH1        7.0710   31.8310   -4.1160 N.pl3  53  ARG53       0.1354
     11  NH2        8.1560   31.7550   -6.1240 N.pl3  53  ARG53       0.1354
     12  N         10.3130   26.6850   -1.0490 N.3    89  GLN89      -0.1245
     13  CA        10.7160   27.9990   -1.4860 C.3    89  GLN89       0.1566
     14  C         11.9470   28.4120   -0.7040 C.2    89  GLN89       0.2260
     15  O         13.0290   28.5010   -1.2670 O.2    89  GLN89      -0.2867
     16  CB         9.5830   28.9960   -1.3250 C.3    89  GLN89       0.0367
     17  CG         9.9880   30.4500   -1.4730 C.3    89  GLN89       0.0905
     18  CD        10.4780   30.8090   -2.8650 C.2    89  GLN89       0.2608
     19  OE1       11.1330   30.0210   -3.5230 O.2    89  GLN89      -0.2717
     20  NE2       10.1680   32.0200   -3.3090 N.am   89  GLN89      -0.0878
     21  N         14.0500   26.9730    1.3940 N.3    91  PHE91      -0.1227
     22  CA        15.2300   26.2370    1.0270 C.3    91  PHE91       0.1736
     23  C         15.9030   26.9350   -0.1710 C.2    91  PHE91       0.2595
     24  O         17.0270   27.4210   -0.0160 O.2    91  PHE91      -0.2718
     25  CB        14.8770   24.7830    0.7150 C.3    91  PHE91       0.0547
     26  CG        15.9630   24.0280    0.0200 C.ar   91  PHE91      -0.0202
     27  CD1       17.2870   24.1920    0.3890 C.ar   91  PHE91      -0.0042
     28  CD2       15.6500   23.1150   -0.9690 C.ar   91  PHE91      -0.0042
     29  CE1       18.2850   23.4600   -0.2240 C.ar   91  PHE91      -0.0003
     30  CE2       16.6350   22.3880   -1.6080 C.ar   91  PHE91      -0.0003
     31  CZ        17.9580   22.5600   -1.2370 C.ar   91  PHE91      -0.0000
     32  N         15.1980   27.0480   -1.3180 N.am   92  PHE92      -0.1962
     33  CA        15.8030   27.5550   -2.5720 C.3    92  PHE92       0.1771
     34  C         16.4200   28.9220   -2.4870 C.2    92  PHE92       0.2619
     35  O         17.5520   29.0930   -2.9230 O.2    92  PHE92      -0.2715
     36  CB        14.8020   27.6150   -3.7360 C.3    92  PHE92       0.0574
     37  CG        14.2730   26.2720   -4.1810 C.ar   92  PHE92      -0.0200
     38  CD1       15.1240   25.1940   -4.3650 C.ar   92  PHE92      -0.0042
     39  CD2       12.9260   26.1100   -4.4320 C.ar   92  PHE92      -0.0042
     40  CE1       14.6330   23.9620   -4.7410 C.ar   92  PHE92      -0.0003
     41  CE2       12.4320   24.8780   -4.8100 C.ar   92  PHE92      -0.0003
     42  CZ        13.2860   23.8060   -4.9700 C.ar   92  PHE92      -0.0000
     43  N         15.6890   29.9060   -1.9790 N.am   93  LEU93      -0.1977
     44  CA        16.2620   31.2580   -1.7990 C.3    93  LEU93       0.1596
     45  C         17.4710   31.3540   -0.8560 C.2    93  LEU93       0.2287
     46  O         18.2970   32.2610   -0.9900 O.2    93  LEU93      -0.2864
     47  CB        15.2150   32.2410   -1.2740 C.3    93  LEU93       0.0297
     48  CG        14.6280   31.9900    0.1330 C.3    93  LEU93       0.0022
     49  CD1       15.4510   32.5510    1.3000 C.3    93  LEU93       0.0001
     50  CD2       13.2180   32.5750    0.1990 C.3    93  LEU93       0.0001
     51  N         19.9090   29.0760   -0.2610 N.3    95  ALA95      -0.1231
     52  CA        20.9920   28.6570   -1.1630 C.3    95  ALA95       0.1694
     53  C         21.1400   29.6210   -2.3380 C.2    95  ALA95       0.2592
     54  O         22.2510   29.9930   -2.6980 O.2    95  ALA95      -0.2718
     55  CB        20.7290   27.2700   -1.6910 C.3    95  ALA95       0.0304
     56  N         20.0170   30.0550   -2.9100 N.am   96  ASP96      -0.1960
     57  CA        20.0880   30.8550   -4.1000 C.3    96  ASP96       0.1840
     58  C         20.8620   32.1300   -3.9270 C.2    96  ASP96       0.2622
     59  O         21.5430   32.5760   -4.8790 O.2    96  ASP96      -0.2715
     60  CB        18.7220   31.2090   -4.6440 C.3    96  ASP96       0.1450
     61  CG        18.7810   31.5000   -6.1300 C.2    96  ASP96       0.3671
     62  OD1       18.5700   32.6690   -6.5270 O.co2  96  ASP96      -0.2456
     63  OD2       19.1140   30.5540   -6.8810 O.co2  96  ASP96      -0.2456
     64  N         20.7340   32.7130   -2.7270 N.am   97  ASP97      -0.1971
     65  CA        21.3170   34.0210   -2.4080 C.3    97  ASP97       0.1709
     66  C         22.8170   33.9340   -2.1150 C.2    97  ASP97       0.2293
     67  O         23.5370   34.9200   -2.2090 O.2    97  ASP97      -0.2864
     68  CB        20.5380   34.7060   -1.2810 C.3    97  ASP97       0.1436
     69  CG        19.1630   35.2510   -1.7480 C.2    97  ASP97       0.3671
     70  OD1       19.0270   35.6490   -2.9350 O.co2  97  ASP97      -0.2456
     71  OD2       18.2080   35.2880   -0.9410 O.co2  97  ASP97      -0.2456
     72  N         24.9090   31.4860   -3.7710 N.3    99  MET99      -0.1230
     73  CA        25.1500   31.3170   -5.2060 C.3    99  MET99       0.1702
     74  C         24.9800   32.5440   -6.0920 C.2    99  MET99       0.2592
     75  O         25.7810   32.7410   -7.0110 O.2    99  MET99      -0.2718
     76  CB        24.2100   30.2360   -5.7410 C.3    99  MET99       0.0401
     77  CG        24.5790   28.8500   -5.2680 C.3    99  MET99       0.0596
     78  SD        23.6030   27.5910   -6.0970 S.3    99  MET99      -0.1393
     79  CE        21.9310   28.0740   -5.6870 C.3    99  MET99       0.0692
     80  N         23.9390   33.3430   -5.8680 N.am  100  ASP100     -0.1974
     81  CA        23.7490   34.5530   -6.7070 C.3   100  ASP100      0.1709
     82  C         24.3540   35.8400   -6.1150 C.2   100  ASP100      0.2293
     83  O         24.2070   36.9110   -6.7080 O.2   100  ASP100     -0.2864
     84  CB        22.2650   34.7600   -7.0770 C.3   100  ASP100      0.1436
     85  CG        21.7280   33.6730   -8.0440 C.2   100  ASP100      0.3671
     86  OD1       22.5190   32.8680   -8.5860 O.co2 100  ASP100     -0.2456
     87  OD2       20.5020   33.6170   -8.2700 O.co2 100  ASP100     -0.2456
     88  N         16.7630   40.5610    0.5020 N.3   105  ARG105     -0.1245
     89  CA        15.6530   39.7180    0.0850 C.3   105  ARG105      0.1563
     90  C         14.5460   39.8220    1.1250 C.2   105  ARG105      0.2260
     91  O         14.8060   39.6830    2.3160 O.2   105  ARG105     -0.2867
     92  CB        16.1590   38.2790   -0.0590 C.3   105  ARG105      0.0307
     93  CG        15.2250   37.1590    0.3770 C.3   105  ARG105      0.0489
     94  CD        14.5110   36.5400   -0.7990 C.3   105  ARG105      0.2205
     95  NE        15.4250   36.0090   -1.7980 N.pl3 105  ARG105     -0.0865
     96  CZ        15.0490   35.6540   -3.0240 C.cat 105  ARG105      0.5346
     97  NH1       13.7770   35.7700   -3.3850 N.pl3 105  ARG105      0.1354
     98  NH2       15.9430   35.1860   -3.9010 N.pl3 105  ARG105      0.1354
     99  N         13.9040   21.6700  -10.3370 N.3   160  THR160     -0.1203
    100  CA        14.3580   23.0120   -9.9490 C.3   160  THR160      0.1994
    101  C         15.8780   23.0810  -10.0150 C.2   160  THR160      0.2617
    102  O         16.4500   24.1040  -10.3610 O.2   160  THR160     -0.2717
    103  CB        13.8430   23.3920   -8.5210 C.3   160  THR160      0.1784
    104  OG1       12.4140   23.2840   -8.4720 O.3   160  THR160     -0.2211
    105  CG2       14.2030   24.8050   -8.1520 C.3   160  THR160      0.0376
    106  N         16.5410   21.9860   -9.6870 N.am  161  GLU161     -0.1979
    107  CA        17.9850   22.0270   -9.5930 C.3   161  GLU161      0.1602
    108  C         18.5870   21.9080  -10.9690 C.2   161  GLU161      0.2287
    109  O         19.5790   22.5600  -11.2820 O.2   161  GLU161     -0.2864
    110  CB        18.4810   20.9470   -8.6490 C.3   161  GLU161      0.0415
    111  CG        18.1190   21.2480   -7.2010 C.3   161  GLU161      0.1163
    112  CD        18.1880   20.0370   -6.3030 C.2   161  GLU161      0.3649
    113  OE1       18.7450   18.9940   -6.7070 O.co2 161  GLU161     -0.2457
    114  OE2       17.6920   20.1260   -5.1670 O.co2 161  GLU161     -0.2457
    115  N         18.3440   25.2400  -12.2220 N.3   164  GLN164     -0.1245
    116  CA        19.3780   26.0220  -11.5880 C.3   164  GLN164      0.1566
    117  C         20.7350   25.7380  -12.2430 C.2   164  GLN164      0.2260
    118  O         21.4380   26.6630  -12.5910 O.2   164  GLN164     -0.2867
    119  CB        19.3720   25.7530  -10.0620 C.3   164  GLN164      0.0367
    120  CG        20.3370   26.6050   -9.2270 C.3   164  GLN164      0.0905
    121  CD        19.9400   28.0880   -9.1500 C.2   164  GLN164      0.2608
    122  OE1       18.7670   28.4210   -9.1100 O.2   164  GLN164     -0.2717
    123  NE2       20.9330   28.9760   -9.1280 N.am  164  GLN164     -0.0878
    124  N         20.6390   27.6780  -15.4300 N.3   167  ASP167     -0.1239
    125  CA        20.8850   29.0710  -15.0130 C.3   167  ASP167      0.1674
    126  C         22.4080   29.3680  -15.0570 C.2   167  ASP167      0.2266
    127  O         22.8590   30.2830  -15.7500 O.2   167  ASP167     -0.2867
    128  CB        20.3230   29.3200  -13.5910 C.3   167  ASP167      0.1410
    129  CG        19.9460   30.7850  -13.3330 C.2   167  ASP167      0.3668
    130  OD1       18.7920   31.1690  -13.6120 O.co2 167  ASP167     -0.2456
    131  OD2       20.7760   31.5550  -12.7990 O.co2 167  ASP167     -0.2456
    132  N         13.5100   25.5860  -13.6600 N.3   193  LYS193     -0.1231
    133  CA        13.9320   26.3130  -12.4900 C.3   193  LYS193      0.1693
    134  C         12.7770   26.9940  -11.7720 C.2   193  LYS193      0.2592
    135  O         12.9130   27.2870  -10.5960 O.2   193  LYS193     -0.2718
    136  CB        15.0520   27.3020  -12.8350 C.3   193  LYS193      0.0285
    137  CG        14.6070   28.6890  -13.1830 C.3   193  LYS193      0.0035
    138  CD        15.7350   29.6680  -12.9290 C.3   193  LYS193      0.0206
    139  CE        15.2000   31.0830  -12.9630 C.3   193  LYS193      0.1093
    140  NZ        16.2970   32.0800  -12.9350 N.3   193  LYS193     -0.1314
    141  N         11.6480   27.2330  -12.4450 N.am  194  THR194     -0.1953
    142  CA        10.5750   28.0460  -11.8360 C.3   194  THR194      0.1897
    143  C          9.1720   27.5170  -11.9430 C.2   194  THR194      0.2313
    144  O          8.3680   27.6210  -11.0010 O.2   194  THR194     -0.2863
    145  CB        10.4830   29.3900  -12.5180 C.3   194  THR194      0.1794
    146  OG1       11.7790   29.9830  -12.5450 O.3   194  THR194     -0.2208
    147  CG2        9.4910   30.2910  -11.7930 C.3   194  THR194      0.0378
    148  N          7.9720   24.1770   -9.7640 N.3   197  TYR197     -0.1227
    149  CA         7.7460   24.2770   -8.3370 C.3   197  TYR197      0.1736
    150  C          6.7760   25.3720   -7.9540 C.2   197  TYR197      0.2596
    151  O          5.9050   25.1130   -7.1200 O.2   197  TYR197     -0.2718
    152  CB         9.0580   24.3170   -7.5380 C.3   197  TYR197      0.0548
    153  CG         9.6170   25.6720   -7.1650 C.ar  197  TYR197     -0.0200
    154  CD1       10.2490   26.4700   -8.1120 C.ar  197  TYR197     -0.0009
    155  CD2        9.5720   26.1240   -5.8290 C.ar  197  TYR197     -0.0009
    156  CE1       10.7790   27.6900   -7.7610 C.ar  197  TYR197      0.0417
    157  CE2       10.1130   27.3450   -5.4620 C.ar  197  TYR197      0.0417
    158  CZ        10.7110   28.1240   -6.4340 C.ar  197  TYR197      0.1957
    159  OH        11.2400   29.3450   -6.0900 O.3   197  TYR197     -0.2866
    160  N          6.8660   26.5640   -8.5610 N.am  198  SER198     -0.1952
    161  CA         5.9880   27.6910   -8.1440 C.3   198  SER198      0.1924
    162  C          4.5150   27.6060   -8.5730 C.2   198  SER198      0.2314
    163  O          3.7490   28.5760   -8.3820 O.2   198  SER198     -0.2863
    164  CB         6.5660   29.0220   -8.6110 C.3   198  SER198      0.2116
    165  OG         7.9580   29.0940   -8.3290 O.3   198  SER198     -0.2180
    166  N          5.5630   34.2790  -15.1230 N.3   232  PHE232     -0.1227
    167  CA         6.0090   34.6030  -13.7740 C.3   232  PHE232      0.1736
    168  C          7.4840   34.9400  -13.6920 C.2   232  PHE232      0.2595
    169  O          7.8490   35.9760  -13.1390 O.2   232  PHE232     -0.2718
    170  CB         5.7350   33.4480  -12.8280 C.3   232  PHE232      0.0547
    171  CG         5.9870   33.7780  -11.3820 C.ar  232  PHE232     -0.0202
    172  CD1        7.2230   33.5240  -10.8010 C.ar  232  PHE232     -0.0042
    173  CD2        4.9920   34.3490  -10.6050 C.ar  232  PHE232     -0.0042
    174  CE1        7.4560   33.8250   -9.4730 C.ar  232  PHE232     -0.0003
    175  CE2        5.2190   34.6530   -9.2780 C.ar  232  PHE232     -0.0003
    176  CZ         6.4510   34.3890   -8.7080 C.ar  232  PHE232     -0.0000
    177  N          8.3480   34.0910  -14.2300 N.am  233  GLN233     -0.1979
    178  CA         9.7700   34.4600  -14.2510 C.3   233  GLN233      0.1601
    179  C         10.1340   35.6440  -15.1700 C.2   233  GLN233      0.2287
    180  O         11.0730   36.3830  -14.8490 O.2   233  GLN233     -0.2864
    181  CB        10.6510   33.2840  -14.5940 C.3   233  GLN233      0.0394
    182  CG        12.1140   33.6150  -14.4050 C.3   233  GLN233      0.0908
    183  CD        12.5800   33.3980  -12.9960 C.2   233  GLN233      0.2608
    184  OE1       12.6240   32.2660  -12.5340 O.2   233  GLN233     -0.2717
    185  NE2       12.9630   34.4700  -12.3160 N.am  233  GLN233     -0.0878
    186  N          9.6750   38.2860  -13.0970 N.3   236  ASP236     -0.1225
    187  CA        10.7390   38.3500  -12.0910 C.3   236  ASP236      0.1805
    188  C         11.9650   39.0880  -12.5990 C.2   236  ASP236      0.2597
    189  O         12.4870   39.9910  -11.9170 O.2   236  ASP236     -0.2718
    190  CB        11.1520   36.9470  -11.6250 C.3   236  ASP236      0.1424
    191  CG        12.0320   36.9800  -10.3920 C.2   236  ASP236      0.3668
    192  OD1       11.5690   37.4830   -9.3490 O.co2 236  ASP236     -0.2456
    193  OD2       13.1840   36.5120  -10.4710 O.co2 236  ASP236     -0.2456
    194  N         12.4050   38.6800  -13.7960 N.am  237  ASP237     -0.1974
    195  CA        13.5550   39.2670  -14.5340 C.3   237  ASP237      0.1709
    196  C         13.3040   40.6960  -15.0010 C.2   237  ASP237      0.2293
    197  O         14.2250   41.5070  -15.0210 O.2   237  ASP237     -0.2864
    198  CB        13.8900   38.3990  -15.7450 C.3   237  ASP237      0.1436
    199  CG        14.1490   36.9650  -15.3660 C.2   237  ASP237      0.3671
    200  OD1       14.5220   36.7340  -14.1920 O.co2 237  ASP237     -0.2456
    201  OD2       13.9730   36.0820  -16.2300 O.co2 237  ASP237     -0.2456
    202  N         13.4330   42.5690  -11.6090 N.3   240  ASP240     -0.1239
    203  CA        14.8520   42.6080  -11.2170 C.3   240  ASP240      0.1674
    204  C         15.4880   43.9850  -11.4790 C.2   240  ASP240      0.2266
    205  O         16.1840   44.5360  -10.6210 O.2   240  ASP240     -0.2867
    206  CB        15.6310   41.5370  -11.9650 C.3   240  ASP240      0.1410
    207  CG        16.9970   41.2470  -11.3440 C.2   240  ASP240      0.3668
    208  OD1       18.0200   41.8390  -11.8080 O.co2 240  ASP240     -0.2456
    209  OD2       17.0360   40.3990  -10.4130 O.co2 240  ASP240     -0.2456
    210  N         13.9210   43.1420   -2.6300 N.3   250  LYS250     -0.1245
    211  CA        15.2510   42.6460   -3.0280 C.3   250  LYS250      0.1561
    212  C         15.8350   43.4870   -4.1540 C.2   250  LYS250      0.2260
    213  O         15.1210   44.2380   -4.8240 O.2   250  LYS250     -0.2867
    214  CB        15.2290   41.1420   -3.4170 C.3   250  LYS250      0.0271
    215  CG        14.5240   40.8000   -4.7100 C.3   250  LYS250      0.0035
    216  CD        14.4210   39.2930   -4.8330 C.3   250  LYS250      0.0206
    217  CE        14.4390   38.8240   -6.2680 C.3   250  LYS250      0.1093
    218  NZ        14.5200   37.3210   -6.3190 N.3   250  LYS250     -0.1314
    219  N         21.2320   40.5360  -11.9510 N.3   254  ASP254     -0.1239
    220  CA        21.1910   39.7800  -13.2280 C.3   254  ASP254      0.1674
    221  C         22.2700   40.2490  -14.2170 C.2   254  ASP254      0.2266
    222  O         22.8860   39.4520  -14.9270 O.2   254  ASP254     -0.2867
    223  CB        19.8110   39.8920  -13.9030 C.3   254  ASP254      0.1410
    224  CG        18.7500   38.9860  -13.2770 C.2   254  ASP254      0.3668
    225  OD1       19.1090   38.0730  -12.5120 O.co2 254  ASP254     -0.2456
    226  OD2       17.5430   39.1750  -13.5770 O.co2 254  ASP254     -0.2456
    227  N         23.6670   37.0380  -16.2580 N.3   259  LYS259     -0.1245
    228  CA        22.5170   36.1100  -16.3170 C.3   259  LYS259      0.1561
    229  C         21.7470   36.1860  -17.6100 C.2   259  LYS259      0.2260
    230  O         21.6010   37.2660  -18.2010 O.2   259  LYS259     -0.2867
    231  CB        21.5080   36.3540  -15.1720 C.3   259  LYS259      0.0271
    232  CG        21.9330   35.8590  -13.8000 C.3   259  LYS259      0.0035
    233  CD        22.1940   34.3680  -13.7840 C.3   259  LYS259      0.0206
    234  CE        22.5080   33.9100  -12.3820 C.3   259  LYS259      0.1093
    235  NZ        21.2870   33.8980  -11.5400 N.3   259  LYS259     -0.1314
@<TRIPOS>BOND
     1   230   229    2
     2   229   228    1
     3   228   227    1
     4   228   231    1
     5   201   199   ar
     6   127   126    2
     7   198   199    1
     8   198   195    1
     9   124   125    1
    10   199   200   ar
    11   231   232    1
    12   179   180    2
    13   179   178    1
    14   166   167    1
    15   126   125    1
    16   197   196    2
    17   125   128    1
    18   196   195    1
    19   222   221    2
    20   181   182    1
    21   181   178    1
    22   195   194    1
    23   182   183    1
    24   178   177    1
    25   177   168   am
    26   221   220    1
    27   223   224    1
    28   223   220    1
    29   232   233    1
    30   194   188   am
    31   233   234    1
    32   167   168    1
    33   167   170    1
    34   168   169    2
    35   132   133    1
    36   130   129   ar
    37   128   129    1
    38   226   224   ar
    39   129   131   ar
    40   224   225   ar
    41   220   219    1
    42   137   138    1
    43   137   136    1
    44   186   187    1
    45   183   184    2
    46   183   185   am
    47   139   140    1
    48   139   138    1
    49   136   133    1
    50   170   171    1
    51   188   187    1
    52   188   189    2
    53   118   117    2
    54   146   145    1
    55   145   142    1
    56   145   147    1
    57   133   134    1
    58   141   142    1
    59   141   134   am
    60   234   235    1
    61   117   116    1
    62   115   116    1
    63   187   190    1
    64   206   207    1
    65   206   203    1
    66   143   142    1
    67   143   144    2
    68   208   207   ar
    69   134   135    2
    70   190   191    1
    71   202   203    1
    72   116   119    1
    73   204   203    1
    74   204   205    2
    75   171   172   ar
    76   171   173   ar
    77   207   209   ar
    78   109   108    2
    79   108   107    1
    80   172   174   ar
    81   173   175   ar
    82   193   191   ar
    83   191   192   ar
    84   102   101    2
    85    99   100    1
    86   119   120    1
    87   101   100    1
    88   101   106   am
    89   100   103    1
    90   148   149    1
    91   106   107    1
    92   107   110    1
    93   174   176   ar
    94   175   176   ar
    95   120   121    1
    96   121   123   am
    97   121   122    2
    98   110   111    1
    99   164   165    1
   100   164   161    1
   101    86    85   ar
   102   162   163    2
   103   162   161    1
   104   160   161    1
   105   160   150   am
   106   103   104    1
   107   103   105    1
   108   149   150    1
   109   149   152    1
   110    87    85   ar
   111   154   156   ar
   112   154   153   ar
   113    85    84    1
   114   150   151    2
   115   156   158   ar
   116   152   153    1
   117   111   112    1
   118   153   155   ar
   119    84    81    1
   120    75    74    2
   121    63    61   ar
   122    83    82    2
   123    81    82    1
   124    81    80    1
   125   113   112   ar
   126    62    61   ar
   127   158   159    1
   128   158   157   ar
   129   218   217    1
   130   112   114   ar
   131   217   216    1
   132    61    60    1
   133    11     9    1
   134    78    79    1
   135    78    77    1
   136    74    80   am
   137    74    73    1
   138   155   157   ar
   139    76    77    1
   140    76    73    1
   141     8     9    2
   142     8     7    1
   143     9    10    1
   144    73    72    1
   145    42    41   ar
   146    42    40   ar
   147    59    58    2
   148   216   215    1
   149   213   212    2
   150    41    39   ar
   151    40    38   ar
   152   215   214    1
   153     6     7    1
   154     6     5    1
   155    60    57    1
   156    39    37   ar
   157    38    37   ar
   158    37    36    1
   159   212   211    1
   160    57    58    1
   161    57    56    1
   162    58    64   am
   163    98    96    1
   164    36    33    1
   165    19    18    2
   166     5     2    1
   167   214   211    1
   168    97    96    1
   169    20    18   am
   170     2     1    1
   171     2     3    1
   172   211   210    1
   173    96    95    2
   174    70    69   ar
   175    35    34    2
   176    56    53   am
   177    18    17    1
   178    64    65    1
   179    54    53    2
   180    33    34    1
   181    33    32    1
   182    34    43   am
   183    65    66    1
   184    65    68    1
   185     4     3    2
   186    53    52    1
   187    67    66    2
   188    43    44    1
   189    44    47    1
   190    44    45    1
   191    95    94    1
   192    69    68    1
   193    69    71   ar
   194    55    52    1
   195    30    31   ar
   196    30    28   ar
   197    13    16    1
   198    13    12    1
   199    13    14    1
   200    17    16    1
   201    32    23   am
   202    47    48    1
   203    15    14    2
   204    31    29   ar
   205    52    51    1
   206    46    45    2
   207    28    26   ar
   208    94    93    1
   209    29    27   ar
   210    23    24    2
   211    23    22    1
   212    92    89    1
   213    92    93    1
   214    26    27   ar
   215    26    25    1
   216    89    88    1
   217    89    90    1
   218    48    50    1
   219    48    49    1
   220    25    22    1
   221    22    21    1
   222    90    91    2
