@<TRIPOS>MOLECULE
tmp/4jvlA01.pdb
 223 217 0 0 0
SMALL
GASTEIGER

@<TRIPOS>ATOM
      1  N        -13.6000   -6.1490   29.2580 N.3    19  TYR19      -0.1241
      2  CA       -13.6360   -7.2120   28.2560 C.3    19  TYR19       0.1605
      3  C        -15.0740   -7.4150   27.7960 C.2    19  TYR19       0.2264
      4  O        -15.9760   -7.6210   28.6170 O.2    19  TYR19      -0.2867
      5  CB       -13.0930   -8.5170   28.8390 C.3    19  TYR19       0.0534
      6  CG       -11.6350   -8.4180   29.2120 C.ar   19  TYR19      -0.0201
      7  CD1      -10.6440   -8.5690   28.2570 C.ar   19  TYR19      -0.0009
      8  CD2      -11.2550   -8.1420   30.5180 C.ar   19  TYR19      -0.0009
      9  CE1       -9.3050   -8.4480   28.5960 C.ar   19  TYR19       0.0417
     10  CE2       -9.9300   -8.0230   30.8660 C.ar   19  TYR19       0.0417
     11  CZ        -8.9580   -8.1770   29.9030 C.ar   19  TYR19       0.1957
     12  OH        -7.6290   -8.0790   30.2530 O.3    19  TYR19      -0.2866
     13  N        -16.7660   -9.7510   26.4460 N.3    21  ASP21      -0.1225
     14  CA       -17.3910  -11.0010   26.8790 C.3    21  ASP21       0.1805
     15  C        -18.0250  -10.8950   28.2680 C.2    21  ASP21       0.2597
     16  O        -19.0300  -11.5550   28.5550 O.2    21  ASP21      -0.2718
     17  CB       -16.3690  -12.1450   26.8900 C.3    21  ASP21       0.1424
     18  CG       -16.0000  -12.6250   25.4890 C.2    21  ASP21       0.3668
     19  OD1      -16.8260  -12.4740   24.5680 O.co2  21  ASP21      -0.2456
     20  OD2      -14.8810  -13.1590   25.3180 O.co2  21  ASP21      -0.2456
     21  N        -17.4320  -10.0720   29.1280 N.am   22  PHE22      -0.1976
     22  CA       -17.9100   -9.9110   30.5000 C.3    22  PHE22       0.1639
     23  C        -19.1530   -9.0240   30.5020 C.2    22  PHE22       0.2290
     24  O        -20.1350   -9.2940   31.2100 O.2    22  PHE22      -0.2864
     25  CB       -16.8460   -9.2340   31.3860 C.3    22  PHE22       0.0560
     26  CG       -15.5630  -10.0300   31.5800 C.ar   22  PHE22      -0.0200
     27  CD1      -15.3140  -11.2090   30.8900 C.ar   22  PHE22      -0.0042
     28  CD2      -14.6070   -9.5780   32.4860 C.ar   22  PHE22      -0.0042
     29  CE1      -14.1300  -11.9100   31.0840 C.ar   22  PHE22      -0.0003
     30  CE2      -13.4280  -10.2690   32.6930 C.ar   22  PHE22      -0.0003
     31  CZ       -13.1810  -11.4430   31.9930 C.ar   22  PHE22      -0.0000
     32  N         -5.5580   -5.6410   37.6620 N.3    45  PRO45      -0.2102
     33  CA        -4.8950   -6.7660   36.9930 C.3    45  PRO45       0.1504
     34  C         -3.3600   -6.7430   37.0590 C.2    45  PRO45       0.2575
     35  O         -2.7440   -5.6690   37.0230 O.2    45  PRO45      -0.2718
     36  CB        -5.3480   -6.6150   35.5410 C.3    45  PRO45       0.0282
     37  CG        -6.7210   -6.0170   35.6530 C.3    45  PRO45       0.0208
     38  CD        -6.5890   -5.0220   36.8000 C.3    45  PRO45       0.0893
     39  N         -2.7760   -7.9360   37.1790 N.am   46  LYS46      -0.1980
     40  CA        -1.3260   -8.1670   37.1420 C.3    46  LYS46       0.1596
     41  C         -0.5970   -7.6200   38.3820 C.2    46  LYS46       0.2287
     42  O          0.5790   -7.2720   38.3180 O.2    46  LYS46      -0.2864
     43  CB        -0.7040   -7.6440   35.8340 C.3    46  LYS46       0.0298
     44  CG        -1.5230   -7.9580   34.5800 C.3    46  LYS46       0.0038
     45  CD        -2.0370   -9.4250   34.5530 C.3    46  LYS46       0.0206
     46  CE        -0.8730  -10.4130   34.3920 C.3    46  LYS46       0.1093
     47  NZ        -1.3190  -11.8170   34.6840 N.3    46  LYS46      -0.1314
     48  N         -2.5410  -11.0930   42.0750 N.3    49  THR49      -0.1218
     49  CA        -3.7980  -11.7410   42.4740 C.3    49  THR49       0.1862
     50  C         -3.6270  -13.2260   42.7820 C.2    49  THR49       0.2287
     51  O         -4.0850  -13.7270   43.8110 O.2    49  THR49      -0.2866
     52  CB        -4.8580  -11.6440   41.3470 C.3    49  THR49       0.1770
     53  OG1       -4.7950  -10.3490   40.7390 O.3    49  THR49      -0.2211
     54  CG2       -6.2420  -11.8630   41.9030 C.3    49  THR49       0.0375
     55  N        -13.5730  -16.3190   39.5150 N.3    79  PHE79      -0.1241
     56  CA       -13.3300  -14.9700   39.0290 C.3    79  PHE79       0.1605
     57  C        -14.7100  -14.3350   38.7900 C.2    79  PHE79       0.2264
     58  O        -15.3600  -14.6060   37.7860 O.2    79  PHE79      -0.2867
     59  CB       -12.4670  -15.1040   37.7550 C.3    79  PHE79       0.0534
     60  CG       -12.0140  -13.7980   37.1350 C.ar   79  PHE79      -0.0203
     61  CD1      -12.3740  -12.5580   37.6680 C.ar   79  PHE79      -0.0042
     62  CD2      -11.2290  -13.8260   35.9930 C.ar   79  PHE79      -0.0042
     63  CE1      -11.9630  -11.3770   37.0660 C.ar   79  PHE79      -0.0003
     64  CE2      -10.8100  -12.6520   35.3830 C.ar   79  PHE79      -0.0003
     65  CZ       -11.1780  -11.4180   35.9210 C.ar   79  PHE79      -0.0000
     66  N        -16.0220  -12.6360   35.4710 N.3    82  CYS82      -0.1221
     67  CA       -15.5440  -13.2890   34.2490 C.3    82  CYS82       0.1808
     68  C        -16.5990  -14.1940   33.6120 C.2    82  CYS82       0.2601
     69  O        -17.3380  -14.8920   34.3090 O.2    82  CYS82      -0.2717
     70  CB       -14.2990  -14.1120   34.5530 C.3    82  CYS82       0.0970
     71  SG       -13.6190  -15.0480   33.1570 S.3    82  CYS82      -0.0800
     72  N        -16.6340  -14.2060   32.2830 N.am   83  ARG83      -0.1965
     73  CA       -17.5790  -15.0260   31.5330 C.3    83  ARG83       0.1729
     74  C        -16.9840  -15.4870   30.1910 C.2    83  ARG83       0.2616
     75  O        -16.7640  -14.6670   29.3010 O.2    83  ARG83      -0.2715
     76  CB       -18.8560  -14.2180   31.2940 C.3    83  ARG83       0.0348
     77  CG       -19.9820  -14.9730   30.6150 C.3    83  ARG83       0.0492
     78  CD       -20.9020  -15.6510   31.6160 C.3    83  ARG83       0.2205
     79  NE       -22.0820  -16.1990   30.9530 N.pl3  83  ARG83      -0.0865
     80  CZ       -22.0780  -17.3210   30.2350 C.cat  83  ARG83       0.5346
     81  NH1      -20.9560  -18.0140   30.0920 N.pl3  83  ARG83       0.1354
     82  NH2      -23.1940  -17.7500   29.6600 N.pl3  83  ARG83       0.1354
     83  N        -16.6930  -16.7880   30.0650 N.am   84  LYS84      -0.1963
     84  CA       -16.2040  -17.3790   28.8010 C.3    84  LYS84       0.1728
     85  C        -16.8660  -18.7500   28.5330 C.2    84  LYS84       0.2616
     86  O        -16.5350  -19.7550   29.1910 O.2    84  LYS84      -0.2715
     87  CB       -14.6660  -17.4790   28.7280 C.3    84  LYS84       0.0311
     88  CG       -13.9870  -18.3000   29.8130 C.3    84  LYS84       0.0038
     89  CD       -12.5390  -18.4700   29.3720 C.3    84  LYS84       0.0206
     90  CE       -11.6690  -19.2060   30.4110 C.3    84  LYS84       0.1093
     91  NZ       -11.3660  -18.4140   31.6060 N.3    84  LYS84      -0.1314
     92  N        -17.8260  -18.7500   27.6010 N.am   85  GLU85      -0.1977
     93  CA       -18.4930  -19.9660   27.0890 C.3    85  GLU85       0.1602
     94  C        -18.7000  -21.0830   28.1090 C.2    85  GLU85       0.2287
     95  O        -19.6940  -21.1040   28.8410 O.2    85  GLU85      -0.2864
     96  CB       -17.7500  -20.5310   25.8720 C.3    85  GLU85       0.0415
     97  CG       -17.5020  -19.6320   24.6900 C.3    85  GLU85       0.1163
     98  CD       -16.2940  -18.7250   24.8910 C.2    85  GLU85       0.3649
     99  OE1      -15.2360  -19.2240   25.3310 O.co2  85  GLU85      -0.2457
    100  OE2      -16.4510  -17.5050   24.6420 O.co2  85  GLU85      -0.2457
    101  N        -15.2960  -20.5340   31.9410 N.3    88  MET88      -0.1245
    102  CA       -15.5110  -19.6820   33.1040 C.3    88  MET88       0.1570
    103  C        -16.8590  -19.0040   33.1160 C.2    88  MET88       0.2261
    104  O        -17.3560  -18.4950   32.0990 O.2    88  MET88      -0.2867
    105  CB       -14.3960  -18.6420   33.2550 C.3    88  MET88       0.0387
    106  CG       -14.3010  -18.0530   34.6330 C.3    88  MET88       0.0595
    107  SD       -12.8890  -18.7280   35.4930 S.3    88  MET88      -0.1393
    108  CE       -11.9150  -17.3330   35.6160 C.3    88  MET88       0.0692
    109  N        -12.6540  -13.7880   43.6520 N.3   104  LYS104     -0.1245
    110  CA       -11.6590  -12.9620   42.9770 C.3   104  LYS104      0.1561
    111  C        -12.3270  -11.9310   42.0680 C.2   104  LYS104      0.2260
    112  O        -13.2490  -12.2540   41.3280 O.2   104  LYS104     -0.2867
    113  CB       -10.6900  -13.8330   42.1640 C.3   104  LYS104      0.0271
    114  CG        -9.8400  -13.0320   41.1790 C.3   104  LYS104      0.0035
    115  CD        -9.1170  -13.9230   40.1690 C.3   104  LYS104      0.0206
    116  CE        -8.5970  -13.0900   38.9890 C.3   104  LYS104      0.1093
    117  NZ        -7.7690  -13.9320   38.0850 N.3   104  LYS104     -0.1314
    118  N        -11.3990   -7.9940   39.7600 N.3   106  HIS106     -0.1241
    119  CA       -10.5250   -6.8640   39.4750 C.3   106  HIS106      0.1621
    120  C        -11.2560   -5.5340   39.5220 C.2   106  HIS106      0.2264
    121  O        -10.7190   -4.5150   39.1000 O.2   106  HIS106     -0.2867
    122  CB        -9.8270   -6.9970   38.1170 C.3   106  HIS106      0.0745
    123  CG        -8.8890   -8.1590   38.0240 C.ar  106  HIS106      0.0817
    124  ND1       -7.8690   -8.3620   38.9220 N.ar  106  HIS106     -0.2268
    125  CD2       -8.8180   -9.1740   37.1280 C.ar  106  HIS106      0.1154
    126  CE1       -7.2010   -9.4550   38.5830 C.ar  106  HIS106      0.1986
    127  NE2       -7.7590   -9.9670   37.5020 N.ar  106  HIS106     -0.2212
    128  N          0.7110   -9.7660   29.1510 N.3   140  PHE140     -0.1241
    129  CA        -0.6150  -10.3530   29.2650 C.3   140  PHE140      0.1605
    130  C         -1.4200  -10.0870   27.9820 C.2   140  PHE140      0.2264
    131  O         -2.0250  -10.9990   27.4270 O.2   140  PHE140     -0.2867
    132  CB        -1.3240   -9.7630   30.4920 C.3   140  PHE140      0.0534
    133  CG        -2.4770  -10.5970   31.0010 C.ar  140  PHE140     -0.0203
    134  CD1       -2.2500  -11.8290   31.5940 C.ar  140  PHE140     -0.0042
    135  CD2       -3.7820  -10.1310   30.9110 C.ar  140  PHE140     -0.0042
    136  CE1       -3.3210  -12.5990   32.0880 C.ar  140  PHE140     -0.0003
    137  CE2       -4.8590  -10.8880   31.4040 C.ar  140  PHE140     -0.0003
    138  CZ        -4.6210  -12.1230   31.9940 C.ar  140  PHE140     -0.0000
    139  N         -2.6180  -13.4830   26.0240 N.3   144  VAL144     -0.1231
    140  CA        -3.9950  -13.8650   26.3390 C.3   144  VAL144      0.1692
    141  C         -4.9950  -13.4310   25.2690 C.2   144  VAL144      0.2592
    142  O         -4.9490  -12.2990   24.7830 O.2   144  VAL144     -0.2718
    143  CB        -4.4110  -13.2610   27.6900 C.3   144  VAL144      0.0266
    144  CG1       -5.8150  -13.7080   28.0870 C.3   144  VAL144      0.0020
    145  CG2       -3.3890  -13.6500   28.7570 C.3   144  VAL144      0.0020
    146  N         -5.9190  -14.3230   24.9280 N.am  145  ALA145     -0.1966
    147  CA        -6.9930  -14.0110   23.9890 C.3   145  ALA145      0.1728
    148  C         -7.8820  -12.8990   24.5340 C.2   145  ALA145      0.2617
    149  O         -7.9580  -12.6970   25.7460 O.2   145  ALA145     -0.2715
    150  CB        -7.8300  -15.2620   23.7070 C.3   145  ALA145      0.0334
    151  N         -8.5420  -12.1740   23.6370 N.am  146  GLY146     -0.1940
    152  CA        -9.4680  -11.1240   24.0370 C.3   146  GLY146      0.2014
    153  C         -8.8190   -9.7610   24.1600 C.2   146  GLY146      0.2638
    154  O         -9.4290   -8.8110   24.6630 O.2   146  GLY146     -0.2714
    155  N         -7.5720   -9.6590   23.7130 N.am  147  HIS147     -0.1973
    156  CA        -6.8620   -8.3890   23.7370 C.3   147  HIS147      0.1656
    157  C         -6.5280   -7.9590   22.3290 C.2   147  HIS147      0.2291
    158  O         -6.2520   -8.7920   21.4600 O.2   147  HIS147     -0.2864
    159  CB        -5.5490   -8.4870   24.5340 C.3   147  HIS147      0.0771
    160  CG        -5.7400   -8.7960   25.9860 C.ar  147  HIS147      0.0820
    161  ND1       -5.8010  -10.0850   26.4680 N.ar  147  HIS147     -0.2267
    162  CD2       -5.8950   -7.9840   27.0580 C.ar  147  HIS147      0.1154
    163  CE1       -5.9840  -10.0540   27.7790 C.ar  147  HIS147      0.1986
    164  NE2       -6.0460   -8.7910   28.1590 N.ar  147  HIS147     -0.2212
    165  N        -10.4790   -2.5620   32.9610 N.3   167  TYR167     -0.1241
    166  CA       -10.5610   -2.1680   34.3670 C.3   167  TYR167      0.1605
    167  C        -10.1990   -0.7080   34.6100 C.2   167  TYR167      0.2264
    168  O        -10.2440   -0.2250   35.7360 O.2   167  TYR167     -0.2867
    169  CB        -9.8070   -3.1380   35.2780 C.3   167  TYR167      0.0534
    170  CG       -10.4660   -4.5000   35.3040 C.ar  167  TYR167     -0.0201
    171  CD1      -11.6050   -4.7240   36.0680 C.ar  167  TYR167     -0.0009
    172  CD2       -9.9710   -5.5520   34.5390 C.ar  167  TYR167     -0.0009
    173  CE1      -12.2210   -5.9650   36.0850 C.ar  167  TYR167      0.0417
    174  CE2      -10.5750   -6.8020   34.5570 C.ar  167  TYR167      0.0417
    175  CZ       -11.7030   -7.0020   35.3320 C.ar  167  TYR167      0.1957
    176  OH       -12.3160   -8.2450   35.3560 O.3   167  TYR167     -0.2866
    177  N         -1.9190  -21.6510   35.3320 N.3   238  TYR238     -0.1241
    178  CA        -2.8370  -21.4680   34.2050 C.3   238  TYR238      0.1605
    179  C         -2.5080  -22.3140   32.9820 C.2   238  TYR238      0.2264
    180  O         -3.1330  -22.1450   31.9370 O.2   238  TYR238     -0.2867
    181  CB        -2.9650  -19.9820   33.8170 C.3   238  TYR238      0.0534
    182  CG        -3.8490  -19.2100   34.7680 C.ar  238  TYR238     -0.0201
    183  CD1       -5.1950  -19.0420   34.4970 C.ar  238  TYR238     -0.0009
    184  CD2       -3.3470  -18.6970   35.9600 C.ar  238  TYR238     -0.0009
    185  CE1       -6.0260  -18.3550   35.3730 C.ar  238  TYR238      0.0417
    186  CE2       -4.1770  -18.0050   36.8470 C.ar  238  TYR238      0.0417
    187  CZ        -5.5110  -17.8380   36.5380 C.ar  238  TYR238      0.1957
    188  OH        -6.3520  -17.1640   37.4050 O.3   238  TYR238     -0.2866
    189  N         -5.0020  -24.2330   30.7680 N.3   241  LEU241     -0.1245
    190  CA        -5.7170  -23.5090   29.7240 C.3   241  LEU241      0.1561
    191  C         -5.0640  -23.7520   28.3640 C.2   241  LEU241      0.2260
    192  O         -3.8400  -23.7810   28.2500 O.2   241  LEU241     -0.2867
    193  CB        -5.7840  -22.0100   30.0350 C.3   241  LEU241      0.0270
    194  CG        -6.7070  -21.6190   31.1940 C.3   241  LEU241      0.0019
    195  CD1       -6.7330  -20.0990   31.3860 C.3   241  LEU241      0.0001
    196  CD2       -8.1120  -22.1460   30.9550 C.3   241  LEU241      0.0001
    197  N         -6.3190  -19.6470   24.3430 N.3   245  ILE245     -0.1231
    198  CA        -6.7840  -18.7500   25.3960 C.3   245  ILE245      0.1692
    199  C         -5.6120  -18.0430   26.0810 C.2   245  ILE245      0.2591
    200  O         -5.6000  -16.8160   26.1940 O.2   245  ILE245     -0.2718
    201  CB        -7.6380  -19.4930   26.4330 C.3   245  ILE245      0.0266
    202  CG1       -8.8120  -20.1830   25.7310 C.3   245  ILE245      0.0019
    203  CG2       -8.1280  -18.5270   27.5260 C.3   245  ILE245      0.0020
    204  CD1       -9.7500  -20.9120   26.6620 C.3   245  ILE245      0.0001
    205  N         -4.6480  -18.8210   26.5620 N.am  246  MET246     -0.1979
    206  CA        -3.3820  -18.2670   27.0310 C.3   246  MET246      0.1605
    207  C         -2.2350  -18.9760   26.3190 C.2   246  MET246      0.2287
    208  O         -1.9860  -20.1570   26.5600 O.2   246  MET246     -0.2864
    209  CB        -3.2330  -18.4160   28.5450 C.3   246  MET246      0.0413
    210  CG        -4.2180  -17.5780   29.3600 C.3   246  MET246      0.0598
    211  SD        -3.7510  -17.4840   31.1060 S.3   246  MET246     -0.1393
    212  CE        -5.1320  -16.5350   31.7470 C.3   246  MET246      0.0692
    213  N          2.3600  -17.1660   32.2720 N.3   253  PHE253     -0.1241
    214  CA         1.5980  -16.4120   33.2670 C.3   253  PHE253      0.1605
    215  C          2.5040  -16.0620   34.4500 C.2   253  PHE253      0.2264
    216  O          2.5770  -14.9130   34.8760 O.2   253  PHE253     -0.2867
    217  CB         0.3750  -17.2170   33.7290 C.3   253  PHE253      0.0534
    218  CG        -0.5900  -16.4270   34.5860 C.ar  253  PHE253     -0.0203
    219  CD1       -1.7560  -15.9150   34.0440 C.ar  253  PHE253     -0.0042
    220  CD2       -0.3210  -16.1960   35.9250 C.ar  253  PHE253     -0.0042
    221  CE1       -2.6470  -15.1920   34.8240 C.ar  253  PHE253     -0.0003
    222  CE2       -1.1980  -15.4630   36.7110 C.ar  253  PHE253     -0.0003
    223  CZ        -2.3690  -14.9640   36.1600 C.ar  253  PHE253     -0.0000
@<TRIPOS>BOND
     1   158   157    2
     2   157   156    1
     3   151   152    1
     4   151   148   am
     5   150   147    1
     6   155   156    1
     7   155   153   am
     8   156   159    1
     9   147   148    1
    10   147   146    1
    11   152   153    1
    12   153   154    2
    13   197   198    1
    14   148   149    2
    15   159   160    1
    16    19    18   ar
    17   100    98   ar
    18    97    98    1
    19    97    96    1
    20   142   141    2
    21    98    99   ar
    22   146   141   am
    23   141   140    1
    24    20    18   ar
    25   198   199    1
    26   198   201    1
    27    18    17    1
    28   202   201    1
    29   202   204    1
    30    96    93    1
    31   160   161   ar
    32   160   162   ar
    33   139   140    1
    34   199   200    2
    35   199   205   am
    36   207   208    2
    37   207   206    1
    38   140   143    1
    39   201   203    1
    40    13    14    1
    41   161   163   ar
    42   205   206    1
    43    14    17    1
    44    14    15    1
    45   206   209    1
    46   162   164   ar
    47    93    92    1
    48    93    94    1
    49   131   130    2
    50    92    85   am
    51   143   144    1
    52   143   145    1
    53   163   164   ar
    54     3     2    1
    55     3     4    2
    56   130   129    1
    57    94    95    2
    58   192   191    2
    59     2     5    1
    60     2     1    1
    61     7     9   ar
    62     7     6   ar
    63    15    16    2
    64    15    21   am
    65   191   190    1
    66    85    84    1
    67    85    86    2
    68   209   210    1
    69     9    11   ar
    70    87    84    1
    71    87    88    1
    72    84    83    1
    73     5     6    1
    74    21    22    1
    75   128   129    1
    76     6     8   ar
    77   129   132    1
    78    75    74    2
    79   210   211    1
    80    89    88    1
    81    89    90    1
    82    82    80    1
    83   190   193    1
    84   190   189    1
    85    11    12    1
    86    11    10   ar
    87   193   194    1
    88    83    74   am
    89    81    80    1
    90    74    73    1
    91    80    79    2
    92    90    91    1
    93   132   133    1
    94    22    23    1
    95    22    25    1
    96    23    24    2
    97     8    10   ar
    98    77    76    1
    99    77    78    1
   100    27    29   ar
   101    27    26   ar
   102   135   133   ar
   103   135   137   ar
   104    79    78    1
   105   196   194    1
   106   133   134   ar
   107    29    31   ar
   108   211   212    1
   109   194   195    1
   110    76    73    1
   111    25    26    1
   112   137   138   ar
   113    73    72    1
   114    26    28   ar
   115   134   136   ar
   116   180   179    2
   117   101   102    1
   118    31    30   ar
   119   138   136   ar
   120   104   103    2
   121   213   214    1
   122    72    68   am
   123    28    30   ar
   124   165   166    1
   125   179   178    1
   126   102   103    1
   127   102   105    1
   128    71    70    1
   129   105   106    1
   130   214   217    1
   131   214   215    1
   132    68    67    1
   133    68    69    2
   134   217   218    1
   135   181   178    1
   136   181   182    1
   137   219   218   ar
   138   219   221   ar
   139   178   177    1
   140    67    70    1
   141    67    66    1
   142   166   167    1
   143   166   169    1
   144    46    45    1
   145    46    47    1
   146   215   216    2
   147   183   182   ar
   148   183   185   ar
   149   172   174   ar
   150   172   170   ar
   151    45    44    1
   152   174   175   ar
   153    44    43    1
   154   218   220   ar
   155   167   168    2
   156   106   107    1
   157   182   184   ar
   158   221   223   ar
   159   169   170    1
   160   170   171   ar
   161   175   176    1
   162   175   173   ar
   163   185   187   ar
   164    64    65   ar
   165    64    62   ar
   166   107   108    1
   167    36    37    1
   168    36    33    1
   169    37    38    1
   170    43    40    1
   171    65    63   ar
   172   220   222   ar
   173   184   186   ar
   174    62    60   ar
   175   171   173   ar
   176   223   222   ar
   177   187   186   ar
   178   187   188    1
   179    38    32    1
   180    33    34    1
   181    33    32    1
   182    35    34    2
   183    34    39   am
   184    63    61   ar
   185   125   127   ar
   186   125   123   ar
   187    60    61   ar
   188    60    59    1
   189    40    39    1
   190    40    41    1
   191   127   126   ar
   192    59    56    1
   193    58    57    2
   194   123   122    1
   195   123   124   ar
   196   117   116    1
   197   122   119    1
   198    42    41    2
   199   126   124   ar
   200    57    56    1
   201   116   115    1
   202    56    55    1
   203   121   120    2
   204   119   120    1
   205   119   118    1
   206   115   114    1
   207    53    52    1
   208   114   113    1
   209   112   111    2
   210    52    54    1
   211    52    49    1
   212   111   110    1
   213    48    49    1
   214   113   110    1
   215    49    50    1
   216    50    51    2
   217   110   109    1
