@<TRIPOS>MOLECULE
tmp/4jvlA00.pdb
 208 201 0 0 0
SMALL
GASTEIGER

@<TRIPOS>ATOM
      1  N         -2.7760   -7.9360   37.1790 N.3    46  LYS46      -0.1231
      2  CA        -1.3260   -8.1670   37.1420 C.3    46  LYS46       0.1693
      3  C         -0.5970   -7.6200   38.3820 C.2    46  LYS46       0.2593
      4  O          0.5790   -7.2720   38.3180 O.2    46  LYS46      -0.2718
      5  CB        -0.7040   -7.6440   35.8340 C.3    46  LYS46       0.0285
      6  CG        -1.5230   -7.9580   34.5800 C.3    46  LYS46       0.0035
      7  CD        -2.0370   -9.4250   34.5530 C.3    46  LYS46       0.0206
      8  CE        -0.8730  -10.4130   34.3920 C.3    46  LYS46       0.1093
      9  NZ        -1.3190  -11.8170   34.6840 N.3    46  LYS46      -0.1314
     10  N         -1.3040   -7.5670   39.5100 N.am   47  SER47      -0.1938
     11  CA        -0.7390   -7.0270   40.7440 C.3    47  SER47       0.2055
     12  C         -0.3400   -8.1140   41.7430 C.2    47  SER47       0.2644
     13  O          0.0630   -7.8060   42.8630 O.2    47  SER47      -0.2714
     14  CB        -1.7350   -6.0700   41.4060 C.3    47  SER47       0.2130
     15  OG        -2.1000   -5.0210   40.5090 O.3    47  SER47      -0.2179
     16  N         -0.4720   -9.3790   41.3470 N.am   48  GLY48      -0.1939
     17  CA        -0.1820  -10.4990   42.2360 C.3    48  GLY48       0.2014
     18  C         -1.4220  -11.2090   42.7860 C.2    48  GLY48       0.2640
     19  O         -1.3670  -11.8460   43.8380 O.2    48  GLY48      -0.2714
     20  N         -2.5410  -11.0930   42.0750 N.am   49  THR49      -0.1936
     21  CA        -3.7980  -11.7410   42.4740 C.3    49  THR49       0.2028
     22  C         -3.6270  -13.2260   42.7820 C.2    49  THR49       0.2643
     23  O         -4.0850  -13.7270   43.8110 O.2    49  THR49      -0.2714
     24  CB        -4.8580  -11.6440   41.3470 C.3    49  THR49       0.1808
     25  OG1       -4.7950  -10.3490   40.7390 O.3    49  THR49      -0.2208
     26  CG2       -6.2420  -11.8630   41.9030 C.3    49  THR49       0.0379
     27  N         -2.9810  -13.9250   41.8620 N.am   50  THR50      -0.1936
     28  CA        -2.8310  -15.3660   41.9620 C.3    50  THR50       0.2028
     29  C         -2.0280  -15.7260   43.2090 C.2    50  THR50       0.2642
     30  O         -2.3560  -16.6700   43.9240 O.2    50  THR50      -0.2714
     31  CB        -2.1650  -15.9140   40.6970 C.3    50  THR50       0.1808
     32  OG1       -2.8900  -15.4370   39.5480 O.3    50  THR50      -0.2208
     33  CG2       -2.1660  -17.4440   40.6920 C.3    50  THR50       0.0379
     34  N         -0.9990  -14.9350   43.4750 N.am   51  TRP51      -0.1973
     35  CA        -0.1370  -15.1110   44.6350 C.3    51  TRP51       0.1640
     36  C         -0.9150  -15.0080   45.9440 C.2    51  TRP51       0.2290
     37  O         -0.9030  -15.9340   46.7560 O.2    51  TRP51      -0.2864
     38  CB         0.9990  -14.0830   44.5720 C.3    51  TRP51       0.0576
     39  CG         2.1600  -14.2970   45.5290 C.ar   51  TRP51       0.0006
     40  CD1        2.3950  -15.3840   46.3250 C.ar   51  TRP51       0.0946
     41  CD2        3.2380  -13.3810   45.7720 C.ar   51  TRP51       0.0152
     42  NE1        3.5570  -15.1950   47.0530 N.ar   51  TRP51      -0.2442
     43  CE2        4.0930  -13.9760   46.7230 C.ar   51  TRP51       0.0810
     44  CE3        3.5640  -12.1160   45.2740 C.ar   51  TRP51       0.0012
     45  CZ2        5.2520  -13.3490   47.1790 C.ar   51  TRP51       0.0191
     46  CZ3        4.7120  -11.4950   45.7310 C.ar   51  TRP51       0.0001
     47  CH2        5.5390  -12.1130   46.6770 C.ar   51  TRP51       0.0015
     48  N        -12.6540  -13.7880   43.6520 N.3   104  LYS104     -0.1245
     49  CA       -11.6590  -12.9620   42.9770 C.3   104  LYS104      0.1561
     50  C        -12.3270  -11.9310   42.0680 C.2   104  LYS104      0.2260
     51  O        -13.2490  -12.2540   41.3280 O.2   104  LYS104     -0.2867
     52  CB       -10.6900  -13.8330   42.1640 C.3   104  LYS104      0.0271
     53  CG        -9.8400  -13.0320   41.1790 C.3   104  LYS104      0.0035
     54  CD        -9.1170  -13.9230   40.1690 C.3   104  LYS104      0.0206
     55  CE        -8.5970  -13.0900   38.9890 C.3   104  LYS104      0.1093
     56  NZ        -7.7690  -13.9320   38.0850 N.3   104  LYS104     -0.1314
     57  N        -11.3990   -7.9940   39.7600 N.3   106  HIS106     -0.1241
     58  CA       -10.5250   -6.8640   39.4750 C.3   106  HIS106      0.1621
     59  C        -11.2560   -5.5340   39.5220 C.2   106  HIS106      0.2264
     60  O        -10.7190   -4.5150   39.1000 O.2   106  HIS106     -0.2867
     61  CB        -9.8270   -6.9970   38.1170 C.3   106  HIS106      0.0745
     62  CG        -8.8890   -8.1590   38.0240 C.ar  106  HIS106      0.0817
     63  ND1       -7.8690   -8.3620   38.9220 N.ar  106  HIS106     -0.2268
     64  CD2       -8.8180   -9.1740   37.1280 C.ar  106  HIS106      0.1154
     65  CE1       -7.2010   -9.4550   38.5830 C.ar  106  HIS106      0.1986
     66  NE2       -7.7590   -9.9670   37.5020 N.ar  106  HIS106     -0.2212
     67  N          0.2770   -3.0660   43.4000 N.3   128  ARG128     -0.1245
     68  CA         1.6580   -3.2350   42.9750 C.3   128  ARG128      0.1563
     69  C          2.0180   -1.9370   42.2670 C.2   128  ARG128      0.2260
     70  O          1.1400   -1.2940   41.7030 O.2   128  ARG128     -0.2867
     71  CB         1.7430   -4.4170   42.0100 C.3   128  ARG128      0.0307
     72  CG         3.1530   -4.8180   41.5570 C.3   128  ARG128      0.0489
     73  CD         3.0640   -6.0300   40.6420 C.3   128  ARG128      0.2205
     74  NE         4.3560   -6.6380   40.3450 N.pl3 128  ARG128     -0.0865
     75  CZ         4.5450   -7.5440   39.3930 C.cat 128  ARG128      0.5346
     76  NH1        3.5290   -7.9230   38.6180 N.pl3 128  ARG128      0.1354
     77  NH2        5.7530   -8.0670   39.2060 N.pl3 128  ARG128      0.1354
     78  N          5.6680   -1.7100   37.1400 N.3   132  ASP132     -0.1239
     79  CA         5.7230   -3.1720   37.0420 C.3   132  ASP132      0.1674
     80  C          4.3950   -3.7720   36.5720 C.2   132  ASP132      0.2266
     81  O          4.3740   -4.7570   35.8310 O.2   132  ASP132     -0.2867
     82  CB         6.1480   -3.8030   38.3770 C.3   132  ASP132      0.1410
     83  CG         7.6310   -3.6100   38.6680 C.2   132  ASP132      0.3668
     84  OD1        8.3930   -3.3260   37.7200 O.co2 132  ASP132     -0.2456
     85  OD2        8.0310   -3.7530   39.8440 O.co2 132  ASP132     -0.2456
     86  N          3.8350   -6.1980   33.2200 N.3   136  SER136     -0.1217
     87  CA         3.1220   -7.4660   33.3390 C.3   136  SER136      0.1889
     88  C          1.8770   -7.4750   32.4510 C.2   136  SER136      0.2288
     89  O          1.5790   -8.4760   31.7880 O.2   136  SER136     -0.2866
     90  CB         2.7440   -7.7030   34.8120 C.3   136  SER136      0.2089
     91  OG         2.2050   -9.0060   35.0250 O.3   136  SER136     -0.2183
     92  N          0.7110   -9.7660   29.1510 N.3   140  PHE140     -0.1241
     93  CA        -0.6150  -10.3530   29.2650 C.3   140  PHE140      0.1605
     94  C         -1.4200  -10.0870   27.9820 C.2   140  PHE140      0.2264
     95  O         -2.0250  -10.9990   27.4270 O.2   140  PHE140     -0.2867
     96  CB        -1.3240   -9.7630   30.4920 C.3   140  PHE140      0.0534
     97  CG        -2.4770  -10.5970   31.0010 C.ar  140  PHE140     -0.0203
     98  CD1       -2.2500  -11.8290   31.5940 C.ar  140  PHE140     -0.0042
     99  CD2       -3.7820  -10.1310   30.9110 C.ar  140  PHE140     -0.0042
    100  CE1       -3.3210  -12.5990   32.0880 C.ar  140  PHE140     -0.0003
    101  CE2       -4.8590  -10.8880   31.4040 C.ar  140  PHE140     -0.0003
    102  CZ        -4.6210  -12.1230   31.9940 C.ar  140  PHE140     -0.0000
    103  N          2.2630   -5.6350   46.8360 N.3   191  TYR191     -0.1241
    104  CA         3.0790   -6.6900   46.2410 C.3   191  TYR191      0.1605
    105  C          4.5250   -6.5990   46.7050 C.2   191  TYR191      0.2264
    106  O          5.1630   -7.6100   47.0030 O.2   191  TYR191     -0.2867
    107  CB         3.0230   -6.5540   44.7140 C.3   191  TYR191      0.0534
    108  CG         3.8250   -7.5650   43.9230 C.ar  191  TYR191     -0.0201
    109  CD1        3.2410   -8.7340   43.4770 C.ar  191  TYR191     -0.0009
    110  CD2        5.1600   -7.3340   43.6000 C.ar  191  TYR191     -0.0009
    111  CE1        3.9500   -9.6550   42.7530 C.ar  191  TYR191      0.0417
    112  CE2        5.8840   -8.2500   42.8610 C.ar  191  TYR191      0.0417
    113  CZ         5.2710   -9.4090   42.4420 C.ar  191  TYR191      0.1957
    114  OH         5.9580  -10.3340   41.7220 O.3   191  TYR191     -0.2866
    115  N          7.0510   -9.2870   48.5870 N.3   195  LYS195     -0.1245
    116  CA         8.4050   -9.6250   48.1170 C.3   195  LYS195      0.1561
    117  C          9.4520   -9.4190   49.2170 C.2   195  LYS195      0.2260
    118  O         10.3430  -10.2480   49.4150 O.2   195  LYS195     -0.2867
    119  CB         8.7950   -8.7700   46.8950 C.3   195  LYS195      0.0271
    120  CG         8.0580   -9.0940   45.5940 C.3   195  LYS195      0.0035
    121  CD         8.5040  -10.4400   44.9960 C.3   195  LYS195      0.0206
    122  CE         9.9920  -10.4410   44.6270 C.3   195  LYS195      0.1093
    123  NZ        10.4550  -11.7710   44.1190 N.3   195  LYS195     -0.1314
    124  N          3.7910  -21.0390   48.3500 N.3   225  THR225     -0.1218
    125  CA         3.4180  -19.8690   47.5440 C.3   225  THR225      0.1862
    126  C          4.6030  -19.0800   46.9780 C.2   225  THR225      0.2287
    127  O          4.4280  -17.9950   46.4140 O.2   225  THR225     -0.2866
    128  CB         2.4770  -18.9200   48.3110 C.3   225  THR225      0.1770
    129  OG1        3.1440  -18.4090   49.4740 O.3   225  THR225     -0.2211
    130  CG2        1.2090  -19.6650   48.7320 C.3   225  THR225      0.0375
    131  N          7.4290  -18.0780   44.2740 N.3   227  PHE227     -0.1241
    132  CA         7.2910  -17.9990   42.8210 C.3   227  PHE227      0.1605
    133  C          7.7400  -19.2880   42.1130 C.2   227  PHE227      0.2264
    134  O          7.0680  -19.7740   41.2010 O.2   227  PHE227     -0.2867
    135  CB         8.0680  -16.7920   42.2850 C.3   227  PHE227      0.0534
    136  CG         8.0560  -16.6780   40.7850 C.ar  227  PHE227     -0.0203
    137  CD1        6.9840  -16.0830   40.1330 C.ar  227  PHE227     -0.0042
    138  CD2        9.1250  -17.1360   40.0300 C.ar  227  PHE227     -0.0042
    139  CE1        6.9670  -15.9540   38.7490 C.ar  227  PHE227     -0.0003
    140  CE2        9.1190  -17.0170   38.6490 C.ar  227  PHE227     -0.0003
    141  CZ         8.0370  -16.4190   38.0050 C.ar  227  PHE227     -0.0000
    142  N          4.9940  -21.9330   42.5290 N.3   230  MET230     -0.1245
    143  CA         3.7410  -21.6290   41.8660 C.3   230  MET230      0.1570
    144  C          3.9210  -21.7060   40.3580 C.2   230  MET230      0.2261
    145  O          3.0040  -22.1140   39.6410 O.2   230  MET230     -0.2867
    146  CB         3.1710  -20.2810   42.3410 C.3   230  MET230      0.0387
    147  CG         2.7500  -20.2960   43.8220 C.3   230  MET230      0.0595
    148  SD         1.7870  -18.8660   44.3770 S.3   230  MET230     -0.1393
    149  CE         0.3790  -18.9600   43.2520 C.3   230  MET230      0.0692
    150  N          2.3600  -17.1660   32.2720 N.3   253  PHE253     -0.1227
    151  CA         1.5980  -16.4120   33.2670 C.3   253  PHE253      0.1736
    152  C          2.5040  -16.0620   34.4500 C.2   253  PHE253      0.2595
    153  O          2.5770  -14.9130   34.8760 O.2   253  PHE253     -0.2718
    154  CB         0.3750  -17.2170   33.7290 C.3   253  PHE253      0.0547
    155  CG        -0.5900  -16.4270   34.5860 C.ar  253  PHE253     -0.0202
    156  CD1       -1.7560  -15.9150   34.0440 C.ar  253  PHE253     -0.0042
    157  CD2       -0.3210  -16.1960   35.9250 C.ar  253  PHE253     -0.0042
    158  CE1       -2.6470  -15.1920   34.8240 C.ar  253  PHE253     -0.0003
    159  CE2       -1.1980  -15.4630   36.7110 C.ar  253  PHE253     -0.0003
    160  CZ        -2.3690  -14.9640   36.1600 C.ar  253  PHE253     -0.0000
    161  N          3.2050  -17.0660   34.9640 N.am  254  MET254     -0.1965
    162  CA         4.2310  -16.8560   35.9690 C.3   254  MET254      0.1736
    163  C          5.4940  -16.4480   35.2230 C.2   254  MET254      0.2616
    164  O          6.3030  -17.2970   34.8500 O.2   254  MET254     -0.2715
    165  CB         4.4610  -18.1490   36.7540 C.3   254  MET254      0.0427
    166  CG         3.2300  -18.6150   37.4900 C.3   254  MET254      0.0599
    167  SD         2.7660  -17.4040   38.7240 S.3   254  MET254     -0.1393
    168  CE         1.2470  -18.1270   39.3450 C.3   254  MET254      0.0692
    169  N          5.6410  -15.1460   34.9930 N.am  255  ARG255     -0.1963
    170  CA         6.6300  -14.6270   34.0550 C.3   255  ARG255      0.1729
    171  C          8.0110  -14.4110   34.6770 C.2   255  ARG255      0.2616
    172  O          8.9770  -15.0660   34.2940 O.2   255  ARG255     -0.2715
    173  CB         6.1060  -13.3440   33.4080 C.3   255  ARG255      0.0348
    174  CG         6.9190  -12.8600   32.2330 C.3   255  ARG255      0.0492
    175  CD         6.3700  -11.5310   31.7290 C.3   255  ARG255      0.2205
    176  NE         6.3830  -10.5240   32.7890 N.pl3 255  ARG255     -0.0865
    177  CZ         7.3970   -9.6860   32.9900 C.cat 255  ARG255      0.5346
    178  NH1        8.4550   -9.7330   32.1860 N.pl3 255  ARG255      0.1354
    179  NH2        7.3450   -8.7850   33.9600 N.pl3 255  ARG255      0.1354
    180  N          8.1140  -13.5090   35.6420 N.am  256  LYS256     -0.1963
    181  CA         9.3980  -13.2570   36.2890 C.3   256  LYS256      0.1728
    182  C          9.2470  -13.1860   37.7900 C.2   256  LYS256      0.2617
    183  O         10.0850  -13.6900   38.5290 O.2   256  LYS256     -0.2715
    184  CB        10.0260  -11.9470   35.7850 C.3   256  LYS256      0.0311
    185  CG        10.8690  -12.0670   34.5380 C.3   256  LYS256      0.0038
    186  CD        11.7200  -10.8080   34.3550 C.3   256  LYS256      0.0206
    187  CE        12.2440  -10.7130   32.9360 C.3   256  LYS256      0.1093
    188  NZ        12.9070   -9.4030   32.6690 N.3   256  LYS256     -0.1314
    189  N          8.1820  -12.5330   38.2480 N.am  257  GLY257     -0.1940
    190  CA         7.8650  -12.5260   39.6650 C.3   257  GLY257      0.2014
    191  C          8.7750  -11.6610   40.5150 C.2   257  GLY257      0.2638
    192  O          9.0220  -11.9550   41.6890 O.2   257  GLY257     -0.2714
    193  N          9.2720  -10.5790   39.9300 N.am  258  ILE258     -0.1977
    194  CA        10.1470   -9.6820   40.6570 C.3   258  ILE258      0.1596
    195  C          9.5430   -8.2840   40.7930 C.2   258  ILE258      0.2287
    196  O          8.5070   -7.9670   40.1970 O.2   258  ILE258     -0.2864
    197  CB        11.5470   -9.5790   39.9800 C.3   258  ILE258      0.0276
    198  CG1       11.4340   -8.9000   38.6130 C.3   258  ILE258      0.0022
    199  CG2       12.1740  -10.9720   39.8380 C.3   258  ILE258      0.0022
    200  CD1       12.7800   -8.5790   37.9570 C.3   258  ILE258      0.0001
    201  N         11.0560   -4.9930   37.2360 N.3   261  ASP261     -0.1239
    202  CA        11.2400   -5.3600   35.8350 C.3   261  ASP261      0.1674
    203  C         11.0200   -4.1420   34.9440 C.2   261  ASP261      0.2266
    204  O         11.4140   -4.1490   33.7760 O.2   261  ASP261     -0.2867
    205  CB        10.3320   -6.5200   35.4020 C.3   261  ASP261      0.1410
    206  CG        10.8200   -7.2190   34.1280 C.2   261  ASP261      0.3668
    207  OD1       12.0470   -7.2390   33.8710 O.co2 261  ASP261     -0.2456
    208  OD2        9.9720   -7.7770   33.3890 O.co2 261  ASP261     -0.2456
@<TRIPOS>BOND
     1    95    94    2
     2    94    93    1
     3    92    93    1
     4    93    96    1
     5    96    97    1
     6    99    97   ar
     7    99   101   ar
     8    97    98   ar
     9   101   102   ar
    10    98   100   ar
    11   175   174    1
    12   175   176    1
    13    89    88    2
    14   102   100   ar
    15   178   177    1
    16   174   173    1
    17   150   151    1
    18    88    87    1
    19   188   187    1
    20   176   177    2
    21   187   186    1
    22   177   179    1
    23    86    87    1
    24   151   154    1
    25   151   152    1
    26    87    90    1
    27   208   206   ar
    28   173   170    1
    29   154   155    1
    30   204   203    2
    31   207   206   ar
    32   156   155   ar
    33   156   158   ar
    34   170   171    1
    35   170   169    1
    36   206   205    1
    37   172   171    2
    38   186   185    1
    39     8     7    1
    40     8     9    1
    41   152   153    2
    42   152   161   am
    43   185   184    1
    44     7     6    1
    45     6     5    1
    46   155   157   ar
    47   171   180   am
    48    90    91    1
    49   158   160   ar
    50   164   163    2
    51   203   202    1
    52   161   162    1
    53   169   163   am
    54   163   162    1
    55   205   202    1
    56   180   181    1
    57   184   181    1
    58    81    80    2
    59     5     2    1
    60   202   201    1
    61   157   159   ar
    62   162   165    1
    63   160   159   ar
    64   181   182    1
    65    80    79    1
    66   165   166    1
    67    79    78    1
    68    79    82    1
    69    64    66   ar
    70    64    62   ar
    71     2     1    1
    72     2     3    1
    73   166   167    1
    74    66    65   ar
    75    84    83   ar
    76   182   189   am
    77   182   183    2
    78   200   198    1
    79   141   140   ar
    80   141   139   ar
    81    62    61    1
    82    62    63   ar
    83    56    55    1
    84    61    58    1
    85   189   190    1
    86     4     3    2
    87    82    83    1
    88     3    10   am
    89    65    63   ar
    90   198   197    1
    91    76    75    1
    92   140   138   ar
    93    83    85   ar
    94   167   168    1
    95   139   137   ar
    96    55    54    1
    97    60    59    2
    98    77    75    1
    99    75    74    2
   100    58    59    1
   101    58    57    1
   102    10    11    1
   103    32    31    1
   104   145   144    2
   105   190   191    1
   106   199   197    1
   107   193   191   am
   108   193   194    1
   109   197   194    1
   110   138   136   ar
   111   137   136   ar
   112    54    53    1
   113   196   195    2
   114    74    73    1
   115   144   143    1
   116    15    14    1
   117   191   192    2
   118    73    72    1
   119   194   195    1
   120    33    31    1
   121    31    28    1
   122    25    24    1
   123    11    14    1
   124    11    12    1
   125   136   135    1
   126    53    52    1
   127   134   133    2
   128    51    50    2
   129    24    26    1
   130    24    21    1
   131    16    12   am
   132    16    17    1
   133    72    71    1
   134    70    69    2
   135   114   113    1
   136    12    13    2
   137    27    28    1
   138    27    22   am
   139   143   146    1
   140   143   142    1
   141    28    29    1
   142    71    68    1
   143    50    49    1
   144    20    21    1
   145    20    18   am
   146   133   132    1
   147    52    49    1
   148    17    18    1
   149    69    68    1
   150   135   132    1
   151   146   147    1
   152   113   111   ar
   153   113   112   ar
   154    21    22    1
   155   111   109   ar
   156    22    23    2
   157    18    19    2
   158   132   131    1
   159   112   110   ar
   160    68    67    1
   161    49    48    1
   162    29    34   am
   163    29    30    2
   164   149   148    1
   165    34    35    1
   166   109   108   ar
   167   110   108   ar
   168   147   148    1
   169   108   107    1
   170   123   122    1
   171    38    35    1
   172    38    39    1
   173   122   121    1
   174    35    36    1
   175   107   104    1
   176   121   120    1
   177    44    46   ar
   178    44    41   ar
   179    39    41   ar
   180    39    40   ar
   181   120   119    1
   182    46    47   ar
   183    41    43   ar
   184    36    37    2
   185   104   105    1
   186   104   103    1
   187    40    42   ar
   188   127   126    2
   189    47    45   ar
   190   105   106    2
   191    43    42   ar
   192    43    45   ar
   193   119   116    1
   194   126   125    1
   195   125   128    1
   196   125   124    1
   197   116   115    1
   198   116   117    1
   199   128   130    1
   200   128   129    1
   201   117   118    2
