@<TRIPOS>MOLECULE
tmp/4jvmB00.pdb
 193 186 0 0 0
SMALL
GASTEIGER

@<TRIPOS>ATOM
      1  N         35.5240   -4.4970    8.3770 N.3    18  TYR18      -0.1241
      2  CA        34.8150   -5.0830    7.2430 C.3    18  TYR18       0.1605
      3  C         35.7680   -5.9550    6.4340 C.2    18  TYR18       0.2264
      4  O         36.8410   -5.4990    6.0350 O.2    18  TYR18      -0.2867
      5  CB        34.2280   -3.9850    6.3530 C.3    18  TYR18       0.0534
      6  CG        33.2280   -3.1070    7.0640 C.ar   18  TYR18      -0.0201
      7  CD1       31.9480   -3.5630    7.3380 C.ar   18  TYR18      -0.0009
      8  CD2       33.5630   -1.8220    7.4650 C.ar   18  TYR18      -0.0009
      9  CE1       31.0290   -2.7680    7.9910 C.ar   18  TYR18       0.0417
     10  CE2       32.6420   -1.0150    8.1230 C.ar   18  TYR18       0.0417
     11  CZ        31.3810   -1.4980    8.3840 C.ar   18  TYR18       0.1957
     12  OH        30.4640   -0.7090    9.0360 O.3    18  TYR18      -0.2866
     13  N         37.5210   -4.6190    3.3020 N.3    21  PHE21      -0.1241
     14  CA        38.6080   -3.6400    3.4020 C.3    21  PHE21       0.1605
     15  C         39.9440   -4.3440    3.6520 C.2    21  PHE21       0.2264
     16  O         40.9770   -3.9630    3.0950 O.2    21  PHE21      -0.2867
     17  CB        38.3520   -2.6230    4.5230 C.3    21  PHE21       0.0534
     18  CG        37.1300   -1.7470    4.3140 C.ar   21  PHE21      -0.0203
     19  CD1       36.2920   -1.9220    3.2250 C.ar   21  PHE21      -0.0042
     20  CD2       36.8360   -0.7350    5.2210 C.ar   21  PHE21      -0.0042
     21  CE1       35.1740   -1.1120    3.0460 C.ar   21  PHE21      -0.0003
     22  CE2       35.7300    0.0820    5.0480 C.ar   21  PHE21      -0.0003
     23  CZ        34.8940   -0.1130    3.9580 C.ar   21  PHE21      -0.0000
     24  N         32.8290    5.7280   13.4000 N.3    44  PRO44      -0.2102
     25  CA        31.6050    5.7110   12.5820 C.3    44  PRO44       0.1504
     26  C         30.3820    6.3510   13.2600 C.2    44  PRO44       0.2575
     27  O         30.2060    6.2370   14.4730 O.2    44  PRO44      -0.2718
     28  CB        31.3570    4.2160   12.3550 C.3    44  PRO44       0.0282
     29  CG        32.7340    3.5970   12.4050 C.3    44  PRO44       0.0208
     30  CD        33.5170    4.4180   13.4110 C.3    44  PRO44       0.0893
     31  N         29.5720    7.0450   12.4610 N.am   45  LYS45      -0.1980
     32  CA        28.2540    7.5400   12.8720 C.3    45  LYS45       0.1596
     33  C         28.3320    8.6890   13.8690 C.2    45  LYS45       0.2287
     34  O         27.3980    8.9350   14.6320 O.2    45  LYS45      -0.2864
     35  CB        27.3730    6.3940   13.3960 C.3    45  LYS45       0.0298
     36  CG        27.4340    5.1240   12.5650 C.3    45  LYS45       0.0038
     37  CD        27.2710    5.4150   11.0750 C.3    45  LYS45       0.0206
     38  CE        25.8900    5.9810   10.7530 C.3    45  LYS45       0.1093
     39  NZ        25.8520    6.4820    9.3380 N.3    45  LYS45      -0.1314
     40  N         30.8530   11.0680   -1.4950 N.3    73  PHE73      -0.1241
     41  CA        31.8330    9.9870   -1.4050 C.3    73  PHE73       0.1605
     42  C         32.7930    9.9430   -2.5880 C.2    73  PHE73       0.2264
     43  O         33.7160    9.1330   -2.6130 O.2    73  PHE73      -0.2867
     44  CB        31.1840    8.6210   -1.1480 C.3    73  PHE73       0.0534
     45  CG        30.0910    8.2550   -2.1120 C.ar   73  PHE73      -0.0203
     46  CD1       30.3840    7.6390   -3.3190 C.ar   73  PHE73      -0.0042
     47  CD2       28.7610    8.4820   -1.7890 C.ar   73  PHE73      -0.0042
     48  CE1       29.3700    7.2810   -4.2020 C.ar   73  PHE73      -0.0003
     49  CE2       27.7420    8.1240   -2.6660 C.ar   73  PHE73      -0.0003
     50  CZ        28.0470    7.5210   -3.8690 C.ar   73  PHE73      -0.0000
     51  N         36.7980    7.9600    0.7980 N.3    78  PHE78      -0.1241
     52  CA        36.8740    7.1700    2.0190 C.3    78  PHE78       0.1605
     53  C         38.1360    6.3010    1.9350 C.2    78  PHE78       0.2264
     54  O         38.1210    5.2190    1.3490 O.2    78  PHE78      -0.2867
     55  CB        35.6010    6.3110    2.1010 C.3    78  PHE78       0.0534
     56  CG        35.3960    5.5890    3.4180 C.ar   78  PHE78      -0.0203
     57  CD1       36.3450    5.6220    4.4270 C.ar   78  PHE78      -0.0042
     58  CD2       34.2300    4.8520    3.6240 C.ar   78  PHE78      -0.0042
     59  CE1       36.1330    4.9420    5.6230 C.ar   78  PHE78      -0.0003
     60  CE2       34.0070    4.1720    4.8150 C.ar   78  PHE78      -0.0003
     61  CZ        34.9630    4.2110    5.8130 C.ar   78  PHE78      -0.0000
     62  N         38.4050    2.4170    2.4440 N.3    81  CYS81      -0.1235
     63  CA        37.2870    1.7040    1.8370 C.3    81  CYS81       0.1677
     64  C         37.6430    1.1750    0.4520 C.2    81  CYS81       0.2270
     65  O         38.1640    1.9050   -0.3870 O.2    81  CYS81      -0.2867
     66  CB        36.0610    2.6190    1.7350 C.3    81  CYS81       0.0956
     67  SG        34.5540    1.8370    1.0570 S.3    81  CYS81      -0.0801
     68  N         35.8110   -1.9120   -2.3520 N.3    83  LYS83      -0.1245
     69  CA        34.8130   -2.9540   -2.6680 C.3    83  LYS83       0.1561
     70  C         34.9460   -3.2320   -4.1700 C.2    83  LYS83       0.2260
     71  O         34.7830   -2.3170   -4.9810 O.2    83  LYS83      -0.2867
     72  CB        33.3990   -2.4100   -2.4210 C.3    83  LYS83       0.0271
     73  CG        33.0200   -2.2190   -0.9510 C.3    83  LYS83       0.0035
     74  CD        31.6890   -1.4920   -0.8160 C.3    83  LYS83       0.0206
     75  CE        31.6690   -0.4360    0.2580 C.3    83  LYS83       0.1093
     76  NZ        32.4160   -0.8430    1.4700 N.3    83  LYS83      -0.1314
     77  N         33.1360   -1.7230   -7.2850 N.3    86  LEU86      -0.1231
     78  CA        32.3230   -0.6200   -6.7800 C.3    86  LEU86       0.1693
     79  C         33.1380    0.6450   -6.5530 C.2    86  LEU86       0.2591
     80  O         32.9040    1.6650   -7.2010 O.2    86  LEU86      -0.2718
     81  CB        31.5810   -1.0280   -5.5040 C.3    86  LEU86       0.0284
     82  CG        30.3320   -1.8820   -5.7400 C.3    86  LEU86       0.0019
     83  CD1       29.7280   -2.3490   -4.4270 C.3    86  LEU86       0.0001
     84  CD2       29.2990   -1.1030   -6.5490 C.3    86  LEU86       0.0001
     85  N         34.1020    0.5830   -5.6440 N.am   87  MET87      -0.1979
     86  CA        34.9180    1.7610   -5.3720 C.3    87  MET87       0.1605
     87  C         36.2710    1.4180   -4.7640 C.2    87  MET87       0.2287
     88  O         36.4830    0.3150   -4.2580 O.2    87  MET87      -0.2864
     89  CB        34.1590    2.7460   -4.4760 C.3    87  MET87       0.0413
     90  CG        33.9910    2.2810   -3.0450 C.3    87  MET87       0.0598
     91  SD        35.4380    2.6710   -2.0430 S.3    87  MET87      -0.1393
     92  CE        35.7010    4.3820   -2.5030 C.3    87  MET87       0.0692
     93  N         38.5820   11.2430    3.9270 N.3   103  LYS103     -0.1245
     94  CA        37.7460   10.7010    4.9940 C.3   103  LYS103      0.1561
     95  C         38.3390    9.3970    5.5120 C.2   103  LYS103      0.2260
     96  O         38.7670    8.5530    4.7250 O.2   103  LYS103     -0.2867
     97  CB        36.3260   10.4410    4.4930 C.3   103  LYS103      0.0271
     98  CG        35.4910    9.5580    5.4290 C.3   103  LYS103      0.0035
     99  CD        34.2180    9.0630    4.7390 C.3   103  LYS103      0.0206
    100  CE        33.4340    8.1140    5.6200 C.3   103  LYS103      0.1093
    101  NZ        32.2060    7.6140    4.9220 N.3   103  LYS103     -0.1314
    102  N         38.0430    6.4540    9.1540 N.3   105  HIS105     -0.1241
    103  CA        37.5210    6.1360   10.4730 C.3   105  HIS105      0.1621
    104  C         38.5960    5.4940   11.3280 C.2   105  HIS105      0.2264
    105  O         38.3100    4.9590   12.3940 O.2   105  HIS105     -0.2867
    106  CB        36.3140    5.1850   10.4030 C.3   105  HIS105      0.0745
    107  CG        35.0820    5.7760    9.7860 C.ar  105  HIS105      0.0817
    108  ND1       34.5230    6.9620   10.2100 N.ar  105  HIS105     -0.2268
    109  CD2       34.2560    5.2940    8.8240 C.ar  105  HIS105      0.1154
    110  CE1       33.4240    7.2040    9.5140 C.ar  105  HIS105      0.1986
    111  NE2       33.2370    6.2040    8.6700 N.ar  105  HIS105     -0.2212
    112  N         22.4960    1.7110   11.2640 N.3   139  PHE139     -0.1241
    113  CA        23.4250    1.5730   10.1480 C.3   139  PHE139      0.1605
    114  C         23.6690    0.0960    9.8290 C.2   139  PHE139      0.2264
    115  O         23.7640   -0.2890    8.6590 O.2   139  PHE139     -0.2867
    116  CB        24.7460    2.2700   10.4810 C.3   139  PHE139      0.0534
    117  CG        25.6420    2.4850    9.2940 C.ar  139  PHE139     -0.0203
    118  CD1       25.3090    3.4130    8.3190 C.ar  139  PHE139     -0.0042
    119  CD2       26.8340    1.7900    9.1750 C.ar  139  PHE139     -0.0042
    120  CE1       26.1350    3.6300    7.2370 C.ar  139  PHE139     -0.0003
    121  CE2       27.6700    2.0020    8.0960 C.ar  139  PHE139     -0.0003
    122  CZ        27.3200    2.9280    7.1250 C.ar  139  PHE139     -0.0000
    123  N         22.6570   -1.1890    5.9990 N.3   143  VAL143     -0.1231
    124  CA        23.7860   -1.3510    5.0800 C.3   143  VAL143      0.1692
    125  C         24.2460   -2.7990    4.9130 C.2   143  VAL143      0.2591
    126  O         24.5800   -3.4730    5.8870 O.2   143  VAL143     -0.2718
    127  CB        24.9800   -0.4850    5.5390 C.3   143  VAL143      0.0266
    128  CG1       26.1890   -0.6970    4.6360 C.3   143  VAL143      0.0020
    129  CG2       24.5790    0.9830    5.5700 C.3   143  VAL143      0.0020
    130  N         24.2850   -3.2690    3.6690 N.am  144  ALA144     -0.1980
    131  CA        24.6990   -4.6430    3.3880 C.3   144  ALA144      0.1597
    132  C         26.1690   -4.8550    3.7320 C.2   144  ALA144      0.2287
    133  O         26.9700   -3.9290    3.6580 O.2   144  ALA144     -0.2864
    134  CB        24.4340   -4.9940    1.9330 C.3   144  ALA144      0.0319
    135  N         35.8130   -1.0760   13.3440 N.3   166  TYR166     -0.1241
    136  CA        36.6750   -0.0160   13.8750 C.3   166  TYR166      0.1605
    137  C         36.9660   -0.1290   15.3740 C.2   166  TYR166      0.2264
    138  O         37.6440    0.7150   15.9380 O.2   166  TYR166     -0.2867
    139  CB        36.2100    1.3890   13.4540 C.3   166  TYR166      0.0534
    140  CG        36.3510    1.6160   11.9600 C.ar  166  TYR166     -0.0201
    141  CD1       37.5730    2.0050   11.4080 C.ar  166  TYR166     -0.0009
    142  CD2       35.2790    1.4130   11.1000 C.ar  166  TYR166     -0.0009
    143  CE1       37.7200    2.1940   10.0460 C.ar  166  TYR166      0.0417
    144  CE2       35.4140    1.6090    9.7240 C.ar  166  TYR166      0.0417
    145  CZ        36.6370    2.0030    9.2060 C.ar  166  TYR166      0.1957
    146  OH        36.7860    2.2030    7.8450 O.3   166  TYR166     -0.2866
    147  N         23.2630   10.1280    0.3300 N.3   237  TYR237     -0.1241
    148  CA        23.5660    8.7500   -0.0620 C.3   237  TYR237      0.1605
    149  C         22.4380    8.0350   -0.8280 C.2   237  TYR237      0.2264
    150  O         22.4910    6.8210   -1.0250 O.2   237  TYR237     -0.2867
    151  CB        24.0240    7.9240    1.1570 C.3   237  TYR237      0.0534
    152  CG        25.4240    8.2720    1.6340 C.ar  237  TYR237     -0.0201
    153  CD1       26.5300    7.5950    1.1420 C.ar  237  TYR237     -0.0009
    154  CD2       25.6380    9.2870    2.5580 C.ar  237  TYR237     -0.0009
    155  CE1       27.8150    7.9120    1.5610 C.ar  237  TYR237      0.0417
    156  CE2       26.9250    9.6120    2.9870 C.ar  237  TYR237      0.0417
    157  CZ        28.0060    8.9200    2.4820 C.ar  237  TYR237      0.1957
    158  OH        29.2840    9.2290    2.8940 O.3   237  TYR237     -0.2866
    159  N         23.0130    5.6390   -3.9840 N.3   240  LEU240     -0.1245
    160  CA        23.4230    4.2540   -3.8120 C.3   240  LEU240      0.1561
    161  C         22.2210    3.3320   -3.9830 C.2   240  LEU240      0.2260
    162  O         21.1320    3.6310   -3.4920 O.2   240  LEU240     -0.2867
    163  CB        24.0710    4.0450   -2.4440 C.3   240  LEU240      0.0270
    164  CG        25.4380    4.7090   -2.2770 C.3   240  LEU240      0.0019
    165  CD1       25.9860    4.4870   -0.8750 C.3   240  LEU240      0.0001
    166  CD2       26.4040    4.1820   -3.3360 C.3   240  LEU240      0.0001
    167  N         23.0060   -1.9700   -1.5630 N.3   244  ILE244     -0.1231
    168  CA        24.1830   -1.4380   -0.8830 C.3   244  ILE244      0.1692
    169  C         23.7690   -0.6890    0.3860 C.2   244  ILE244      0.2591
    170  O         24.2940   -0.9400    1.4720 O.2   244  ILE244     -0.2718
    171  CB        24.9910   -0.5050   -1.8030 C.3   244  ILE244      0.0266
    172  CG1       25.5800   -1.3020   -2.9700 C.3   244  ILE244      0.0019
    173  CG2       26.0930    0.1930   -1.0230 C.3   244  ILE244      0.0020
    174  CD1       26.4530   -0.4830   -3.8950 C.3   244  ILE244      0.0001
    175  N         22.8170    0.2260    0.2430 N.am  245  MET245     -0.1979
    176  CA        22.3020    0.9780    1.3800 C.3   245  MET245      0.1605
    177  C         20.7880    1.1310    1.2660 C.2   245  MET245      0.2287
    178  O         20.2840    1.9260    0.4680 O.2   245  MET245     -0.2864
    179  CB        22.9770    2.3430    1.4560 C.3   245  MET245      0.0413
    180  CG        22.5340    3.1950    2.6230 C.3   245  MET245      0.0598
    181  SD        23.4790    4.7230    2.7280 S.3   245  MET245     -0.1393
    182  CE        25.1010    4.0890    3.1400 C.3   245  MET245      0.0692
    183  N         19.7500    7.4840    5.7800 N.3   252  PHE252     -0.1241
    184  CA        21.0920    7.7970    6.2580 C.3   252  PHE252      0.1605
    185  C         21.0110    9.0220    7.1570 C.2   252  PHE252      0.2264
    186  O         21.5320    9.0290    8.2730 O.2   252  PHE252     -0.2867
    187  CB        22.0590    8.0470    5.1000 C.3   252  PHE252      0.0534
    188  CG        23.4900    8.1980    5.5340 C.ar  252  PHE252     -0.0203
    189  CD1       24.3450    7.1040    5.5320 C.ar  252  PHE252     -0.0042
    190  CD2       23.9800    9.4270    5.9510 C.ar  252  PHE252     -0.0042
    191  CE1       25.6690    7.2360    5.9310 C.ar  252  PHE252     -0.0003
    192  CE2       25.3000    9.5640    6.3540 C.ar  252  PHE252     -0.0003
    193  CZ        26.1460    8.4680    6.3440 C.ar  252  PHE252     -0.0000
@<TRIPOS>BOND
     1    77    78    1
     2    80    79    2
     3    78    79    1
     4    78    81    1
     5    79    85   am
     6    84    82    1
     7    82    81    1
     8    82    83    1
     9    85    86    1
    10    86    87    1
    11    86    89    1
    12    71    70    2
    13    87    88    2
    14    89    90    1
    15    48    50   ar
    16    48    46   ar
    17    70    69    1
    18   159   160    1
    19   161   160    1
    20   161   162    2
    21   174   172    1
    22    50    49   ar
    23   160   163    1
    24   166   164    1
    25    46    45   ar
    26    90    91    1
    27   172   171    1
    28    69    72    1
    29    69    68    1
    30    49    47   ar
    31    43    42    2
    32    42    41    1
    33    92    91    1
    34   163   164    1
    35    72    73    1
    36   164   165    1
    37    45    47   ar
    38    45    44    1
    39   171   173    1
    40   171   168    1
    41   167   168    1
    42    40    41    1
    43    41    44    1
    44   150   149    2
    45    73    74    1
    46   168   169    1
    47   149   148    1
    48    74    75    1
    49    65    64    2
    50   148   147    1
    51   148   151    1
    52   175   169   am
    53   175   176    1
    54    75    76    1
    55   169   170    2
    56    64    63    1
    57   178   177    2
    58    51    52    1
    59    67    66    1
    60   153   155   ar
    61   153   152   ar
    62   151   152    1
    63   177   176    1
    64    54    53    2
    65   176   179    1
    66   179   180    1
    67   155   157   ar
    68   152   154   ar
    69    66    63    1
    70    63    62    1
    71   134   131    1
    72    53    52    1
    73    52    55    1
    74    55    56    1
    75   157   158    1
    76   157   156   ar
    77   154   156   ar
    78   180   181    1
    79   181   182    1
    80    21    19   ar
    81    21    23   ar
    82    16    15    2
    83    19    18   ar
    84    13    14    1
    85   131   130    1
    86   131   132    1
    87    14    15    1
    88    14    17    1
    89    56    58   ar
    90    56    57   ar
    91    58    60   ar
    92   133   132    2
    93   130   125   am
    94    93    94    1
    95    23    22   ar
    96    18    17    1
    97    18    20   ar
    98    57    59   ar
    99    97    94    1
   100    97    98    1
   101   128   127    1
   102    96    95    2
   103    99    98    1
   104    99   100    1
   105    60    61   ar
   106   125   124    1
   107   125   126    2
   108   101   100    1
   109    94    95    1
   110    22    20   ar
   111   124   127    1
   112   124   123    1
   113   187   188    1
   114   187   184    1
   115   189   188   ar
   116   189   191   ar
   117   188   190   ar
   118   127   129    1
   119    59    61   ar
   120   183   184    1
   121   191   193   ar
   122   190   192   ar
   123     4     3    2
   124   184   185    1
   125   193   192   ar
   126     5     6    1
   127     5     2    1
   128     3     2    1
   129     6     7   ar
   130     6     8   ar
   131   122   120   ar
   132   122   121   ar
   133   185   186    2
   134   120   118   ar
   135     2     1    1
   136     7     9   ar
   137     8    10   ar
   138   146   145    1
   139     9    11   ar
   140   121   119   ar
   141    10    11   ar
   142   118   117   ar
   143    11    12    1
   144   115   114    2
   145   111   109   ar
   146   111   110   ar
   147   109   107   ar
   148   102   103    1
   149   119   117   ar
   150   145   144   ar
   151   145   143   ar
   152   117   116    1
   153    39    38    1
   154   110   108   ar
   155   144   142   ar
   156   107   108   ar
   157   107   106    1
   158   114   113    1
   159   143   141   ar
   160   113   116    1
   161   113   112    1
   162   106   103    1
   163   103   104    1
   164    38    37    1
   165    37    36    1
   166   142   140   ar
   167   104   105    2
   168   141   140   ar
   169   140   139    1
   170    28    29    1
   171    28    25    1
   172    29    30    1
   173    31    32    1
   174    31    26   am
   175    36    35    1
   176    25    26    1
   177    25    24    1
   178    32    35    1
   179    32    33    1
   180    26    27    2
   181   135   136    1
   182    24    30    1
   183   139   136    1
   184    33    34    2
   185   136   137    1
   186   137   138    2
