@<TRIPOS>MOLECULE
tmp/4jvnB00.pdb
 162 157 0 0 0
SMALL
GASTEIGER

@<TRIPOS>ATOM
      1  N         35.5610   -4.6480    8.2450 N.3    18  TYR18      -0.1241
      2  CA        34.8730   -5.2440    7.1080 C.3    18  TYR18       0.1605
      3  C         35.8520   -6.1130    6.3190 C.2    18  TYR18       0.2264
      4  O         36.9510   -5.6740    5.9840 O.2    18  TYR18      -0.2867
      5  CB        34.2660   -4.1560    6.2170 C.3    18  TYR18       0.0534
      6  CG        33.2590   -3.2810    6.9360 C.ar   18  TYR18      -0.0201
      7  CD1       31.9800   -3.7430    7.2050 C.ar   18  TYR18      -0.0009
      8  CD2       33.5910   -1.9970    7.3520 C.ar   18  TYR18      -0.0009
      9  CE1       31.0570   -2.9590    7.8630 C.ar   18  TYR18       0.0417
     10  CE2       32.6680   -1.1970    8.0160 C.ar   18  TYR18       0.0417
     11  CZ        31.4010   -1.6880    8.2660 C.ar   18  TYR18       0.1957
     12  OH        30.4710   -0.9170    8.9200 O.3    18  TYR18      -0.2866
     13  N         37.5300   -4.7130    3.1380 N.3    21  PHE21      -0.1241
     14  CA        38.6030   -3.7310    3.2880 C.3    21  PHE21       0.1605
     15  C         39.9250   -4.4320    3.6050 C.2    21  PHE21       0.2264
     16  O         40.9800   -4.0520    3.0980 O.2    21  PHE21      -0.2867
     17  CB        38.2900   -2.7170    4.3960 C.3    21  PHE21       0.0534
     18  CG        37.0690   -1.8600    4.1410 C.ar   21  PHE21      -0.0203
     19  CD1       36.7170   -0.8710    5.0470 C.ar   21  PHE21      -0.0042
     20  CD2       36.2770   -2.0370    3.0160 C.ar   21  PHE21      -0.0042
     21  CE1       35.6060   -0.0730    4.8360 C.ar   21  PHE21      -0.0003
     22  CE2       35.1590   -1.2480    2.8010 C.ar   21  PHE21      -0.0003
     23  CZ        34.8220   -0.2660    3.7130 C.ar   21  PHE21      -0.0000
     24  N         32.8200    5.5260   13.2730 N.3    44  PRO44      -0.2102
     25  CA        31.5780    5.4200   12.4930 C.3    44  PRO44       0.1504
     26  C         30.3600    6.0890   13.1450 C.2    44  PRO44       0.2575
     27  O         30.1860    6.0190   14.3620 O.2    44  PRO44      -0.2718
     28  CB        31.3640    3.9070   12.3990 C.3    44  PRO44       0.0282
     29  CG        32.7500    3.3540   12.3740 C.3    44  PRO44       0.0208
     30  CD        33.5990    4.2740   13.2340 C.3    44  PRO44       0.0893
     31  N         29.5610    6.7650   12.3220 N.am   45  LYS45      -0.1980
     32  CA        28.2500    7.2990   12.7030 C.3    45  LYS45       0.1596
     33  C         28.3220    8.4670   13.6810 C.2    45  LYS45       0.2287
     34  O         27.3750    8.7330   14.4210 O.2    45  LYS45      -0.2864
     35  CB        27.3320    6.1900   13.2390 C.3    45  LYS45       0.0298
     36  CG        27.3400    4.8960   12.4220 C.3    45  LYS45       0.0038
     37  CD        27.2070    5.1500   10.9240 C.3    45  LYS45       0.0206
     38  CE        25.8790    5.7930   10.5630 C.3    45  LYS45       0.1093
     39  NZ        25.8910    6.2760    9.1430 N.3    45  LYS45      -0.1314
     40  N         36.7530    7.8330    0.8240 N.3    78  PHE78      -0.1241
     41  CA        36.8370    7.0430    2.0400 C.3    78  PHE78       0.1605
     42  C         38.1200    6.2090    1.9460 C.2    78  PHE78       0.2264
     43  O         38.1220    5.1280    1.3630 O.2    78  PHE78      -0.2867
     44  CB        35.5820    6.1600    2.0960 C.3    78  PHE78       0.0534
     45  CG        35.3800    5.4000    3.3890 C.ar   78  PHE78      -0.0203
     46  CD1       36.3490    5.3640    4.3790 C.ar   78  PHE78      -0.0042
     47  CD2       34.1990    4.6910    3.5910 C.ar   78  PHE78      -0.0042
     48  CE1       36.1420    4.6470    5.5500 C.ar   78  PHE78      -0.0003
     49  CE2       33.9840    3.9730    4.7550 C.ar   78  PHE78      -0.0003
     50  CZ        34.9560    3.9470    5.7350 C.ar   78  PHE78      -0.0000
     51  N         38.3950    2.3470    2.3640 N.3    81  CYS81      -0.1235
     52  CA        37.2950    1.6450    1.7140 C.3    81  CYS81       0.1677
     53  C         37.6820    1.0890    0.3470 C.2    81  CYS81       0.2270
     54  O         38.3170    1.7730   -0.4570 O.2    81  CYS81      -0.2867
     55  CB        36.0830    2.5680    1.5630 C.3    81  CYS81       0.0956
     56  SG        34.6810    1.8140    0.7080 S.3    81  CYS81      -0.0801
     57  N         38.5490   11.1120    3.8820 N.3   103  LYS103     -0.1245
     58  CA        37.7130   10.5610    4.9430 C.3   103  LYS103      0.1561
     59  C         38.2760    9.2350    5.4440 C.2   103  LYS103      0.2260
     60  O         38.6960    8.3970    4.6470 O.2   103  LYS103     -0.2867
     61  CB        36.2760   10.3550    4.4550 C.3   103  LYS103      0.0271
     62  CG        35.4860    9.3640    5.3000 C.3   103  LYS103      0.0035
     63  CD        34.1350    9.0230    4.6860 C.3   103  LYS103      0.0206
     64  CE        33.4530    7.9200    5.4730 C.3   103  LYS103      0.1093
     65  NZ        32.1110    7.5800    4.9170 N.3   103  LYS103     -0.1314
     66  N         37.9830    6.2700    9.0940 N.3   105  HIS105     -0.1241
     67  CA        37.4840    5.9320   10.4230 C.3   105  HIS105      0.1621
     68  C         38.5690    5.2720   11.2650 C.2   105  HIS105      0.2264
     69  O         38.2910    4.7230   12.3320 O.2   105  HIS105     -0.2867
     70  CB        36.2640    5.0050   10.3620 C.3   105  HIS105      0.0745
     71  CG        35.0470    5.6160    9.7430 C.ar  105  HIS105      0.0817
     72  ND1       34.5330    6.8330   10.1400 N.ar  105  HIS105     -0.2268
     73  CD2       34.2110    5.1490    8.7840 C.ar  105  HIS105      0.1154
     74  CE1       33.4470    7.0990    9.4350 C.ar  105  HIS105      0.1986
     75  NE2       33.2300    6.0920    8.6060 N.ar  105  HIS105     -0.2212
     76  N         22.5170    1.4640   11.0110 N.3   139  PHE139     -0.1241
     77  CA        23.4500    1.3240    9.8960 C.3   139  PHE139      0.1605
     78  C         23.6510   -0.1570    9.5750 C.2   139  PHE139      0.2264
     79  O         23.7410   -0.5430    8.4110 O.2   139  PHE139     -0.2867
     80  CB        24.7860    1.9850   10.2390 C.3   139  PHE139      0.0534
     81  CG        25.6460    2.2910    9.0450 C.ar  139  PHE139     -0.0203
     82  CD1       25.2800    3.2790    8.1450 C.ar  139  PHE139     -0.0042
     83  CD2       26.8400    1.6190    8.8440 C.ar  139  PHE139     -0.0042
     84  CE1       26.0750    3.5790    7.0560 C.ar  139  PHE139     -0.0003
     85  CE2       27.6400    1.9110    7.7550 C.ar  139  PHE139     -0.0003
     86  CZ        27.2570    2.8940    6.8590 C.ar  139  PHE139     -0.0000
     87  N         22.7710   -1.3250    5.6910 N.3   143  VAL143     -0.1245
     88  CA        23.9240   -1.4180    4.8010 C.3   143  VAL143      0.1561
     89  C         24.4080   -2.8490    4.5850 C.2   143  VAL143      0.2260
     90  O         24.6730   -3.5760    5.5420 O.2   143  VAL143     -0.2867
     91  CB        25.0830   -0.5590    5.3370 C.3   143  VAL143      0.0252
     92  CG1       26.3750   -0.8720    4.6000 C.3   143  VAL143      0.0019
     93  CG2       24.7290    0.9190    5.2390 C.3   143  VAL143      0.0019
     94  N         26.8250   -6.1700    6.4440 N.3   146  HIS146     -0.1241
     95  CA        26.6940   -6.2540    7.8910 C.3   146  HIS146      0.1621
     96  C         25.9360   -7.5220    8.2360 C.2   146  HIS146      0.2264
     97  O         25.0920   -7.9730    7.4660 O.2   146  HIS146     -0.2867
     98  CB        25.9380   -5.0480    8.4480 C.3   146  HIS146      0.0745
     99  CG        26.7480   -3.7910    8.4920 C.ar  146  HIS146      0.0817
    100  ND1       26.7840   -2.8930    7.4480 N.ar  146  HIS146     -0.2268
    101  CD2       27.5470   -3.2780    9.4570 C.ar  146  HIS146      0.1154
    102  CE1       27.5740   -1.8830    7.7650 C.ar  146  HIS146      0.1986
    103  NE2       28.0480   -2.0910    8.9800 N.ar  146  HIS146     -0.2212
    104  N         35.7860   -1.3310   13.2330 N.3   166  TYR166     -0.1241
    105  CA        36.6690   -0.2740   13.7650 C.3   166  TYR166      0.1605
    106  C         36.9450   -0.3860   15.2580 C.2   166  TYR166      0.2264
    107  O         37.6200    0.4520   15.8310 O.2   166  TYR166     -0.2867
    108  CB        36.2140    1.1470   13.3800 C.3   166  TYR166      0.0534
    109  CG        36.3610    1.4000   11.9020 C.ar  166  TYR166     -0.0201
    110  CD1       37.5710    1.8340   11.3690 C.ar  166  TYR166     -0.0009
    111  CD2       35.3110    1.1580   11.0350 C.ar  166  TYR166     -0.0009
    112  CE1       37.7200    2.0370   10.0130 C.ar  166  TYR166      0.0417
    113  CE2       35.4470    1.3590    9.6770 C.ar  166  TYR166      0.0417
    114  CZ        36.6490    1.8020    9.1730 C.ar  166  TYR166      0.1957
    115  OH        36.7770    2.0150    7.8210 O.3   166  TYR166     -0.2866
    116  N         23.3050    9.9000    0.0080 N.3   237  TYR237     -0.1241
    117  CA        23.6400    8.5370   -0.4130 C.3   237  TYR237      0.1605
    118  C         22.5270    7.8080   -1.1750 C.2   237  TYR237      0.2264
    119  O         22.5940    6.5910   -1.3530 O.2   237  TYR237     -0.2867
    120  CB        24.0900    7.6910    0.7880 C.3   237  TYR237      0.0534
    121  CG        25.4780    8.0110    1.3030 C.ar  237  TYR237     -0.0201
    122  CD1       26.5690    7.2390    0.9320 C.ar  237  TYR237     -0.0009
    123  CD2       25.6960    9.0830    2.1600 C.ar  237  TYR237     -0.0009
    124  CE1       27.8420    7.5250    1.3960 C.ar  237  TYR237      0.0417
    125  CE2       26.9690    9.3770    2.6310 C.ar  237  TYR237      0.0417
    126  CZ        28.0360    8.5930    2.2460 C.ar  237  TYR237      0.1957
    127  OH        29.3030    8.8780    2.7060 O.3   237  TYR237     -0.2866
    128  N         23.0430    5.4340   -4.3510 N.3   240  LEU240     -0.1245
    129  CA        23.4110    4.0350   -4.1800 C.3   240  LEU240      0.1561
    130  C         22.1780    3.1550   -4.3340 C.2   240  LEU240      0.2260
    131  O         21.0920    3.5180   -3.8780 O.2   240  LEU240     -0.2867
    132  CB        24.0420    3.8050   -2.8060 C.3   240  LEU240      0.0270
    133  CG        25.4400    4.3800   -2.5870 C.3   240  LEU240      0.0019
    134  CD1       25.9480    4.0390   -1.1910 C.3   240  LEU240      0.0001
    135  CD2       26.3940    3.8630   -3.6520 C.3   240  LEU240      0.0001
    136  N         23.0240   -2.0510   -1.9720 N.3   244  ILE244     -0.1231
    137  CA        24.1900   -1.5350   -1.2660 C.3   244  ILE244      0.1692
    138  C         23.7710   -0.8170    0.0160 C.2   244  ILE244      0.2591
    139  O         24.3150   -1.0690    1.0910 O.2   244  ILE244     -0.2718
    140  CB        25.0020   -0.5780   -2.1580 C.3   244  ILE244      0.0266
    141  CG1       25.5920   -1.3420   -3.3470 C.3   244  ILE244      0.0019
    142  CG2       26.1000    0.1020   -1.3560 C.3   244  ILE244      0.0020
    143  CD1       26.4430   -0.4920   -4.2650 C.3   244  ILE244      0.0001
    144  N         22.7880    0.0690   -0.1030 N.am  245  MET245     -0.1979
    145  CA        22.3030    0.8260    1.0440 C.3   245  MET245      0.1605
    146  C         20.7830    0.9500    0.9840 C.2   245  MET245      0.2287
    147  O         20.2440    1.7940    0.2700 O.2   245  MET245     -0.2864
    148  CB        22.9690    2.2030    1.0760 C.3   245  MET245      0.0413
    149  CG        22.6120    3.0570    2.2720 C.3   245  MET245      0.0598
    150  SD        23.5830    4.5760    2.3250 S.3   245  MET245     -0.1393
    151  CE        24.9450    4.0860    3.3670 C.3   245  MET245      0.0692
    152  N         19.9050    7.1850    5.5290 N.3   252  PHE252     -0.1241
    153  CA        21.2350    7.5320    6.0330 C.3   252  PHE252      0.1605
    154  C         21.1380    8.7670    6.9240 C.2   252  PHE252      0.2264
    155  O         21.6740    8.7930    8.0330 O.2   252  PHE252     -0.2867
    156  CB        22.2170    7.7690    4.8850 C.3   252  PHE252      0.0534
    157  CG        23.6470    7.9250    5.3320 C.ar  252  PHE252     -0.0203
    158  CD1       24.5000    6.8340    5.3600 C.ar  252  PHE252     -0.0042
    159  CD2       24.1380    9.1620    5.7260 C.ar  252  PHE252     -0.0042
    160  CE1       25.8170    6.9710    5.7650 C.ar  252  PHE252     -0.0003
    161  CE2       25.4530    9.3060    6.1360 C.ar  252  PHE252     -0.0003
    162  CZ        26.2930    8.2100    6.1540 C.ar  252  PHE252     -0.0000
@<TRIPOS>BOND
     1   128   129    1
     2   130   129    1
     3   130   131    2
     4   143   141    1
     5   129   132    1
     6   135   133    1
     7   141   140    1
     8   132   133    1
     9   133   134    1
    10   140   142    1
    11   140   137    1
    12   136   137    1
    13   119   118    2
    14   137   138    1
    15   118   117    1
    16    54    53    2
    17   117   116    1
    18   117   120    1
    19   144   138   am
    20   144   145    1
    21   138   139    2
    22   147   146    2
    23    53    52    1
    24    56    55    1
    25   120   121    1
    26    40    41    1
    27   122   121   ar
    28   122   124   ar
    29   146   145    1
    30   145   148    1
    31   148   149    1
    32   121   123   ar
    33    43    42    2
    34   124   126   ar
    35    55    52    1
    36    52    51    1
    37    42    41    1
    38    41    44    1
    39    44    45    1
    40   123   125   ar
    41   126   125   ar
    42   126   127    1
    43   149   150    1
    44   150   151    1
    45    22    20   ar
    46    22    23   ar
    47    20    18   ar
    48    16    15    2
    49    13    14    1
    50    14    15    1
    51    14    17    1
    52    45    47   ar
    53    45    46   ar
    54    47    49   ar
    55    23    21   ar
    56    57    58    1
    57    18    17    1
    58    18    19   ar
    59    46    48   ar
    60    61    58    1
    61    61    62    1
    62    89    88    1
    63    89    90    2
    64    92    91    1
    65    60    59    2
    66    63    62    1
    67    63    64    1
    68    49    50   ar
    69    88    91    1
    70    88    87    1
    71    21    19   ar
    72   156   157    1
    73   156   153    1
    74    65    64    1
    75    58    59    1
    76    93    91    1
    77   157   158   ar
    78   157   159   ar
    79   158   160   ar
    80   152   153    1
    81    48    50   ar
    82   159   161   ar
    83   160   162   ar
    84     4     3    2
    85   153   154    1
    86   161   162   ar
    87     5     6    1
    88     5     2    1
    89     3     2    1
    90    94    95    1
    91    86    84   ar
    92    86    85   ar
    93   154   155    2
    94     6     7   ar
    95     6     8   ar
    96    84    82   ar
    97     2     1    1
    98     7     9   ar
    99     8    10   ar
   100   100   102   ar
   101   100    99   ar
   102    97    96    2
   103    85    83   ar
   104   102   103   ar
   105   115   114    1
   106     9    11   ar
   107    95    96    1
   108    95    98    1
   109    10    11   ar
   110    82    81   ar
   111    11    12    1
   112    79    78    2
   113    98    99    1
   114    99   101   ar
   115    75    73   ar
   116    75    74   ar
   117    73    71   ar
   118    83    81   ar
   119   103   101   ar
   120    81    80    1
   121    66    67    1
   122    39    38    1
   123   114   113   ar
   124   114   112   ar
   125    74    72   ar
   126    78    77    1
   127   113   111   ar
   128    71    72   ar
   129    71    70    1
   130    77    80    1
   131    77    76    1
   132   112   110   ar
   133    70    67    1
   134    67    68    1
   135    38    37    1
   136    37    36    1
   137   111   109   ar
   138    68    69    2
   139   110   109   ar
   140   109   108    1
   141    31    32    1
   142    31    26   am
   143    29    28    1
   144    29    30    1
   145    28    25    1
   146    36    35    1
   147    25    26    1
   148    25    24    1
   149    32    35    1
   150    32    33    1
   151    26    27    2
   152   104   105    1
   153    30    24    1
   154   108   105    1
   155    33    34    2
   156   105   106    1
   157   106   107    2
