@<TRIPOS>MOLECULE
tmp/4jvnA00.pdb
 174 167 0 0 0
SMALL
GASTEIGER

@<TRIPOS>ATOM
      1  N        -13.7610   -6.4100   28.8250 N.3    18  TYR18      -0.1241
      2  CA       -13.8690   -7.4770   27.8290 C.3    18  TYR18       0.1605
      3  C        -15.3180   -7.6520   27.3640 C.2    18  TYR18       0.2264
      4  O        -16.2230   -7.8340   28.1840 O.2    18  TYR18      -0.2867
      5  CB       -13.3550   -8.7910   28.4110 C.3    18  TYR18       0.0534
      6  CG       -11.8940   -8.7470   28.7890 C.ar   18  TYR18      -0.0201
      7  CD1      -10.9100   -8.8690   27.8220 C.ar   18  TYR18      -0.0009
      8  CD2      -11.4980   -8.5720   30.1110 C.ar   18  TYR18      -0.0009
      9  CE1       -9.5710   -8.8180   28.1520 C.ar   18  TYR18       0.0417
     10  CE2      -10.1560   -8.5240   30.4530 C.ar   18  TYR18       0.0417
     11  CZ        -9.1970   -8.6490   29.4680 C.ar   18  TYR18       0.1957
     12  OH        -7.8530   -8.6080   29.7890 O.3    18  TYR18      -0.2866
     13  N        -17.6080  -10.3070   28.7330 N.3    21  PHE21      -0.1241
     14  CA       -18.0670  -10.1410   30.1090 C.3    21  PHE21       0.1605
     15  C        -19.3100   -9.2590   30.1230 C.2    21  PHE21       0.2264
     16  O        -20.2570   -9.5040   30.8740 O.2    21  PHE21      -0.2867
     17  CB       -16.9960   -9.4810   30.9810 C.3    21  PHE21       0.0534
     18  CG       -15.7510  -10.3120   31.1980 C.ar   21  PHE21      -0.0203
     19  CD1      -14.8230   -9.9210   32.1490 C.ar   21  PHE21      -0.0042
     20  CD2      -15.5010  -11.4650   30.4670 C.ar   21  PHE21      -0.0042
     21  CE1      -13.6740  -10.6590   32.3670 C.ar   21  PHE21      -0.0003
     22  CE2      -14.3530  -12.2040   30.6800 C.ar   21  PHE21      -0.0003
     23  CZ       -13.4380  -11.8000   31.6310 C.ar   21  PHE21      -0.0000
     24  N         -5.7810   -5.9210   37.2050 N.3    44  PRO44      -0.2102
     25  CA        -5.1510   -7.0210   36.4650 C.3    44  PRO44       0.1504
     26  C         -3.6260   -7.0280   36.5600 C.2    44  PRO44       0.2575
     27  O         -2.9900   -5.9720   36.4820 O.2    44  PRO44      -0.2718
     28  CB        -5.5810   -6.7530   35.0240 C.3    44  PRO44       0.0282
     29  CG        -6.9190   -6.1040   35.1650 C.3    44  PRO44       0.0208
     30  CD        -6.8520   -5.2720   36.4210 C.3    44  PRO44       0.0893
     31  N         -3.0740   -8.2240   36.7570 N.am   45  LYS45      -0.1980
     32  CA        -1.6350   -8.4970   36.7430 C.3    45  LYS45       0.1596
     33  C         -0.9050   -7.9490   37.9650 C.2    45  LYS45       0.2287
     34  O          0.2830   -7.6320   37.8970 O.2    45  LYS45      -0.2864
     35  CB        -0.9630   -8.0030   35.4440 C.3    45  LYS45       0.0298
     36  CG        -1.6970   -8.3580   34.1480 C.3    45  LYS45       0.0038
     37  CD        -2.2530   -9.7720   34.1500 C.3    45  LYS45       0.0206
     38  CE        -1.1610  -10.8130   34.0830 C.3    45  LYS45       0.1093
     39  NZ        -1.7100  -12.1750   34.3720 N.3    45  LYS45      -0.1314
     40  N        -13.6620  -16.4820   39.0520 N.3    78  PHE78      -0.1241
     41  CA       -13.4670  -15.1210   38.5850 C.3    78  PHE78       0.1605
     42  C        -14.8680  -14.5380   38.3660 C.2    78  PHE78       0.2264
     43  O        -15.5010  -14.8040   37.3460 O.2    78  PHE78      -0.2867
     44  CB       -12.6570  -15.1990   37.2760 C.3    78  PHE78       0.0534
     45  CG       -12.2250  -13.8650   36.7040 C.ar   78  PHE78      -0.0203
     46  CD1      -12.5420  -12.6640   37.3230 C.ar   78  PHE78      -0.0042
     47  CD2      -11.5060  -13.8280   35.5160 C.ar   78  PHE78      -0.0042
     48  CE1      -12.1360  -11.4520   36.7750 C.ar   78  PHE78      -0.0003
     49  CE2      -11.1050  -12.6240   34.9600 C.ar   78  PHE78      -0.0003
     50  CZ       -11.4230  -11.4340   35.5880 C.ar   78  PHE78      -0.0000
     51  N        -16.3170  -12.9410   35.0920 N.3    81  CYS81      -0.1235
     52  CA       -15.8520  -13.5670   33.8690 C.3    81  CYS81       0.1677
     53  C        -16.9250  -14.4230   33.2160 C.2    81  CYS81       0.2270
     54  O        -17.7110  -15.1060   33.8840 O.2    81  CYS81      -0.2867
     55  CB       -14.5990  -14.3960   34.1150 C.3    81  CYS81       0.0956
     56  SG       -14.2510  -15.5170   32.7650 S.3    81  CYS81      -0.0801
     57  N        -17.5130  -16.5890   29.2710 N.3    83  LYS83      -0.1245
     58  CA       -17.1830  -16.9500   27.8990 C.3    83  LYS83       0.1561
     59  C        -18.3800  -17.6490   27.2690 C.2    83  LYS83       0.2260
     60  O        -18.3040  -18.8300   26.9260 O.2    83  LYS83      -0.2867
     61  CB       -15.9660  -17.8760   27.8650 C.3    83  LYS83       0.0271
     62  CG       -14.7550  -17.3350   28.5960 C.3    83  LYS83       0.0035
     63  CD       -13.6870  -16.7860   27.6440 C.3    83  LYS83       0.0206
     64  CE       -13.1350  -15.4050   28.0800 C.3    83  LYS83       0.1093
     65  NZ       -12.5850  -15.2670   29.4800 N.3    83  LYS83      -0.1314
     66  N        -17.0800  -20.6920   30.1330 N.3    87  MET87      -0.1245
     67  CA       -16.6640  -20.3610   31.4960 C.3    87  MET87       0.1570
     68  C        -17.6380  -19.3360   32.0720 C.2    87  MET87       0.2261
     69  O        -18.1140  -18.4580   31.3500 O.2    87  MET87      -0.2867
     70  CB       -15.2350  -19.8180   31.5120 C.3    87  MET87       0.0387
     71  CG       -14.7390  -19.5560   32.8990 C.3    87  MET87       0.0595
     72  SD       -14.3170  -21.1350   33.6400 S.3    87  MET87      -0.1393
     73  CE       -12.5950  -21.1690   33.1880 C.3    87  MET87       0.0692
     74  N        -12.7220  -14.0970   43.1190 N.3   103  LYS103     -0.1245
     75  CA       -11.7540  -13.2590   42.4250 C.3   103  LYS103      0.1561
     76  C        -12.4620  -12.2010   41.5840 C.2   103  LYS103      0.2260
     77  O        -13.4170  -12.5020   40.8790 O.2   103  LYS103     -0.2867
     78  CB       -10.8340  -14.0950   41.5350 C.3   103  LYS103      0.0271
     79  CG       -10.0500  -13.2450   40.5310 C.3   103  LYS103      0.0035
     80  CD        -9.2700  -14.0730   39.5240 C.3   103  LYS103      0.0206
     81  CE        -8.8370  -13.1970   38.3450 C.3   103  LYS103      0.1093
     82  NZ        -7.8740  -13.8830   37.4380 N.3   103  LYS103     -0.1314
     83  N        -11.6400   -8.1460   39.3930 N.3   105  HIS105     -0.1241
     84  CA       -10.7530   -7.0360   39.0880 C.3   105  HIS105      0.1621
     85  C        -11.4980   -5.7060   39.1300 C.2   105  HIS105      0.2264
     86  O        -10.9980   -4.6940   38.6530 O.2   105  HIS105     -0.2867
     87  CB       -10.0850   -7.2140   37.7220 C.3   105  HIS105      0.0745
     88  CG        -9.1330   -8.3650   37.6480 C.ar  105  HIS105      0.0817
     89  ND1       -8.1340   -8.5720   38.5770 N.ar  105  HIS105     -0.2268
     90  CD2       -9.0010   -9.3510   36.7310 C.ar  105  HIS105      0.1154
     91  CE1       -7.4450   -9.6470   38.2460 C.ar  105  HIS105      0.1986
     92  NE2       -7.9490  -10.1390   37.1270 N.ar  105  HIS105     -0.2212
     93  N          0.5280  -10.1460   28.7680 N.3   139  PHE139     -0.1241
     94  CA        -0.7860  -10.7670   28.8870 C.3   139  PHE139      0.1605
     95  C         -1.6380  -10.5110   27.6380 C.2   139  PHE139      0.2264
     96  O         -2.2950  -11.4210   27.1360 O.2   139  PHE139     -0.2867
     97  CB        -1.4850  -10.2330   30.1390 C.3   139  PHE139      0.0534
     98  CG        -2.6780  -11.0320   30.5610 C.ar  139  PHE139     -0.0203
     99  CD1       -2.5230  -12.2500   31.2040 C.ar  139  PHE139     -0.0042
    100  CD2       -3.9590  -10.5540   30.3410 C.ar  139  PHE139     -0.0042
    101  CE1       -3.6300  -12.9880   31.6080 C.ar  139  PHE139     -0.0003
    102  CE2       -5.0670  -11.2860   30.7440 C.ar  139  PHE139     -0.0003
    103  CZ        -4.8970  -12.5080   31.3770 C.ar  139  PHE139     -0.0000
    104  N         -2.8620  -13.9070   25.5990 N.3   143  VAL143     -0.1231
    105  CA        -4.2570  -14.2980   25.8270 C.3   143  VAL143      0.1692
    106  C         -5.2140  -13.8830   24.7120 C.2   143  VAL143      0.2591
    107  O         -5.1670  -12.7530   24.2360 O.2   143  VAL143     -0.2718
    108  CB        -4.7620  -13.6860   27.1520 C.3   143  VAL143      0.0266
    109  CG1       -6.2050  -14.0620   27.4100 C.3   143  VAL143      0.0020
    110  CG2       -3.8750  -14.1340   28.2970 C.3   143  VAL143      0.0020
    111  N         -6.0910  -14.7990   24.3100 N.am  144  ALA144     -0.1980
    112  CA        -7.1160  -14.5060   23.3060 C.3   144  ALA144      0.1597
    113  C         -8.1280  -13.4740   23.8080 C.2   144  ALA144      0.2287
    114  O         -8.3990  -13.3900   25.0030 O.2   144  ALA144     -0.2864
    115  CB        -7.8340  -15.7890   22.8920 C.3   144  ALA144      0.0319
    116  N        -10.6510   -2.8800   32.5780 N.3   166  TYR166     -0.1241
    117  CA       -10.7520   -2.4300   33.9700 C.3   166  TYR166      0.1605
    118  C        -10.3630   -0.9730   34.1920 C.2   166  TYR166      0.2264
    119  O        -10.3490   -0.4870   35.3210 O.2   166  TYR166     -0.2867
    120  CB       -10.0550   -3.3930   34.9380 C.3   166  TYR166      0.0534
    121  CG       -10.7160   -4.7470   34.9310 C.ar  166  TYR166     -0.0201
    122  CD1      -11.8670   -4.9760   35.6700 C.ar  166  TYR166     -0.0009
    123  CD2      -10.2220   -5.7810   34.1510 C.ar  166  TYR166     -0.0009
    124  CE1      -12.4960   -6.2040   35.6520 C.ar  166  TYR166      0.0417
    125  CE2      -10.8440   -7.0200   34.1280 C.ar  166  TYR166      0.0417
    126  CZ       -11.9770   -7.2230   34.8840 C.ar  166  TYR166      0.1957
    127  OH       -12.6020   -8.4470   34.8750 O.3   166  TYR166     -0.2866
    128  N         -1.9230  -22.2100   35.0430 N.3   237  TYR237     -0.1241
    129  CA        -2.8150  -22.0370   33.8950 C.3   237  TYR237      0.1605
    130  C         -2.4410  -22.8620   32.6630 C.2   237  TYR237      0.2264
    131  O         -3.0140  -22.6670   31.5890 O.2   237  TYR237     -0.2867
    132  CB        -2.9580  -20.5470   33.5370 C.3   237  TYR237      0.0534
    133  CG        -3.8080  -19.7760   34.5250 C.ar  237  TYR237     -0.0201
    134  CD1       -5.1540  -19.5420   34.2750 C.ar  237  TYR237     -0.0009
    135  CD2       -3.2720  -19.3060   35.7190 C.ar  237  TYR237     -0.0009
    136  CE1       -5.9410  -18.8470   35.1770 C.ar  237  TYR237      0.0417
    137  CE2       -4.0540  -18.6110   36.6300 C.ar  237  TYR237      0.0417
    138  CZ        -5.3870  -18.3850   36.3510 C.ar  237  TYR237      0.1957
    139  OH        -6.1750  -17.6960   37.2460 O.3   237  TYR237     -0.2866
    140  N         -4.9690  -24.7900   30.4090 N.3   240  LEU240     -0.1245
    141  CA        -5.6820  -24.0860   29.3520 C.3   240  LEU240      0.1561
    142  C         -5.0050  -24.3110   28.0040 C.2   240  LEU240      0.2260
    143  O         -3.7780  -24.3000   27.9120 O.2   240  LEU240     -0.2867
    144  CB        -5.7590  -22.5870   29.6570 C.3   240  LEU240      0.0270
    145  CG        -6.6460  -22.1880   30.8370 C.3   240  LEU240      0.0019
    146  CD1       -6.5030  -20.7020   31.1380 C.3   240  LEU240      0.0001
    147  CD2       -8.0980  -22.5380   30.5450 C.3   240  LEU240      0.0001
    148  N         -6.3690  -20.2490   23.9360 N.3   244  ILE244     -0.1231
    149  CA        -6.9550  -19.4170   24.9760 C.3   244  ILE244      0.1692
    150  C         -5.8570  -18.6440   25.7070 C.2   244  ILE244      0.2591
    151  O         -5.9160  -17.4170   25.8310 O.2   244  ILE244     -0.2718
    152  CB        -7.7590  -20.2790   25.9590 C.3   244  ILE244      0.0266
    153  CG1       -9.0450  -20.7670   25.2890 C.3   244  ILE244      0.0019
    154  CG2       -8.0720  -19.5110   27.2240 C.3   244  ILE244      0.0020
    155  CD1       -9.9060  -21.6270   26.1780 C.3   244  ILE244      0.0001
    156  N         -4.8590  -19.3720   26.2010 N.am  245  MET245     -0.1979
    157  CA        -3.6350  -18.7790   26.7200 C.3   245  MET245      0.1605
    158  C         -2.4760  -19.4780   26.0270 C.2   245  MET245      0.2287
    159  O         -2.2460  -20.6580   26.2670 O.2   245  MET245     -0.2864
    160  CB        -3.4970  -19.0030   28.2310 C.3   245  MET245      0.0413
    161  CG        -4.3300  -18.1010   29.1300 C.3   245  MET245      0.0598
    162  SD        -3.5910  -17.9010   30.7830 S.3   245  MET245     -0.1393
    163  CE        -4.8880  -16.9450   31.5800 C.3   245  MET245      0.0692
    164  N          2.2980  -17.5860   31.9550 N.3   252  PHE252     -0.1241
    165  CA         1.4990  -16.8080   32.9000 C.3   252  PHE252      0.1605
    166  C          2.3650  -16.4080   34.0910 C.2   252  PHE252      0.2264
    167  O          2.3890  -15.2420   34.5020 O.2   252  PHE252     -0.2867
    168  CB         0.2780  -17.6130   33.3640 C.3   252  PHE252      0.0534
    169  CG        -0.6690  -16.8350   34.2380 C.ar  252  PHE252     -0.0203
    170  CD1       -1.7730  -16.2050   33.6920 C.ar  252  PHE252     -0.0042
    171  CD2       -0.4510  -16.7310   35.6040 C.ar  252  PHE252     -0.0042
    172  CE1       -2.6460  -15.4860   34.4900 C.ar  252  PHE252     -0.0003
    173  CE2       -1.3160  -16.0090   36.4050 C.ar  252  PHE252     -0.0003
    174  CZ        -2.4160  -15.3900   35.8470 C.ar  252  PHE252     -0.0000
@<TRIPOS>BOND
     1   115   112    1
     2   112   113    1
     3   112   111    1
     4   113   114    2
     5   148   149    1
     6   107   106    2
     7   111   106   am
     8   106   105    1
     9   149   150    1
    10   149   152    1
    11   153   152    1
    12   153   155    1
    13   104   105    1
    14   150   151    2
    15   150   156   am
    16   105   108    1
    17   152   154    1
    18   158   159    2
    19   158   157    1
    20   156   157    1
    21   157   160    1
    22    60    59    2
    23    96    95    2
    24   108   109    1
    25   108   110    1
    26    59    58    1
    27     3     2    1
    28     3     4    2
    29    95    94    1
    30    63    64    1
    31    63    62    1
    32     7     9   ar
    33     7     6   ar
    34     2     5    1
    35     2     1    1
    36    61    58    1
    37    61    62    1
    38    58    57    1
    39   143   142    2
    40   142   141    1
    41    64    65    1
    42     9    11   ar
    43   160   161    1
    44     5     6    1
    45    13    14    1
    46    93    94    1
    47     6     8   ar
    48    94    97    1
    49   161   162    1
    50   141   144    1
    51   141   140    1
    52    11    12    1
    53    11    10   ar
    54   144   145    1
    55    14    15    1
    56    14    17    1
    57     8    10   ar
    58    15    16    2
    59    66    67    1
    60    97    98    1
    61   100    98   ar
    62   100   102   ar
    63    20    22   ar
    64    20    18   ar
    65   147   145    1
    66    98    99   ar
    67    22    23   ar
    68   102   103   ar
    69   162   163    1
    70   145   146    1
    71    17    18    1
    72    18    19   ar
    73    99   101   ar
    74    69    68    2
    75   103   101   ar
    76    67    70    1
    77    67    68    1
    78    70    71    1
    79   131   130    2
    80    23    21   ar
    81   164   165    1
    82    19    21   ar
    83   116   117    1
    84   130   129    1
    85    56    55    1
    86    71    72    1
    87   165   168    1
    88   165   166    1
    89    73    72    1
    90    53    52    1
    91    53    54    2
    92   168   169    1
    93   132   129    1
    94   132   133    1
    95   170   169   ar
    96   170   172   ar
    97    52    55    1
    98    52    51    1
    99   129   128    1
   100   117   118    1
   101   117   120    1
   102    38    37    1
   103    38    39    1
   104   166   167    2
   105   125   123   ar
   106   125   126   ar
   107    36    37    1
   108    36    35    1
   109   123   121   ar
   110   118   119    2
   111   169   171   ar
   112   134   133   ar
   113   134   136   ar
   114   172   174   ar
   115   133   135   ar
   116   127   126    1
   117   126   124   ar
   118   121   120    1
   119   121   122   ar
   120    49    47   ar
   121    49    50   ar
   122    28    29    1
   123    28    25    1
   124    29    30    1
   125   136   138   ar
   126    35    32    1
   127    47    45   ar
   128    50    48   ar
   129   171   173   ar
   130   124   122   ar
   131   135   137   ar
   132   174   173   ar
   133   138   137   ar
   134   138   139    1
   135    30    24    1
   136    25    26    1
   137    25    24    1
   138    27    26    2
   139    26    31   am
   140    45    44    1
   141    45    46   ar
   142    90    92   ar
   143    90    88   ar
   144    32    31    1
   145    32    33    1
   146    48    46   ar
   147    92    91   ar
   148    44    41    1
   149    43    42    2
   150    82    81    1
   151    88    87    1
   152    88    89   ar
   153    87    84    1
   154    34    33    2
   155    91    89   ar
   156    81    80    1
   157    42    41    1
   158    41    40    1
   159    86    85    2
   160    84    85    1
   161    84    83    1
   162    80    79    1
   163    79    78    1
   164    77    76    2
   165    78    75    1
   166    76    75    1
   167    75    74    1
