@<TRIPOS>MOLECULE
tmp/4jvqA00.pdb
 164 158 0 0 0
SMALL
GASTEIGER

@<TRIPOS>ATOM
      1  N        -20.9470   66.8620   44.9460 N.3    32  ARG32      -0.1245
      2  CA       -20.4290   68.2200   44.8480 C.3    32  ARG32       0.1563
      3  C        -19.3500   68.4840   43.7940 C.2    32  ARG32       0.2260
      4  O        -19.2960   69.5760   43.2290 O.2    32  ARG32      -0.2867
      5  CB       -19.9040   68.6730   46.2140 C.3    32  ARG32       0.0307
      6  CG       -20.9720   69.1100   47.2110 C.3    32  ARG32       0.0489
      7  CD       -21.9430   67.9850   47.5680 C.3    32  ARG32       0.2205
      8  NE       -22.2170   67.9350   49.0060 N.pl3  32  ARG32      -0.0865
      9  CZ       -21.4060   67.3860   49.9090 C.cat  32  ARG32       0.5346
     10  NH1      -20.2630   66.8250   49.5330 N.pl3  32  ARG32       0.1354
     11  NH2      -21.7310   67.4090   51.1960 N.pl3  32  ARG32       0.1354
     12  N        -25.2560   48.3010   48.4120 N.3   416  LEU416     -0.1245
     13  CA       -25.1640   49.2960   49.4510 C.3   416  LEU416      0.1561
     14  C        -25.3210   50.6930   48.8510 C.2   416  LEU416      0.2260
     15  O        -26.0260   51.5390   49.4030 O.2   416  LEU416     -0.2867
     16  CB       -23.8080   49.1490   50.1450 C.3   416  LEU416      0.0270
     17  CG       -23.3090   50.2330   51.1010 C.3   416  LEU416      0.0019
     18  CD1      -24.2520   50.3450   52.2880 C.3   416  LEU416      0.0001
     19  CD2      -21.8880   49.8870   51.5630 C.3   416  LEU416      0.0001
     20  N        -29.0560   51.5340   47.1010 N.3   419  ARG419     -0.1231
     21  CA       -30.0780   51.7100   48.1210 C.3   419  ARG419      0.1694
     22  C        -29.8980   52.9970   48.9060 C.2   419  ARG419      0.2591
     23  O        -30.8430   53.7700   49.0780 O.2   419  ARG419     -0.2718
     24  CB       -30.0560   50.5280   49.0930 C.3   419  ARG419      0.0321
     25  CG       -30.2540   49.1670   48.4440 C.3   419  ARG419      0.0489
     26  CD       -30.0220   48.0450   49.4410 C.3   419  ARG419      0.2205
     27  NE       -31.0490   47.9910   50.4730 N.pl3 419  ARG419     -0.0865
     28  CZ       -30.9030   47.3750   51.6420 C.cat 419  ARG419      0.5346
     29  NH1      -29.7590   46.7670   51.9320 N.pl3 419  ARG419      0.1354
     30  NH2      -31.9100   47.3440   52.5080 N.pl3 419  ARG419      0.1354
     31  N        -28.6790   53.2190   49.3810 N.am  420  MET420     -0.1979
     32  CA       -28.3560   54.3990   50.1750 C.3   420  MET420      0.1605
     33  C        -28.5160   55.6970   49.4070 C.2   420  MET420      0.2287
     34  O        -29.0820   56.6720   49.9100 O.2   420  MET420     -0.2864
     35  CB       -26.9060   54.3180   50.6670 C.3   420  MET420      0.0413
     36  CG       -26.4440   55.5280   51.4620 C.3   420  MET420      0.0598
     37  SD       -24.6340   55.6950   51.6310 S.3   420  MET420     -0.1393
     38  CE       -24.1850   54.0410   52.1870 C.3   420  MET420      0.0692
     39  N        -30.5160   43.4500   53.2040 N.3   471  LEU471     -0.1231
     40  CA       -29.0740   43.2230   53.2460 C.3   471  LEU471      0.1693
     41  C        -28.3110   44.2230   54.1120 C.2   471  LEU471      0.2592
     42  O        -28.6360   45.4060   54.1530 O.2   471  LEU471     -0.2718
     43  CB       -28.4840   43.2130   51.8280 C.3   471  LEU471      0.0284
     44  CG       -28.9480   42.0720   50.9140 C.3   471  LEU471      0.0019
     45  CD1      -28.0900   42.0480   49.6430 C.3   471  LEU471      0.0001
     46  CD2      -28.8330   40.7400   51.6540 C.3   471  LEU471      0.0001
     47  N        -27.2990   43.7230   54.8120 N.am  472  HIS472     -0.1962
     48  CA       -26.4550   44.5430   55.6730 C.3   472  HIS472      0.1787
     49  C        -25.1560   43.7790   55.8960 C.2   472  HIS472      0.2621
     50  O        -25.0290   42.6330   55.4700 O.2   472  HIS472     -0.2715
     51  CB       -27.1550   44.8160   57.0050 C.3   472  HIS472      0.0785
     52  CG       -27.3960   43.5860   57.8150 C.ar  472  HIS472      0.0821
     53  ND1      -26.4630   43.0830   58.6970 N.ar  472  HIS472     -0.2267
     54  CD2      -28.4310   42.7130   57.8210 C.ar  472  HIS472      0.1154
     55  CE1      -26.9110   41.9500   59.2070 C.ar  472  HIS472      0.1986
     56  NE2      -28.1020   41.7020   58.6910 N.ar  472  HIS472     -0.2212
     57  N        -24.1920   44.4070   56.5570 N.am  473  SER473     -0.1936
     58  CA       -22.9030   43.7660   56.7900 C.3   473  SER473      0.2055
     59  C        -22.2590   43.4110   55.4600 C.2   473  SER473      0.2643
     60  O        -21.9870   42.2410   55.1840 O.2   473  SER473     -0.2714
     61  CB       -23.0620   42.4840   57.6190 C.3   473  SER473      0.2130
     62  OG       -23.4840   42.7780   58.9380 O.3   473  SER473     -0.2179
     63  N        -22.0280   44.4160   54.6290 N.am  474  TYR474     -0.1973
     64  CA       -21.4030   44.1790   53.3410 C.3   474  TYR474      0.1639
     65  C        -19.9370   43.8490   53.5630 C.2   474  TYR474      0.2290
     66  O        -19.4140   44.0310   54.6660 O.2   474  TYR474     -0.2864
     67  CB       -21.5550   45.4080   52.4530 C.3   474  TYR474      0.0560
     68  CG       -22.9810   45.6410   52.0140 C.ar  474  TYR474     -0.0198
     69  CD1      -23.8990   46.2550   52.8540 C.ar  474  TYR474     -0.0009
     70  CD2      -23.4120   45.2430   50.7530 C.ar  474  TYR474     -0.0009
     71  CE1      -25.2130   46.4770   52.4440 C.ar  474  TYR474      0.0417
     72  CE2      -24.7210   45.4570   50.3360 C.ar  474  TYR474      0.0417
     73  CZ       -25.6120   46.0760   51.1830 C.ar  474  TYR474      0.1957
     74  OH       -26.8960   46.3220   50.7520 O.3   474  TYR474     -0.2866
     75  N        -17.3110   47.7620   50.9020 N.3   479  ILE479     -0.1245
     76  CA       -17.4680   48.9800   51.6920 C.3   479  ILE479      0.1561
     77  C        -16.3520   49.9560   51.3680 C.2   479  ILE479      0.2260
     78  O        -16.5890   51.1540   51.1870 O.2   479  ILE479     -0.2867
     79  CB       -17.4640   48.6710   53.2080 C.3   479  ILE479      0.0252
     80  CG1      -18.7750   47.9870   53.6000 C.3   479  ILE479      0.0019
     81  CG2      -17.2930   49.9530   54.0220 C.3   479  ILE479      0.0019
     82  CD1      -18.7970   47.4940   55.0400 C.3   479  ILE479      0.0001
     83  N        -16.9910   51.6240   47.8950 N.3   482  VAL482     -0.1231
     84  CA       -18.0710   52.6030   47.8960 C.3   482  VAL482      0.1692
     85  C        -17.6430   53.8890   48.6000 C.2   482  VAL482      0.2591
     86  O        -17.8440   54.9870   48.0800 O.2   482  VAL482     -0.2718
     87  CB       -19.3410   52.0490   48.5830 C.3   482  VAL482      0.0266
     88  CG1      -20.3820   53.1530   48.7290 C.3   482  VAL482      0.0020
     89  CG2      -19.9120   50.8970   47.7610 C.3   482  VAL482      0.0020
     90  N        -17.0390   53.7450   49.7770 N.am  483  ALA483     -0.1980
     91  CA       -16.5930   54.8950   50.5510 C.3   483  ALA483      0.1597
     92  C        -15.6140   55.7500   49.7610 C.2   483  ALA483      0.2287
     93  O        -15.7460   56.9710   49.7190 O.2   483  ALA483     -0.2864
     94  CB       -15.9580   54.4340   51.8600 C.3   483  ALA483      0.0319
     95  N        -17.4580   57.6890   47.0840 N.3   486  LEU486     -0.1231
     96  CA       -18.2050   58.8340   47.5980 C.3   486  LEU486      0.1693
     97  C        -17.2760   59.9860   47.9760 C.2   486  LEU486      0.2591
     98  O        -17.5980   61.1440   47.7400 O.2   486  LEU486     -0.2718
     99  CB       -19.0670   58.4190   48.7970 C.3   486  LEU486      0.0284
    100  CG       -19.9890   57.2100   48.5740 C.3   486  LEU486      0.0019
    101  CD1      -21.0360   57.1520   49.6810 C.3   486  LEU486      0.0001
    102  CD2      -20.6680   57.3020   47.2160 C.3   486  LEU486      0.0001
    103  N        -16.1210   59.6700   48.5550 N.am  487  ARG487     -0.1980
    104  CA       -15.1730   60.7140   48.9330 C.3   487  ARG487      0.1597
    105  C        -14.6410   61.3980   47.6850 C.2   487  ARG487      0.2287
    106  O        -14.5450   62.6240   47.6250 O.2   487  ARG487     -0.2864
    107  CB       -14.0080   60.1320   49.7350 C.3   487  ARG487      0.0334
    108  CG       -14.3700   59.7510   51.1530 C.3   487  ARG487      0.0492
    109  CD       -13.2960   58.8620   51.7560 C.3   487  ARG487      0.2205
    110  NE       -13.5340   58.5760   53.1700 N.pl3 487  ARG487     -0.0865
    111  CZ       -13.5240   59.4980   54.1300 C.cat 487  ARG487      0.5346
    112  NH1      -13.2910   60.7700   53.8250 N.pl3 487  ARG487      0.1354
    113  NH2      -13.7350   59.1490   55.3950 N.pl3 487  ARG487      0.1354
    114  N        -17.3680   63.6180   45.9680 N.3   490  GLY490     -0.1210
    115  CA       -17.9720   64.6570   46.7810 C.3   490  GLY490      0.1956
    116  C        -19.4270   64.3420   47.1000 C.2   490  GLY490      0.2611
    117  O        -20.2750   65.2330   47.1470 O.2   490  GLY490     -0.2717
    118  N        -19.7200   63.0640   47.3090 N.am  491  VAL491     -0.1979
    119  CA       -21.0730   62.6360   47.6390 C.3   491  VAL491      0.1595
    120  C        -21.2530   62.6450   49.1540 C.2   491  VAL491      0.2287
    121  O        -20.3890   62.1710   49.8900 O.2   491  VAL491     -0.2864
    122  CB       -21.3600   61.2020   47.1200 C.3   491  VAL491      0.0276
    123  CG1      -22.6760   60.6980   47.6890 C.3   491  VAL491      0.0022
    124  CG2      -21.4200   61.1940   45.5930 C.3   491  VAL491      0.0022
    125  N        -22.0740   61.8910   53.0210 N.3   493  PRO493     -0.2102
    126  CA       -21.8480   60.6540   53.7840 C.3   493  PRO493      0.1504
    127  C        -23.1460   59.9290   54.1570 C.2   493  PRO493      0.2575
    128  O        -24.2380   60.5090   54.0990 O.2   493  PRO493     -0.2718
    129  CB       -21.0880   61.1420   55.0160 C.3   493  PRO493      0.0282
    130  CG       -21.6910   62.5120   55.2400 C.3   493  PRO493      0.0208
    131  CD       -21.7290   63.0760   53.8280 C.3   493  PRO493      0.0893
    132  N        -23.0200   58.6640   54.5440 N.am  494  LEU494     -0.1980
    133  CA       -24.1780   57.8630   54.9230 C.3   494  LEU494      0.1596
    134  C        -25.1580   58.5900   55.8500 C.2   494  LEU494      0.2287
    135  O        -26.3650   58.5730   55.6060 O.2   494  LEU494     -0.2864
    136  CB       -23.7280   56.5680   55.5890 C.3   494  LEU494      0.0297
    137  CG       -24.8560   55.8110   56.3040 C.3   494  LEU494      0.0022
    138  CD1      -25.9560   55.4190   55.3230 C.3   494  LEU494      0.0001
    139  CD2      -24.2770   54.5820   56.9810 C.3   494  LEU494      0.0001
    140  N        -29.1640   58.8060   55.3070 N.3   498  ARG498     -0.1245
    141  CA       -30.1160   58.1580   56.2020 C.3   498  ARG498      0.1563
    142  C        -31.1910   59.1830   56.5830 C.2   498  ARG498      0.2260
    143  O        -32.3960   58.8830   56.5840 O.2   498  ARG498     -0.2867
    144  CB       -29.3960   57.6350   57.4480 C.3   498  ARG498      0.0307
    145  CG       -30.2800   56.8600   58.4170 C.3   498  ARG498      0.0489
    146  CD       -29.4450   56.2230   59.5210 C.3   498  ARG498      0.2205
    147  NE       -28.5920   57.2030   60.1890 N.pl3 498  ARG498     -0.0865
    148  CZ       -27.2610   57.1590   60.1850 C.cat 498  ARG498      0.5346
    149  NH1      -26.6330   56.1770   59.5490 N.pl3 498  ARG498      0.1354
    150  NH2      -26.5540   58.0980   60.8090 N.pl3 498  ARG498      0.1354
    151  N        -34.1290   50.1400   55.6080 N.3   525  TRP525     -0.1241
    152  CA       -32.7820   50.2470   56.1510 C.3   525  TRP525      0.1605
    153  C        -32.5400   51.5430   56.9180 C.2   525  TRP525      0.2264
    154  O        -31.6570   51.6070   57.7680 O.2   525  TRP525     -0.2867
    155  CB       -31.7330   50.1560   55.0290 C.3   525  TRP525      0.0550
    156  CG       -31.8590   51.2450   54.0020 C.ar  525  TRP525      0.0003
    157  CD1      -32.6060   51.2100   52.8610 C.ar  525  TRP525      0.0946
    158  CD2      -31.2570   52.5470   54.0430 C.ar  525  TRP525      0.0152
    159  NE1      -32.5070   52.4020   52.1880 N.ar  525  TRP525     -0.2442
    160  CE2      -31.6840   53.2400   52.8930 C.ar  525  TRP525      0.0810
    161  CE3      -30.3950   53.1910   54.9350 C.ar  525  TRP525      0.0012
    162  CZ2      -31.2800   54.5460   52.6160 C.ar  525  TRP525      0.0191
    163  CZ3      -29.9950   54.4840   54.6570 C.ar  525  TRP525      0.0001
    164  CH2      -30.4340   55.1480   53.5100 C.ar  525  TRP525      0.0015
@<TRIPOS>BOND
     1     4     3    2
     2     3     2    1
     3     2     1    1
     4     2     5    1
     5   124   122    1
     6   114   115    1
     7     5     6    1
     8   115   116    1
     9    95    96    1
    10   116   117    2
    11   116   118   am
    12    20    21    1
    13   122   119    1
    14   122   123    1
    15     6     7    1
    16   102   100    1
    17   118   119    1
    18     7     8    1
    19    96    97    1
    20    96    99    1
    21   106   105    2
    22   119   120    1
    23   105   104    1
    24    98    97    2
    25    89    87    1
    26    83    84    1
    27    84    87    1
    28    84    85    1
    29    97   103   am
    30    86    85    2
    31    21    22    1
    32    21    24    1
    33    12    13    1
    34    25    24    1
    35    25    26    1
    36   103   104    1
    37   100    99    1
    38   100   101    1
    39    87    88    1
    40    85    90   am
    41    14    15    2
    42    14    13    1
    43    22    23    2
    44    22    31   am
    45   104   107    1
    46     8     9    2
    47   120   121    2
    48    31    32    1
    49    33    34    2
    50    33    32    1
    51    26    27    1
    52    13    16    1
    53    10     9    1
    54    45    44    1
    55    93    92    2
    56   107   108    1
    57    92    91    1
    58    90    91    1
    59     9    11    1
    60    16    17    1
    61    32    35    1
    62    72    70   ar
    63    72    73   ar
    64    27    28    2
    65    91    94    1
    66    35    36    1
    67    74    73    1
    68    70    68   ar
    69    75    76    1
    70    44    46    1
    71    44    43    1
    72    17    19    1
    73    17    18    1
    74   108   109    1
    75    73    71   ar
    76    78    77    2
    77    77    76    1
    78    36    37    1
    79    37    38    1
    80    28    29    1
    81    28    30    1
    82    76    79    1
    83   109   110    1
    84    43    40    1
    85    68    67    1
    86    68    69   ar
    87   159   157   ar
    88   159   160   ar
    89    71    69   ar
    90    67    64    1
    91   162   160   ar
    92   162   164   ar
    93   157   156   ar
    94   160   158   ar
    95   125   126    1
    96   125   131    1
    97   110   111    2
    98    39    40    1
    99    79    80    1
   100    79    81    1
   101    40    41    1
   102    64    65    1
   103    64    63    1
   104   164   163   ar
   105    65    66    2
   106    80    82    1
   107   126   127    1
   108   126   129    1
   109   112   111    1
   110   131   130    1
   111   156   158   ar
   112   156   155    1
   113   158   161   ar
   114   128   127    2
   115    41    42    2
   116    41    47   am
   117   111   113    1
   118   127   132   am
   119   132   133    1
   120    63    59   am
   121   163   161   ar
   122    47    48    1
   123   133   136    1
   124   133   134    1
   125   129   130    1
   126   155   152    1
   127    60    59    2
   128   140   141    1
   129   138   137    1
   130    59    58    1
   131    50    49    2
   132   136   137    1
   133   135   134    2
   134   151   152    1
   135    48    49    1
   136    48    51    1
   137    49    57   am
   138   152   153    1
   139   141   142    1
   140   141   144    1
   141   137   139    1
   142    57    58    1
   143   142   143    2
   144    58    61    1
   145   153   154    2
   146    51    52    1
   147   144   145    1
   148    61    62    1
   149    52    54   ar
   150    52    53   ar
   151    54    56   ar
   152   145   146    1
   153    56    55   ar
   154    53    55   ar
   155   146   147    1
   156   149   148    1
   157   148   147    2
   158   148   150    1
