@<TRIPOS>MOLECULE
tmp/4jvrB00.pdb
 169 162 0 0 0
SMALL
GASTEIGER

@<TRIPOS>ATOM
      1  N        -23.1560    5.9440  -52.8410 N.3     7  GLN7       -0.1245
      2  CA       -23.7210    6.1830  -51.5220 C.3     7  GLN7        0.1566
      3  C        -22.7770    5.8490  -50.3820 C.2     7  GLN7        0.2260
      4  O        -22.9960    6.2650  -49.2460 O.2     7  GLN7       -0.2867
      5  CB       -25.0250    5.4010  -51.3740 C.3     7  GLN7        0.0367
      6  CG       -26.2210    6.1330  -51.9690 C.3     7  GLN7        0.0905
      7  CD       -27.4860    5.8750  -51.1870 C.2     7  GLN7        0.2608
      8  OE1      -28.4760    6.5660  -51.3560 O.2     7  GLN7       -0.2717
      9  NE2      -27.4610    4.8650  -50.3290 N.am    7  GLN7       -0.0878
     10  N        -27.5810   12.5110  -48.1210 N.3    37  LEU37      -0.1231
     11  CA       -28.8300   12.5400  -48.8690 C.3    37  LEU37       0.1693
     12  C        -30.0350   12.4310  -47.9460 C.2    37  LEU37       0.2592
     13  O        -31.0550   13.0770  -48.1810 O.2    37  LEU37      -0.2718
     14  CB       -28.8550   11.4100  -49.8910 C.3    37  LEU37       0.0284
     15  CG       -27.8140   11.6120  -50.9950 C.3    37  LEU37       0.0019
     16  CD1      -27.5710   10.2980  -51.7560 C.3    37  LEU37       0.0001
     17  CD2      -28.2970   12.7140  -51.9210 C.3    37  LEU37       0.0001
     18  N        -29.9220   11.6130  -46.8990 N.am   38  PHE38      -0.1976
     19  CA       -31.0280   11.4620  -45.9580 C.3    38  PHE38       0.1639
     20  C        -31.2750   12.7470  -45.1730 C.2    38  PHE38       0.2290
     21  O        -32.4130   13.2210  -45.0810 O.2    38  PHE38      -0.2864
     22  CB       -30.7580   10.3290  -44.9560 C.3    38  PHE38       0.0560
     23  CG       -31.7330   10.2990  -43.8120 C.ar   38  PHE38      -0.0200
     24  CD1      -32.9810    9.6970  -43.9520 C.ar   38  PHE38      -0.0042
     25  CD2      -31.4300   10.9310  -42.6130 C.ar   38  PHE38      -0.0042
     26  CE1      -33.9150    9.7370  -42.9150 C.ar   38  PHE38      -0.0003
     27  CE2      -32.3610   10.9720  -41.5770 C.ar   38  PHE38      -0.0003
     28  CZ       -33.6040   10.3710  -41.7360 C.ar   38  PHE38      -0.0000
     29  N        -30.3850   15.8460  -45.8570 N.3    40  LEU40      -0.1231
     30  CA       -30.8560   16.9430  -46.7100 C.3    40  LEU40       0.1693
     31  C        -32.3280   16.7470  -47.0420 C.2    40  LEU40       0.2592
     32  O        -33.1060   17.7050  -47.0500 O.2    40  LEU40      -0.2718
     33  CB       -30.0600   17.0090  -48.0210 C.3    40  LEU40       0.0284
     34  CG       -28.6800   17.6570  -47.9580 C.3    40  LEU40       0.0019
     35  CD1      -27.9710   17.4210  -49.2730 C.3    40  LEU40       0.0001
     36  CD2      -28.7960   19.1560  -47.6800 C.3    40  LEU40       0.0001
     37  N        -32.6910   15.4980  -47.3290 N.am   41  GLY41      -0.1957
     38  CA       -34.0670   15.1650  -47.6440 C.3    41  GLY41       0.1869
     39  C        -34.9860   15.5670  -46.5050 C.2    41  GLY41       0.2309
     40  O        -36.0750   16.1230  -46.7350 O.2    41  GLY41      -0.2863
     41  N        -35.3750   19.1720  -46.6270 N.3    44  ILE44      -0.1231
     42  CA       -36.3060   19.5130  -47.6860 C.3    44  ILE44       0.1693
     43  C        -37.7780   19.2980  -47.3360 C.2    44  ILE44       0.2594
     44  O        -38.5610   20.2450  -47.4110 O.2    44  ILE44      -0.2718
     45  CB       -35.9850   18.7400  -48.9870 C.3    44  ILE44       0.0266
     46  CG1      -34.6190   19.1800  -49.5270 C.3    44  ILE44       0.0019
     47  CG2      -37.0650   18.9690  -50.0050 C.3    44  ILE44       0.0020
     48  CD1      -34.1680   18.4320  -50.7550 C.3    44  ILE44       0.0001
     49  N        -38.1920   18.0930  -46.9570 N.am   45  MET45      -0.1934
     50  CA       -39.6070   17.9580  -46.6600 C.3    45  MET45       0.1821
     51  C        -39.9770   18.5100  -45.3000 C.2    45  MET45       0.2332
     52  O        -41.1170   18.8870  -45.1060 O.2    45  MET45      -0.2860
     53  CB       -40.1140   16.5150  -46.8870 C.2    45  MET45       0.0096
     54  CG       -39.2280   15.3700  -46.3800 C.2    45  MET45       0.0285
     55  SD       -39.9170   13.5790  -46.6170 S.3    45  MET45      -0.1125
     56  CE       -38.4860   12.7290  -47.4690 C.3    45  MET45       0.0742
     57  N        -40.7450   20.8740  -50.8060 N.3    50  TYR50      -0.1241
     58  CA       -41.1630   19.8140  -51.7150 C.3    50  TYR50       0.1605
     59  C        -42.5710   19.2740  -51.4670 C.2    50  TYR50       0.2264
     60  O        -42.9770   19.1330  -50.3050 O.2    50  TYR50      -0.2867
     61  CB       -40.1980   18.6470  -51.5880 C.3    50  TYR50       0.0534
     62  CG       -40.4830   17.5280  -52.5430 C.ar   50  TYR50      -0.0201
     63  CD1      -40.0300   17.5820  -53.8540 C.ar   50  TYR50      -0.0009
     64  CD2      -41.2100   16.4090  -52.1390 C.ar   50  TYR50      -0.0009
     65  CE1      -40.2830   16.5470  -54.7470 C.ar   50  TYR50       0.0417
     66  CE2      -41.4710   15.3710  -53.0180 C.ar   50  TYR50       0.0417
     67  CZ       -41.0070   15.4440  -54.3190 C.ar   50  TYR50       0.1957
     68  OH       -41.2660   14.4070  -55.1790 O.3    50  TYR50      -0.2866
     69  N        -42.1950   17.2110  -59.8300 N.3    52  HIS52      -0.1241
     70  CA       -41.4160   17.1560  -58.5790 C.3    52  HIS52       0.1621
     71  C        -40.2470   18.1200  -58.6260 C.2    52  HIS52       0.2264
     72  O        -39.2140   17.8740  -59.2600 O.2    52  HIS52      -0.2867
     73  CB       -40.8810   15.7520  -58.3200 C.3    52  HIS52       0.0745
     74  CG       -41.9380   14.7050  -58.2800 C.ar   52  HIS52       0.0817
     75  ND1      -42.8610   14.6050  -57.2560 N.ar   52  HIS52      -0.2268
     76  CD2      -42.2910   13.7540  -59.1850 C.ar   52  HIS52       0.1154
     77  CE1      -43.7290   13.6500  -57.5370 C.ar   52  HIS52       0.1986
     78  NE2      -43.3970   13.1210  -58.7120 N.ar   52  HIS52      -0.2212
     79  N        -38.0600   21.0890  -56.1500 N.3    54  VAL54      -0.1245
     80  CA       -37.7400   21.5630  -54.8310 C.3    54  VAL54       0.1561
     81  C        -37.4720   23.0450  -55.0300 C.2    54  VAL54       0.2260
     82  O        -36.6590   23.4170  -55.8730 O.2    54  VAL54      -0.2867
     83  CB       -36.4740   20.8780  -54.2870 C.3    54  VAL54       0.0252
     84  CG1      -35.9900   21.6020  -53.0620 C.3    54  VAL54       0.0019
     85  CG2      -36.7720   19.4210  -53.9630 C.3    54  VAL54       0.0019
     86  N        -30.6560   26.4950  -48.6200 N.3    61  LEU61      -0.1245
     87  CA       -30.3360   25.4050  -49.5540 C.3    61  LEU61       0.1561
     88  C        -30.0620   26.0760  -50.9090 C.2    61  LEU61       0.2260
     89  O        -29.0770   25.7720  -51.5830 O.2    61  LEU61      -0.2867
     90  CB       -31.5130   24.4340  -49.6850 C.3    61  LEU61       0.0270
     91  CG       -31.3600   23.1760  -50.5390 C.3    61  LEU61       0.0019
     92  CD1      -30.0790   22.4480  -50.1690 C.3    61  LEU61       0.0001
     93  CD2      -32.5740   22.2790  -50.3250 C.3    61  LEU61       0.0001
     94  N        -26.8480   25.5770  -53.1420 N.3    65  PHE65      -0.1241
     95  CA       -26.8610   24.9800  -54.4620 C.3    65  PHE65       0.1605
     96  C        -26.6520   25.9580  -55.6090 C.2    65  PHE65       0.2264
     97  O        -26.1730   25.5700  -56.6710 O.2    65  PHE65      -0.2867
     98  CB       -28.1570   24.2040  -54.6540 C.3    65  PHE65       0.0534
     99  CG       -28.1430   22.8350  -54.0210 C.ar   65  PHE65      -0.0203
    100  CD1      -27.0810   22.4280  -53.2210 C.ar   65  PHE65      -0.0042
    101  CD2      -29.1900   21.9460  -54.2410 C.ar   65  PHE65      -0.0042
    102  CE1      -27.0660   21.1570  -52.6480 C.ar   65  PHE65      -0.0003
    103  CE2      -29.1860   20.6780  -53.6720 C.ar   65  PHE65      -0.0003
    104  CZ       -28.1130   20.2820  -52.8720 C.ar   65  PHE65      -0.0000
    105  N        -34.9660   23.0790  -58.4200 N.3    70  PHE70      -0.1241
    106  CA       -34.3760   21.9610  -59.1600 C.3    70  PHE70       0.1605
    107  C        -35.2570   20.7260  -59.1210 C.2    70  PHE70       0.2264
    108  O        -36.0500   20.5510  -58.1940 O.2    70  PHE70      -0.2867
    109  CB       -32.9760   21.6210  -58.6240 C.3    70  PHE70       0.0534
    110  CG       -32.9620   21.0870  -57.2100 C.ar   70  PHE70      -0.0203
    111  CD1      -33.2150   19.7420  -56.9490 C.ar   70  PHE70      -0.0042
    112  CD2      -32.6740   21.9340  -56.1480 C.ar   70  PHE70      -0.0042
    113  CE1      -33.1930   19.2510  -55.6430 C.ar   70  PHE70      -0.0003
    114  CE2      -32.6500   21.4580  -54.8350 C.ar   70  PHE70      -0.0003
    115  CZ       -32.9050   20.1050  -54.5850 C.ar   70  PHE70      -0.0000
    116  N        -36.0150   16.8780  -58.5400 N.3    72  VAL72      -0.1231
    117  CA       -35.5860   15.7940  -57.6730 C.3    72  VAL72       0.1692
    118  C        -35.2210   14.5850  -58.5550 C.2    72  VAL72       0.2591
    119  O        -34.6290   13.6070  -58.0880 O.2    72  VAL72      -0.2718
    120  CB       -36.7230   15.4040  -56.6830 C.3    72  VAL72       0.0266
    121  CG1      -37.8490   14.7180  -57.4180 C.3    72  VAL72       0.0020
    122  CG2      -36.1660   14.5020  -55.6010 C.3    72  VAL72       0.0020
    123  N        -35.5560   14.6710  -59.8440 N.am   73  LYS73      -0.1980
    124  CA       -35.2890   13.5900  -60.8080 C.3    73  LYS73       0.1596
    125  C        -33.8650   13.6300  -61.3530 C.2    73  LYS73       0.2287
    126  O        -33.3170   12.5980  -61.7430 O.2    73  LYS73      -0.2864
    127  CB       -36.2610   13.6830  -61.9920 C.3    73  LYS73       0.0298
    128  CG       -37.7100   13.9920  -61.6100 C.3    73  LYS73       0.0038
    129  CD       -38.5730   14.1630  -62.8600 C.3    73  LYS73       0.0206
    130  CE       -40.0300   14.3510  -62.5040 C.3    73  LYS73       0.1093
    131  NZ       -40.8660   14.6340  -63.7140 N.3    73  LYS73      -0.1314
    132  N        -30.6450   13.4300  -60.5910 N.3    75  HIS75      -0.1241
    133  CA       -29.6680   13.0230  -59.5770 C.3    75  HIS75       0.1621
    134  C        -28.2080   13.3790  -59.8450 C.2    75  HIS75       0.2264
    135  O        -27.4960   13.7750  -58.9180 O.2    75  HIS75      -0.2867
    136  CB       -29.7950   11.5300  -59.2900 C.3    75  HIS75       0.0745
    137  CG       -31.0820   11.1370  -58.6580 C.ar   75  HIS75       0.0817
    138  ND1      -31.2730    9.9470  -58.0080 N.ar   75  HIS75      -0.2268
    139  CD2      -32.2800   11.8010  -58.5710 C.ar   75  HIS75       0.1154
    140  CE1      -32.5110    9.8710  -57.5450 C.ar   75  HIS75       0.1986
    141  NE2      -33.1320   10.9940  -57.8840 N.ar   75  HIS75      -0.2212
    142  N        -27.8650   16.8610  -58.9430 N.3    78  ILE78      -0.1231
    143  CA       -27.9650   17.0260  -57.4980 C.3    78  ILE78       0.1692
    144  C        -26.6240   16.6670  -56.8550 C.2    78  ILE78       0.2592
    145  O        -26.1160   17.3930  -56.0010 O.2    78  ILE78      -0.2718
    146  CB       -29.1030   16.1460  -56.9280 C.3    78  ILE78       0.0266
    147  CG1      -30.4550   16.6710  -57.4430 C.3    78  ILE78       0.0019
    148  CG2      -29.0620   16.1390  -55.4040 C.3    78  ILE78       0.0020
    149  CD1      -31.6520   15.8020  -57.1120 C.3    78  ILE78       0.0001
    150  N        -26.0450   15.5480  -57.2730 N.am   79  TYR79      -0.1976
    151  CA       -24.7500   15.1460  -56.7290 C.3    79  TYR79       0.1639
    152  C        -23.7000   16.2160  -56.9650 C.2    79  TYR79       0.2290
    153  O        -22.8750   16.5030  -56.1010 O.2    79  TYR79      -0.2864
    154  CB       -24.2830   13.8360  -57.3550 C.3    79  TYR79       0.0560
    155  CG       -24.8170   12.6380  -56.6310 C.ar   79  TYR79      -0.0198
    156  CD1      -24.4810   12.4110  -55.3000 C.ar   79  TYR79      -0.0009
    157  CD2      -25.6810   11.7400  -57.2550 C.ar   79  TYR79      -0.0009
    158  CE1      -24.9990   11.3250  -54.6070 C.ar   79  TYR79       0.0417
    159  CE2      -26.1980   10.6480  -56.5670 C.ar   79  TYR79       0.0417
    160  CZ       -25.8500   10.4490  -55.2490 C.ar   79  TYR79       0.1957
    161  OH       -26.3580    9.3550  -54.5990 O.3    79  TYR79      -0.2866
    162  N        -24.1320   19.0480  -54.5440 N.3    82  ILE82      -0.1245
    163  CA       -23.7280   18.6970  -53.1800 C.3    82  ILE82       0.1561
    164  C        -22.2110   18.6670  -53.0200 C.2    82  ILE82       0.2260
    165  O        -21.6660   19.1490  -52.0230 O.2    82  ILE82      -0.2867
    166  CB       -24.3100   17.3330  -52.7630 C.3    82  ILE82       0.0252
    167  CG1      -25.8330   17.4440  -52.6700 C.3    82  ILE82       0.0019
    168  CG2      -23.6940   16.8730  -51.4390 C.3    82  ILE82       0.0019
    169  CD1      -26.5270   16.1650  -52.2330 C.3    82  ILE82       0.0001
@<TRIPOS>BOND
     1   131   130    1
     2   129   130    1
     3   129   128    1
     4   127   128    1
     5   127   124    1
     6   126   125    2
     7   125   124    1
     8   124   123    1
     9   132   133    1
    10   134   133    1
    11   134   135    2
    12   123   118   am
    13    69    70    1
    14   133   136    1
    15   136   137    1
    16    72    71    2
    17    76    78   ar
    18    76    74   ar
    19   106   107    1
    20   106   109    1
    21   106   105    1
    22   107   108    2
    23   142   143    1
    24    78    77   ar
    25   137   139   ar
    26   137   138   ar
    27    71    70    1
    28   109   110    1
    29    70    73    1
    30   139   141   ar
    31   118   119    2
    32   118   117    1
    33   116   117    1
    34    73    74    1
    35    74    75   ar
    36   138   140   ar
    37   141   140   ar
    38   117   120    1
    39    77    75   ar
    40   143   146    1
    41   143   144    1
    42   147   149    1
    43   147   146    1
    44   121   120    1
    45   154   151    1
    46   154   155    1
    47   150   144   am
    48   150   151    1
    49   157   155   ar
    50   157   159   ar
    51   110   111   ar
    52   110   112   ar
    53   152   151    1
    54   152   153    2
    55   111   113   ar
    56   146   148    1
    57   144   145    2
    58   120   122    1
    59    97    96    2
    60   155   156   ar
    61   159   160   ar
    62    79    80    1
    63   112   114   ar
    64    82    81    2
    65   113   115   ar
    66    96    95    1
    67   156   158   ar
    68   160   158   ar
    69   160   161    1
    70    68    67    1
    71    81    80    1
    72   114   115   ar
    73    80    83    1
    74    65    67   ar
    75    65    63   ar
    76    98    95    1
    77    98    99    1
    78   162   163    1
    79    95    94    1
    80    67    66   ar
    81    83    85    1
    82    83    84    1
    83   101    99   ar
    84   101   103   ar
    85    99   100   ar
    86    63    62   ar
    87   103   104   ar
    88   100   102   ar
    89   163   164    1
    90   163   166    1
    91   164   165    2
    92    66    64   ar
    93   104   102   ar
    94     1     2    1
    95   166   167    1
    96   166   168    1
    97   167   169    1
    98    62    64   ar
    99    62    61    1
   100     6     5    1
   101     6     7    1
   102    17    15    1
   103    16    15    1
   104    58    61    1
   105    58    59    1
   106    58    57    1
   107    89    88    2
   108     2     5    1
   109     2     3    1
   110    59    60    2
   111     8     7    2
   112     7     9   am
   113    15    14    1
   114    88    87    1
   115    48    46    1
   116    91    93    1
   117    91    92    1
   118    91    90    1
   119     3     4    2
   120    47    45    1
   121    14    11    1
   122    90    87    1
   123    87    86    1
   124    46    45    1
   125    35    34    1
   126    45    42    1
   127    11    10    1
   128    11    12    1
   129    13    12    2
   130    33    34    1
   131    33    30    1
   132    34    36    1
   133    12    18   am
   134    42    43    1
   135    42    41    1
   136    38    37    1
   137    38    39    1
   138    56    55    1
   139    44    43    2
   140    43    49   am
   141    37    31   am
   142    32    31    2
   143    31    30    1
   144    49    50    1
   145    18    19    1
   146    53    50    1
   147    53    54    2
   148    40    39    2
   149    30    29    1
   150    50    51    1
   151    55    54    1
   152    19    20    1
   153    19    22    1
   154    51    52    2
   155    20    21    2
   156    22    23    1
   157    24    23   ar
   158    24    26   ar
   159    23    25   ar
   160    26    28   ar
   161    25    27   ar
   162    28    27   ar
