@<TRIPOS>MOLECULE
tmp/4jvtA00.pdb
 138 133 0 0 0
SMALL
GASTEIGER

@<TRIPOS>ATOM
      1  N          6.7300    2.9700   46.4840 N.3    31  PRO31      -0.2102
      2  CA         5.8000    2.9070   45.3510 C.3    31  PRO31       0.1504
      3  C          4.3970    3.2430   45.7590 C.2    31  PRO31       0.2576
      4  O          3.6290    3.7630   44.9110 O.2    31  PRO31      -0.2718
      5  CB         5.9190    1.5040   44.8290 C.3    31  PRO31       0.0282
      6  CG         6.4170    0.7280   46.0150 C.3    31  PRO31       0.0208
      7  CD         7.3240    1.6600   46.7600 C.3    31  PRO31       0.0893
      8  N          4.0210    3.0050   47.0180 N.am   32  HIS32      -0.1962
      9  CA         2.7240    3.3650   47.5200 C.3    32  HIS32       0.1787
     10  C          2.4100    4.8620   47.5030 C.2    32  HIS32       0.2620
     11  O          1.2290    5.2610   47.5190 O.2    32  HIS32      -0.2715
     12  CB         2.4950    2.7970   48.9720 C.3    32  HIS32       0.0785
     13  CG         3.4310    3.3820   49.9940 C.ar   32  HIS32       0.0821
     14  ND1        4.8340    3.2860   49.8860 N.ar   32  HIS32      -0.2267
     15  CD2        3.1780    4.1020   51.1190 C.ar   32  HIS32       0.1154
     16  CE1        5.3760    3.9350   50.9030 C.ar   32  HIS32       0.1986
     17  NE2        4.4020    4.4280   51.6670 N.ar   32  HIS32      -0.2212
     18  N          3.4710    5.6700   47.4880 N.am   33  ARG33      -0.1963
     19  CA         3.3690    7.1140   47.3760 C.3    33  ARG33       0.1729
     20  C          3.9930    7.5720   46.0810 C.2    33  ARG33       0.2616
     21  O          4.3000    8.7400   45.9260 O.2    33  ARG33      -0.2715
     22  CB         4.0390    7.7860   48.5750 C.3    33  ARG33       0.0348
     23  CG         3.2000    7.5040   49.8050 C.3    33  ARG33       0.0492
     24  CD         3.7150    8.3130   50.9730 C.3    33  ARG33       0.2205
     25  NE         3.2530    9.7100   51.0990 N.pl3  33  ARG33      -0.0865
     26  CZ         2.0660   10.1080   51.5470 C.cat  33  ARG33       0.5346
     27  NH1        1.1240    9.2080   51.8180 N.pl3  33  ARG33       0.1354
     28  NH2        1.8070   11.4190   51.7150 N.pl3  33  ARG33       0.1354
     29  N          4.1260    6.6550   45.1120 N.am   34  ARG34      -0.1977
     30  CA         4.7490    7.0200   43.8150 C.3    34  ARG34       0.1597
     31  C          6.1190    7.6190   43.9950 C.2    34  ARG34       0.2287
     32  O          6.4840    8.5180   43.2180 O.2    34  ARG34      -0.2864
     33  CB         3.8020    7.8270   42.9430 C.3    34  ARG34       0.0334
     34  CG         2.5280    7.1010   42.5330 C.3    34  ARG34       0.0492
     35  CD         2.8080    5.7370   41.8230 C.3    34  ARG34       0.2205
     36  NE         1.5730    5.0210   41.4350 N.pl3  34  ARG34      -0.0865
     37  CZ         0.8180    5.3280   40.3310 C.cat  34  ARG34       0.5346
     38  NH1        1.2560    6.2260   39.4530 N.pl3  34  ARG34       0.1354
     39  NH2       -0.3430    4.8050   40.0770 N.pl3  34  ARG34       0.1354
     40  N          7.3230    9.6030   46.1000 N.3    36  ALA36      -0.1245
     41  CA         7.4230   10.9970   46.5360 C.3    36  ALA36       0.1562
     42  C          8.6170   11.1190   47.4980 C.2    36  ALA36       0.2260
     43  O          8.9530   10.2070   48.2900 O.2    36  ALA36      -0.2867
     44  CB         6.1490   11.3590   47.2150 C.3    36  ALA36       0.0290
     45  N          6.2620    4.5590   38.4750 N.3    65  THR65      -0.1218
     46  CA         6.5480    6.0090   38.5120 C.3    65  THR65       0.1862
     47  C          7.9200    6.2230   39.1530 C.2    65  THR65       0.2287
     48  O          8.1660    5.7570   40.2980 O.2    65  THR65      -0.2866
     49  CB         5.4650    6.6930   39.4540 C.3    65  THR65       0.1770
     50  OG1        4.1470    6.5450   38.9410 O.3    65  THR65      -0.2211
     51  CG2        5.8290    8.1980   39.5940 C.3    65  THR65       0.0375
     52  N          7.0330   11.1440   41.9680 N.3    68  SER68      -0.1202
     53  CA         6.0590   12.1730   41.9110 C.3    68  SER68       0.2020
     54  C          6.5110   13.4940   42.5360 C.2    68  SER68       0.2619
     55  O          5.7200   14.4220   42.6270 O.2    68  SER68      -0.2717
     56  CB         4.7810   11.7060   42.5950 C.3    68  SER68       0.2103
     57  OG         5.0640   11.3730   43.9360 O.3    68  SER68      -0.2182
     58  N          7.7490   13.6060   42.8830 N.am   69  GLY69      -0.1942
     59  CA         8.3050   14.8380   43.4190 C.3    69  GLY69       0.2014
     60  C          8.1780   14.8940   44.9350 C.2    69  GLY69       0.2639
     61  O          8.0780   13.8750   45.6080 O.2    69  GLY69      -0.2714
     62  N          8.1580   16.0840   45.4790 N.am   70  ILE70      -0.1963
     63  CA         8.1600   16.2490   46.9320 C.3    70  ILE70       0.1727
     64  C          6.8660   15.6450   47.5150 C.2    70  ILE70       0.2616
     65  O          5.7680   15.8450   46.9640 O.2    70  ILE70      -0.2715
     66  CB         8.3720   17.7180   47.3380 C.3    70  ILE70       0.0290
     67  CG1        8.5710   17.8240   48.8550 C.3    70  ILE70       0.0022
     68  CG2        7.2040   18.5920   46.8910 C.3    70  ILE70       0.0023
     69  CD1        8.9430   19.2210   49.3420 C.3    70  ILE70       0.0001
     70  N          7.0090   14.9290   48.6290 N.am   71  ASP71      -0.1957
     71  CA         5.7960   14.4610   49.3170 C.3    71  ASP71       0.1840
     72  C          5.0320   15.6750   49.8290 C.2    71  ASP71       0.2621
     73  O          5.5590   16.5240   50.4840 O.2    71  ASP71      -0.2715
     74  CB         6.2580   13.5440   50.4080 C.3    71  ASP71       0.1450
     75  CG         5.1260   12.7200   51.0360 C.2    71  ASP71       0.3671
     76  OD1        4.1450   13.2930   51.4360 O.co2  71  ASP71      -0.2456
     77  OD2        5.2600   11.4570   51.0490 O.co2  71  ASP71      -0.2456
     78  N          3.7510   15.7010   49.5260 N.am   72  LEU72      -0.1977
     79  CA         2.9490   16.8840   49.8970 C.3    72  LEU72       0.1596
     80  C          2.8350   17.0670   51.4160 C.2    72  LEU72       0.2287
     81  O          2.6050   18.1730   51.9030 O.2    72  LEU72      -0.2864
     82  CB         1.5660   16.7910   49.3000 C.3    72  LEU72       0.0297
     83  CG         1.5510   17.2000   47.7950 C.3    72  LEU72       0.0022
     84  CD1        0.0980   17.3590   47.3980 C.3    72  LEU72       0.0001
     85  CD2        2.2980   18.5280   47.4780 C.3    72  LEU72       0.0001
     86  N          6.2000    9.0140   35.4990 N.3   118  HIS118     -0.1241
     87  CA         6.4090   10.4110   35.8040 C.3   118  HIS118      0.1621
     88  C          7.6540   10.6250   36.6110 C.2   118  HIS118      0.2264
     89  O          7.9510    9.8620   37.5490 O.2   118  HIS118     -0.2867
     90  CB         5.2420   10.9910   36.5580 C.3   118  HIS118      0.0745
     91  CG         4.0820   11.3530   35.7010 C.ar  118  HIS118      0.0817
     92  ND1        3.2670   10.4290   35.1130 N.ar  118  HIS118     -0.2268
     93  CD2        3.6430   12.5530   35.2580 C.ar  118  HIS118      0.1154
     94  CE1        2.2950   11.0440   34.4220 C.ar  118  HIS118      0.1986
     95  NE2        2.5270   12.3510   34.4820 N.ar  118  HIS118     -0.2212
     96  N          8.5710   14.1330   38.2830 N.3   120  ILE120     -0.1231
     97  CA         7.9540   15.4410   38.5220 C.3   120  ILE120      0.1692
     98  C          8.7670   16.2300   39.5270 C.2   120  ILE120      0.2593
     99  O          9.0720   15.6950   40.6200 O.2   120  ILE120     -0.2718
    100  CB         6.5160   15.2840   39.0690 C.3   120  ILE120      0.0266
    101  CG1        5.6420   14.5200   38.0520 C.3   120  ILE120      0.0019
    102  CG2        5.8970   16.6240   39.3770 C.3   120  ILE120      0.0020
    103  CD1        4.3320   14.1180   38.5780 C.3   120  ILE120      0.0001
    104  N          9.0840   17.5060   39.2420 N.am  121  GLY121     -0.1942
    105  CA         9.6280   18.4170   40.2260 C.3   121  GLY121      0.2014
    106  C         10.9490   17.9200   40.7290 C.2   121  GLY121      0.2638
    107  O         11.9010   17.7160   39.9780 O.2   121  GLY121     -0.2714
    108  N         10.9890   17.6770   42.0480 N.am  122  ALA122     -0.1977
    109  CA        12.2240   17.0830   42.6300 C.3   122  ALA122      0.1597
    110  C         12.6960   15.8290   41.9470 C.2   122  ALA122      0.2287
    111  O         13.8650   15.5630   41.8040 O.2   122  ALA122     -0.2864
    112  CB        12.0860   16.8460   44.1290 C.3   122  ALA122      0.0319
    113  N          7.4790   21.0070   37.8260 N.3   143  LYS143     -0.1231
    114  CA         6.2470   21.4600   38.3930 C.3   143  LYS143      0.1693
    115  C          6.3490   22.6410   39.3600 C.2   143  LYS143      0.2591
    116  O          5.3370   23.2850   39.6180 O.2   143  LYS143     -0.2718
    117  CB         5.5590   20.2810   39.1340 C.3   143  LYS143      0.0285
    118  CG         4.1920   20.4840   39.6840 C.3   143  LYS143      0.0035
    119  CD         3.2200   20.5970   38.5690 C.3   143  LYS143      0.0206
    120  CE         1.7560   20.7080   39.0300 C.3   143  LYS143      0.1093
    121  NZ         0.7770   20.9370   37.9190 N.3   143  LYS143     -0.1314
    122  N          7.5370   22.8610   39.9180 N.am  144  GLU144     -0.1979
    123  CA         7.6380   23.7810   41.0390 C.3   144  GLU144      0.1602
    124  C          6.9630   25.1480   40.8070 C.2   144  GLU144      0.2287
    125  O          6.2300   25.6230   41.6770 O.2   144  GLU144     -0.2864
    126  CB         9.1010   24.0020   41.3740 C.3   144  GLU144      0.0415
    127  CG         9.7380   22.7470   41.9930 C.3   144  GLU144      0.1163
    128  CD        10.2410   21.7220   41.0360 C.2   144  GLU144      0.3649
    129  OE1        9.9750   21.7690   39.8010 O.co2 144  GLU144     -0.2457
    130  OE2       10.9590   20.8240   41.5650 O.co2 144  GLU144     -0.2457
    131  N          3.3740   25.4710   41.6570 N.3   147  LEU147     -0.1245
    132  CA         3.1400   25.4840   43.0990 C.3   147  LEU147      0.1561
    133  C          3.5660   26.7710   43.7800 C.2   147  LEU147      0.2260
    134  O          3.3810   26.9410   44.9920 O.2   147  LEU147     -0.2867
    135  CB         3.8850   24.3450   43.7440 C.3   147  LEU147      0.0270
    136  CG         3.6570   22.9590   43.1150 C.3   147  LEU147      0.0019
    137  CD1        4.4770   21.9340   43.8720 C.3   147  LEU147      0.0001
    138  CD2        2.2070   22.5920   43.0570 C.3   147  LEU147      0.0001
@<TRIPOS>BOND
     1    94    95   ar
     2    94    92   ar
     3    95    93   ar
     4    92    91   ar
     5    93    91   ar
     6    86    87    1
     7    91    90    1
     8    87    90    1
     9    87    88    1
    10    88    89    2
    11   113   114    1
    12   121   120    1
    13   101   103    1
    14   101   100    1
    15    96    97    1
    16   114   117    1
    17   114   115    1
    18    45    46    1
    19    46    47    1
    20    46    49    1
    21    97   100    1
    22    97    98    1
    23   119   120    1
    24   119   118    1
    25    50    49    1
    26   100   102    1
    27   117   118    1
    28    47    48    2
    29   104    98   am
    30   104   105    1
    31   115   116    2
    32   115   122   am
    33    38    37    1
    34    49    51    1
    35    98    99    2
    36   129   128   ar
    37   122   123    1
    38   107   106    2
    39    39    37    1
    40   105   106    1
    41    37    36    2
    42   106   108   am
    43   124   123    1
    44   124   125    2
    45   128   130   ar
    46   128   127    1
    47   123   126    1
    48   126   127    1
    49    36    35    1
    50   131   132    1
    51   111   110    2
    52    35    34    1
    53    53    52    1
    54    53    54    1
    55    53    56    1
    56   110   109    1
    57   108   109    1
    58    34    33    1
    59    54    55    2
    60    54    58   am
    61    56    57    1
    62   109   112    1
    63    58    59    1
    64    33    30    1
    65   138   136    1
    66   132   135    1
    67   132   133    1
    68   136   135    1
    69   136   137    1
    70    32    31    2
    71    59    60    1
    72   133   134    2
    73    30    31    1
    74    30    29    1
    75     5     2    1
    76     5     6    1
    77     4     3    2
    78    60    62   am
    79    60    61    2
    80    29    20   am
    81     2     3    1
    82     2     1    1
    83    62    63    1
    84     3     8   am
    85    21    20    2
    86     6     7    1
    87    20    19    1
    88    40    41    1
    89     1     7    1
    90    41    44    1
    91    41    42    1
    92    68    66    1
    93    63    66    1
    94    63    64    1
    95    65    64    2
    96     8     9    1
    97    66    67    1
    98    19    18    1
    99    19    22    1
   100    84    83    1
   101    85    83    1
   102    18    10   am
   103    42    43    2
   104    10    11    2
   105    10     9    1
   106    64    70   am
   107     9    12    1
   108    83    82    1
   109    22    23    1
   110    70    71    1
   111    67    69    1
   112    12    13    1
   113    82    79    1
   114    71    72    1
   115    71    74    1
   116    78    72   am
   117    78    79    1
   118    23    24    1
   119    72    73    2
   120    14    13   ar
   121    14    16   ar
   122    79    80    1
   123    13    15   ar
   124    74    75    1
   125    16    17   ar
   126    24    25    1
   127    75    77   ar
   128    75    76   ar
   129    25    26    2
   130    15    17   ar
   131    80    81    2
   132    26    28    1
   133    26    27    1
