@<TRIPOS>MOLECULE
tmp/4jwcA00.pdb
 194 184 0 0 0
SMALL
GASTEIGER

@<TRIPOS>ATOM
      1  N        -32.2440   33.7060  -20.7560 N.3    13  ILE13      -0.1231
      2  CA       -32.4530   34.1640  -19.3990 C.3    13  ILE13       0.1692
      3  C        -32.8850   33.0120  -18.5070 C.2    13  ILE13       0.2592
      4  O        -33.4110   31.9980  -18.9880 O.2    13  ILE13      -0.2718
      5  CB       -33.4450   35.3760  -19.3050 C.3    13  ILE13       0.0266
      6  CG1      -34.8530   35.0240  -19.8380 C.3    13  ILE13       0.0019
      7  CG2      -32.9020   36.6630  -19.9420 C.3    13  ILE13       0.0020
      8  CD1      -35.9020   36.1610  -19.5560 C.3    13  ILE13       0.0001
      9  N        -32.6960   33.1900  -17.1970 N.am   14  GLU14      -0.1966
     10  CA       -33.1590   32.1920  -16.2420 C.3    14  GLU14       0.1733
     11  C        -34.6760   32.3700  -16.0480 C.2    14  GLU14       0.2617
     12  O        -35.1540   33.5050  -15.9250 O.2    14  GLU14      -0.2715
     13  CB       -32.4310   32.3480  -14.9000 C.3    14  GLU14       0.0429
     14  CG       -32.8580   31.2980  -13.8770 C.3    14  GLU14       0.1163
     15  CD       -32.0810   31.2610  -12.5730 C.2    14  GLU14       0.3649
     16  OE1      -31.1390   32.0710  -12.4000 O.co2  14  GLU14      -0.2457
     17  OE2      -32.4230   30.4130  -11.7180 O.co2  14  GLU14      -0.2457
     18  N        -35.4230   31.2530  -16.0120 N.am   15  THR15      -0.1937
     19  CA       -36.8660   31.2810  -15.7620 C.3    15  THR15       0.2028
     20  C        -37.1770   30.3890  -14.5600 C.2    15  THR15       0.2642
     21  O        -36.3210   29.6170  -14.1060 O.2    15  THR15      -0.2714
     22  CB       -37.6720   30.9460  -17.0320 C.3    15  THR15       0.1808
     23  OG1      -37.3610   29.6160  -17.4770 O.3    15  THR15      -0.2208
     24  CG2      -37.4750   31.9700  -18.1280 C.3    15  THR15       0.0379
     25  N        -38.3880   30.5200  -14.0450 N.am   16  MET16      -0.1976
     26  CA       -38.9510   29.8090  -12.9070 C.3    16  MET16       0.1605
     27  C        -38.4870   28.3600  -12.8210 C.2    16  MET16       0.2287
     28  O        -38.6700   27.6100  -13.7770 O.2    16  MET16      -0.2864
     29  CB       -40.4760   29.8590  -13.0160 C.3    16  MET16       0.0413
     30  CG       -41.1470   29.2140  -11.8790 C.3    16  MET16       0.0598
     31  SD       -42.9170   29.4100  -12.0360 S.3    16  MET16      -0.1393
     32  CE       -43.4480   28.4130  -10.6220 C.3    16  MET16       0.0692
     33  N        -34.0570   29.7460  -20.5290 N.3    21  THR21      -0.1218
     34  CA       -34.9240   29.9350  -21.6980 C.3    21  THR21       0.1862
     35  C        -34.0860   30.7420  -22.7470 C.2    21  THR21       0.2287
     36  O        -33.7120   31.8800  -22.4780 O.2    21  THR21      -0.2866
     37  CB       -36.2320   30.6120  -21.2870 C.3    21  THR21       0.1770
     38  OG1      -36.9720   29.7170  -20.4490 O.3    21  THR21      -0.2211
     39  CG2      -37.0930   31.0540  -22.4790 C.3    21  THR21       0.0375
     40  N        -39.0880   38.2830  -26.7130 N.3    36  GLN36      -0.1231
     41  CA       -40.0610   37.2920  -26.2390 C.3    36  GLN36       0.1698
     42  C        -40.7650   37.8550  -25.0150 C.2    36  GLN36       0.2592
     43  O        -40.1400   38.5470  -24.2090 O.2    36  GLN36      -0.2718
     44  CB       -39.3860   35.9440  -25.9220 C.3    36  GLN36       0.0381
     45  CG       -40.4130   34.8010  -25.8190 C.3    36  GLN36       0.0905
     46  CD       -39.8270   33.4640  -25.4290 C.2    36  GLN36       0.2608
     47  OE1      -38.6520   33.1640  -25.6650 O.2    36  GLN36      -0.2717
     48  NE2      -40.6510   32.6130  -24.8450 N.am   36  GLN36      -0.0878
     49  N        -42.0650   37.5630  -24.8890 N.am   37  VAL37      -0.1966
     50  CA       -42.8360   37.9980  -23.7360 C.3    37  VAL37       0.1727
     51  C        -42.7150   36.9600  -22.6290 C.2    37  VAL37       0.2616
     52  O        -42.8070   35.7540  -22.8790 O.2    37  VAL37      -0.2715
     53  CB       -44.3020   38.3200  -24.1110 C.3    37  VAL37       0.0290
     54  CG1      -45.0900   38.8130  -22.9010 C.3    37  VAL37       0.0023
     55  CG2      -44.3480   39.3620  -25.2290 C.3    37  VAL37       0.0023
     56  N        -42.5270   37.4520  -21.4040 N.am   38  PHE38      -0.1960
     57  CA       -42.4310   36.6680  -20.1860 C.3    38  PHE38       0.1771
     58  C        -43.4500   37.2040  -19.1910 C.2    38  PHE38       0.2620
     59  O        -43.9800   38.2910  -19.3790 O.2    38  PHE38      -0.2715
     60  CB       -41.0080   36.7690  -19.5970 C.3    38  PHE38       0.0574
     61  CG       -39.9650   36.0620  -20.4380 C.ar   38  PHE38      -0.0200
     62  CD1      -39.3680   36.6990  -21.5160 C.ar   38  PHE38      -0.0042
     63  CD2      -39.5960   34.7470  -20.1620 C.ar   38  PHE38      -0.0042
     64  CE1      -38.4220   36.0350  -22.3060 C.ar   38  PHE38      -0.0003
     65  CE2      -38.6500   34.0900  -20.9520 C.ar   38  PHE38      -0.0003
     66  CZ       -38.0730   34.7390  -22.0160 C.ar   38  PHE38      -0.0000
     67  N        -43.7580   36.4300  -18.1670 N.am   39  SER39      -0.1936
     68  CA       -44.6890   36.8870  -17.1450 C.3    39  SER39       0.2055
     69  C        -44.0850   36.6020  -15.7800 C.2    39  SER39       0.2644
     70  O        -42.9310   36.1730  -15.6880 O.2    39  SER39      -0.2714
     71  CB       -46.0600   36.2370  -17.3080 C.3    39  SER39       0.2130
     72  OG       -46.9970   37.0350  -16.5960 O.3    39  SER39      -0.2179
     73  N        -44.8310   36.8910  -14.7320 N.am   40  THR40      -0.1936
     74  CA       -44.3920   36.6850  -13.3520 C.3    40  THR40       0.2028
     75  C        -44.6790   35.2720  -12.8960 C.2    40  THR40       0.2642
     76  O        -45.6870   34.6960  -13.2790 O.2    40  THR40      -0.2714
     77  CB       -45.0870   37.6890  -12.4190 C.3    40  THR40       0.1808
     78  OG1      -46.5050   37.6450  -12.6660 O.3    40  THR40      -0.2208
     79  CG2      -44.5170   39.1120  -12.5570 C.3    40  THR40       0.0379
     80  N        -43.8170   34.7360  -12.0280 N.am   41  ALA41      -0.1963
     81  CA       -43.9730   33.3870  -11.4760 C.3    41  ALA41       0.1728
     82  C        -45.0170   33.2880  -10.3460 C.2    41  ALA41       0.2616
     83  O        -45.7240   32.2720  -10.2660 O.2    41  ALA41      -0.2715
     84  CB       -42.6250   32.8880  -10.9830 C.3    41  ALA41       0.0334
     85  N        -45.1000   34.3250   -9.4600 N.am   42  GLU42      -0.1977
     86  CA       -45.9880   34.3300   -8.2840 C.3    42  GLU42       0.1602
     87  C        -47.1040   35.3680   -8.3960 C.2    42  GLU42       0.2287
     88  O        -46.9570   36.3460   -9.1300 O.2    42  GLU42      -0.2864
     89  CB       -45.1880   34.6830   -7.0140 C.3    42  GLU42       0.0415
     90  CG       -43.9190   33.8920   -6.7420 C.3    42  GLU42       0.1163
     91  CD       -42.9470   34.6020   -5.8100 C.2    42  GLU42       0.3649
     92  OE1      -43.3550   35.5820   -5.1430 O.co2  42  GLU42      -0.2457
     93  OE2      -41.7660   34.1840   -5.7570 O.co2  42  GLU42      -0.2457
     94  N        -46.5850   39.7130   -7.6900 N.3    45  GLN45      -0.1245
     95  CA       -45.1680   39.9840   -7.8910 C.3    45  GLN45       0.1566
     96  C        -44.9420   41.3680   -8.5090 C.2    45  GLN45       0.2260
     97  O        -45.3800   41.6330   -9.6340 O.2    45  GLN45      -0.2867
     98  CB       -44.5510   38.8810   -8.7460 C.3    45  GLN45       0.0367
     99  CG       -43.0410   38.8190   -8.6440 C.3    45  GLN45       0.0905
    100  CD       -42.5320   37.6420   -9.4410 C.2    45  GLN45       0.2608
    101  OE1      -43.1520   36.5690   -9.4860 O.2    45  GLN45      -0.2717
    102  NE2      -41.4170   37.8340  -10.1170 N.am   45  GLN45      -0.0878
    103  N        -41.7840   42.8240   -8.9220 N.3    47  ALA47      -0.1231
    104  CA       -40.4390   42.9320   -9.4650 C.3    47  ALA47       0.1694
    105  C        -39.9810   41.6020  -10.0390 C.2    47  ALA47       0.2592
    106  O        -40.3600   40.5450   -9.5360 O.2    47  ALA47      -0.2718
    107  CB       -39.4800   43.3790   -8.3630 C.3    47  ALA47       0.0304
    108  N        -39.1790   41.6560  -11.0990 N.am   48  VAL48      -0.1966
    109  CA       -38.6040   40.4640  -11.7120 C.3    48  VAL48       0.1727
    110  C        -37.0950   40.6500  -11.8510 C.2    48  VAL48       0.2617
    111  O        -36.6130   41.7710  -11.9810 O.2    48  VAL48      -0.2715
    112  CB       -39.2190   40.0590  -13.0800 C.3    48  VAL48       0.0290
    113  CG1      -40.6760   39.6340  -12.9590 C.3    48  VAL48       0.0023
    114  CG2      -39.0110   41.1240  -14.1650 C.3    48  VAL48       0.0023
    115  N        -36.3650   39.5340  -11.8900 N.am   49  THR49      -0.1937
    116  CA       -34.9350   39.5420  -12.1420 C.3    49  THR49       0.2028
    117  C        -34.7080   38.9870  -13.5350 C.2    49  THR49       0.2642
    118  O        -35.2180   37.9110  -13.8650 O.2    49  THR49      -0.2714
    119  CB       -34.1580   38.7250  -11.0860 C.3    49  THR49       0.1808
    120  OG1      -34.2620   39.4150   -9.8500 O.3    49  THR49      -0.2208
    121  CG2      -32.6640   38.6440  -11.4090 C.3    49  THR49       0.0379
    122  N        -33.9210   39.7100  -14.3370 N.am   50  ILE50      -0.1977
    123  CA       -33.4920   39.3050  -15.6810 C.3    50  ILE50       0.1596
    124  C        -32.0280   38.8810  -15.5620 C.2    50  ILE50       0.2287
    125  O        -31.1500   39.7410  -15.4650 O.2    50  ILE50      -0.2864
    126  CB       -33.6750   40.4420  -16.7350 C.3    50  ILE50       0.0276
    127  CG1      -35.1250   41.0320  -16.7160 C.3    50  ILE50       0.0022
    128  CG2      -33.2520   39.9680  -18.1540 C.3    50  ILE50       0.0022
    129  CD1      -36.2710   40.0420  -16.8790 C.3    50  ILE50       0.0001
    130  N        -26.9690   40.6680  -14.8490 N.3    68  GLN68      -0.1245
    131  CA       -28.3540   40.6310  -14.3990 C.3    68  GLN68       0.1566
    132  C        -28.8040   42.0100  -13.9740 C.2    68  GLN68       0.2260
    133  O        -27.9730   42.8580  -13.6330 O.2    68  GLN68      -0.2867
    134  CB       -28.5550   39.6280  -13.2390 C.3    68  GLN68       0.0367
    135  CG       -27.7870   39.9230  -11.9430 C.3    68  GLN68       0.0905
    136  CD       -28.1380   38.8630  -10.9340 C.2    68  GLN68       0.2608
    137  OE1      -27.5650   37.7620  -10.9410 O.2    68  GLN68      -0.2717
    138  NE2      -29.1460   39.1370  -10.0960 N.am   68  GLN68      -0.0878
    139  N        -32.6680   44.0650  -12.2520 N.3    70  ASN70      -0.1240
    140  CA       -34.0490   43.9520  -11.7890 C.3    70  ASN70       0.1653
    141  C        -34.9590   44.9400  -12.5020 C.2    70  ASN70       0.2266
    142  O        -34.5150   46.0050  -12.9490 O.2    70  ASN70      -0.2867
    143  CB       -34.1570   44.1370  -10.2730 C.3    70  ASN70       0.1155
    144  CG       -33.3700   43.1040   -9.4960 C.2    70  ASN70       0.2627
    145  OD1      -33.2890   41.9300   -9.8660 O.2    70  ASN70      -0.2716
    146  ND2      -32.8440   43.5010   -8.3610 N.am   70  ASN70      -0.0877
    147  N        -38.5940   46.6470  -11.5640 N.3    72  ASP72      -0.1239
    148  CA       -39.5640   46.8390  -10.4780 C.3    72  ASP72       0.1674
    149  C        -40.7350   47.7410  -10.9220 C.2    72  ASP72       0.2266
    150  O        -40.7380   48.2300  -12.0490 O.2    72  ASP72      -0.2867
    151  CB       -38.8500   47.4270   -9.2280 C.3    72  ASP72       0.1410
    152  CG       -37.3880   47.0370   -9.0460 C.2    72  ASP72       0.3668
    153  OD1      -37.1060   45.8250   -8.9160 O.co2  72  ASP72      -0.2456
    154  OD2      -36.5280   47.9470   -9.0180 O.co2  72  ASP72      -0.2456
    155  N        -50.4020   35.7680  -11.1490 N.3    79  ARG79      -0.1231
    156  CA       -49.2670   35.2220  -11.9080 C.3    79  ARG79       0.1694
    157  C        -49.6950   34.9810  -13.3650 C.2    79  ARG79       0.2592
    158  O        -50.8540   34.6470  -13.6040 O.2    79  ARG79      -0.2718
    159  CB       -48.7390   33.9260  -11.2430 C.3    79  ARG79       0.0321
    160  CG       -49.7430   32.7570  -11.1950 C.3    79  ARG79       0.0489
    161  CD       -49.5090   31.8600   -9.9880 C.3    79  ARG79       0.2205
    162  NE       -49.3410   30.4580  -10.3710 N.pl3  79  ARG79      -0.0865
    163  CZ       -48.7720   29.5290   -9.6030 C.cat  79  ARG79       0.5346
    164  NH1      -48.3170   29.8420   -8.3950 N.pl3  79  ARG79       0.1354
    165  NH2      -48.6450   28.2830  -10.0420 N.pl3  79  ARG79       0.1354
    166  N        -48.8050   35.2530  -14.3080 N.am   80  GLY80      -0.1957
    167  CA       -49.1260   35.0840  -15.7220 C.3    80  GLY80       0.1869
    168  C        -49.8330   36.2670  -16.3670 C.2    80  GLY80       0.2309
    169  O        -49.9300   36.3290  -17.5920 O.2    80  GLY80      -0.2863
    170  N        -44.1300   41.0500  -19.8170 N.3    84  ILE84      -0.1245
    171  CA       -42.7730   41.5870  -19.7670 C.3    84  ILE84       0.1561
    172  C        -42.0330   41.2230  -21.0380 C.2    84  ILE84       0.2260
    173  O        -41.6620   40.0740  -21.2230 O.2    84  ILE84      -0.2867
    174  CB       -42.0370   41.1440  -18.4860 C.3    84  ILE84       0.0252
    175  CG1      -42.8640   41.5520  -17.2390 C.3    84  ILE84       0.0019
    176  CG2      -40.5980   41.7110  -18.4240 C.3    84  ILE84       0.0019
    177  CD1      -42.7720   40.6270  -16.0740 C.3    84  ILE84       0.0001
    178  N        -38.9200   40.9730  -23.1070 N.3    86  VAL86      -0.1245
    179  CA       -37.4590   40.8900  -22.9660 C.3    86  VAL86       0.1561
    180  C        -36.8920   40.8790  -24.3800 C.2    86  VAL86       0.2260
    181  O        -37.3100   40.0690  -25.2150 O.2    86  VAL86      -0.2867
    182  CB       -37.0200   39.6570  -22.1130 C.3    86  VAL86       0.0252
    183  CG1      -35.4790   39.5250  -22.0790 C.3    86  VAL86       0.0019
    184  CG2      -37.5900   39.7540  -20.6890 C.3    86  VAL86       0.0019
    185  N        -48.9210   24.5620   -9.8990 N.3   153  HIS153     -0.1241
    186  CA       -50.0860   25.1510  -10.5830 C.3   153  HIS153      0.1621
    187  C        -51.3440   24.4430  -10.0880 C.2   153  HIS153      0.2264
    188  O        -52.3770   25.0920   -9.8980 O.2   153  HIS153     -0.2867
    189  CB       -49.9590   24.9990  -12.1140 C.3   153  HIS153      0.0745
    190  CG       -50.8420   25.9140  -12.9110 C.ar  153  HIS153      0.0817
    191  ND1      -52.2160   25.7230  -12.9780 N.ar  153  HIS153     -0.2268
    192  CD2      -50.5100   26.9720  -13.6890 C.ar  153  HIS153      0.1154
    193  CE1      -52.6730   26.6830  -13.7650 C.ar  153  HIS153      0.1986
    194  NE2      -51.6840   27.4590  -14.2180 N.ar  153  HIS153     -0.2212
@<TRIPOS>BOND
     1    40    41    1
     2    41    44    1
     3    41    42    1
     4    44    45    1
     5    45    46    1
     6    47    46    2
     7    46    48   am
     8    55    53    1
     9   181   180    2
    10    42    49   am
    11    42    43    2
    12    49    50    1
    13   180   179    1
    14    53    50    1
    15    53    54    1
    16    50    51    1
    17   178   179    1
    18   179   182    1
    19    52    51    2
    20    35    36    2
    21    35    34    1
    22    51    56   am
    23    39    37    1
    24    64    66   ar
    25    64    62   ar
    26   182   183    1
    27   182   184    1
    28    66    65   ar
    29    34    37    1
    30    34    33    1
    31    62    61   ar
    32    56    57    1
    33    37    38    1
    34   173   172    2
    35   172   171    1
    36    65    63   ar
    37     1     2    1
    38    61    63   ar
    39    61    60    1
    40    57    60    1
    41    57    58    1
    42     7     5    1
    43     6     8    1
    44     6     5    1
    45   170   171    1
    46   171   174    1
    47     2     5    1
    48     2     3    1
    49    59    58    2
    50    58    67   am
    51     4     3    2
    52     3     9   am
    53   174   176    1
    54   174   175    1
    55    67    68    1
    56   128   126    1
    57    24    22    1
    58   169   168    2
    59    23    22    1
    60    71    68    1
    61    71    72    1
    62   175   177    1
    63     9    10    1
    64    68    69    1
    65    22    19    1
    66   129   127    1
    67   126   127    1
    68   126   123    1
    69   168   167    1
    70    10    11    1
    71    10    13    1
    72    11    18   am
    73    11    12    2
    74    18    19    1
    75    69    70    2
    76    69    73   am
    77    19    20    1
    78   167   166    1
    79   123   124    1
    80   123   122    1
    81   124   125    2
    82    13    14    1
    83   130   131    1
    84    73    74    1
    85    20    21    2
    86    20    25   am
    87   131   132    1
    88   131   134    1
    89   122   117   am
    90   166   157   am
    91   194   193   ar
    92   194   192   ar
    93   114   112    1
    94    25    26    1
    95   132   133    2
    96    14    15    1
    97   118   117    2
    98    28    27    2
    99   193   191   ar
   100   192   190   ar
   101   158   157    2
   102   117   116    1
   103   157   156    1
   104    74    75    1
   105    74    77    1
   106    76    75    2
   107   134   135    1
   108   112   113    1
   109   112   109    1
   110    29    26    1
   111    29    30    1
   112   191   190   ar
   113   142   141    2
   114   190   189    1
   115    26    27    1
   116    75    80   am
   117    78    77    1
   118    15    16   ar
   119    15    17   ar
   120    79    77    1
   121   141   140    1
   122   139   140    1
   123   116   115    1
   124   116   119    1
   125   189   186    1
   126   150   149    2
   127    31    30    1
   128    31    32    1
   129    80    81    1
   130   111   110    2
   131   135   136    1
   132   156   159    1
   133   156   155    1
   134   115   110   am
   135   110   109    1
   136   140   143    1
   137   109   108    1
   138   147   148    1
   139    81    84    1
   140    81    82    1
   141   121   119    1
   142   159   160    1
   143   160   161    1
   144   108   105   am
   145   119   120    1
   146   137   136    2
   147   136   138   am
   148   149   148    1
   149   186   187    1
   150   186   185    1
   151   148   151    1
   152   162   161    1
   153   162   163    2
   154    82    83    2
   155    82    85   am
   156   143   144    1
   157   102   100   am
   158   187   188    2
   159   165   163    1
   160   105   106    2
   161   105   104    1
   162   145   144    2
   163    97    96    2
   164   163   164    1
   165   144   146   am
   166   101   100    2
   167   104   103    1
   168   104   107    1
   169    85    86    1
   170   100    99    1
   171   151   152    1
   172    88    87    2
   173   152   154   ar
   174   152   153   ar
   175    98    99    1
   176    98    95    1
   177    96    95    1
   178    87    86    1
   179    86    89    1
   180    95    94    1
   181    89    90    1
   182    90    91    1
   183    91    93   ar
   184    91    92   ar
