@<TRIPOS>MOLECULE
tmp/4jweB00.pdb
 211 205 0 0 0
SMALL
GASTEIGER

@<TRIPOS>ATOM
      1  N        -15.0900   17.7890   -5.3570 N.3    13  ILE13      -0.1231
      2  CA       -14.9610   17.4060   -6.7530 C.3    13  ILE13       0.1692
      3  C        -15.8970   16.2530   -7.0880 C.2    13  ILE13       0.2592
      4  O        -16.2690   15.4570   -6.2200 O.2    13  ILE13      -0.2718
      5  CB       -13.4870   17.0730   -7.1460 C.3    13  ILE13       0.0266
      6  CG1      -12.9450   15.8410   -6.3820 C.3    13  ILE13       0.0019
      7  CG2      -12.5390   18.2950   -7.0340 C.3    13  ILE13       0.0020
      8  CD1      -11.5870   15.3680   -6.8520 C.3    13  ILE13       0.0001
      9  N        -16.2050   16.1410   -8.3700 N.am   14  GLU14      -0.1966
     10  CA       -17.0090   15.0650   -8.9050 C.3    14  GLU14       0.1733
     11  C        -16.2040   13.7870   -9.0030 C.2    14  GLU14       0.2617
     12  O        -15.1180   13.7790   -9.5820 O.2    14  GLU14      -0.2715
     13  CB       -17.5560   15.4340  -10.2740 C.3    14  GLU14       0.0429
     14  CG       -18.5510   14.3870  -10.7590 C.3    14  GLU14       0.1163
     15  CD       -19.3390   14.7410  -11.9950 C.2    14  GLU14       0.3649
     16  OE1      -19.2500   15.9000  -12.4640 O.co2  14  GLU14      -0.2457
     17  OE2      -20.1080   13.8680  -12.4520 O.co2  14  GLU14      -0.2457
     18  N        -16.7560   12.6830   -8.4690 N.am   15  THR15      -0.1937
     19  CA       -16.0940   11.3850   -8.5860 C.3    15  THR15       0.2028
     20  C        -17.0160   10.4460   -9.3790 C.2    15  THR15       0.2642
     21  O        -18.1730   10.8130   -9.6660 O.2    15  THR15      -0.2714
     22  CB       -15.6090   10.8570   -7.2160 C.3    15  THR15       0.1808
     23  OG1      -16.7260   10.6730   -6.3550 O.3    15  THR15      -0.2208
     24  CG2      -14.5640   11.7750   -6.5680 C.3    15  THR15       0.0379
     25  N        -16.4890    9.2590   -9.7490 N.am   16  MET16      -0.1976
     26  CA       -17.1730    8.2200  -10.5220 C.3    16  MET16       0.1605
     27  C        -18.6490    8.0190  -10.1130 C.2    16  MET16       0.2287
     28  O        -18.9250    7.8070   -8.9230 O.2    16  MET16      -0.2864
     29  CB       -16.3920    6.8940  -10.4000 C.3    16  MET16       0.0413
     30  CG       -16.7920    5.8750  -11.4290 C.3    16  MET16       0.0598
     31  SD       -15.9870    4.2880  -11.1720 S.3    16  MET16      -0.1393
     32  CE       -16.7440    3.3560  -12.5370 C.3    16  MET16       0.0692
     33  N        -17.6370   14.4960   -3.8480 N.3    21  THR21      -0.1218
     34  CA       -16.7530   14.1160   -2.7290 C.3    21  THR21       0.1862
     35  C        -16.2510   15.4470   -2.1330 C.2    21  THR21       0.2287
     36  O        -15.5800   16.2150   -2.8240 O.2    21  THR21      -0.2866
     37  CB       -15.5970   13.2410   -3.2280 C.3    21  THR21       0.1770
     38  OG1      -16.1480   12.0810   -3.8450 O.3    21  THR21      -0.2211
     39  CG2      -14.6330   12.8320   -2.1100 C.3    21  THR21       0.0375
     40  N         -6.6960   15.4150   -0.4030 N.3    36  GLN36      -0.1231
     41  CA        -7.2090   14.0470   -0.4030 C.3    36  GLN36       0.1698
     42  C         -6.6830   13.3740   -1.6550 C.2    36  GLN36       0.2592
     43  O         -6.5550   14.0300   -2.6870 O.2    36  GLN36      -0.2718
     44  CB        -8.7560   14.0000   -0.3360 C.3    36  GLN36       0.0381
     45  CG        -9.2960   12.5640   -0.2170 C.3    36  GLN36       0.0905
     46  CD       -10.7930   12.4470   -0.1130 C.2    36  GLN36       0.2608
     47  OE1      -11.5220   13.4250    0.0670 O.2    36  GLN36      -0.2717
     48  NE2      -11.2820   11.2230   -0.2140 N.am   36  GLN36      -0.0878
     49  N         -6.3520   12.0790   -1.5410 N.am   37  VAL37      -0.1966
     50  CA        -5.8240   11.2710   -2.6390 C.3    37  VAL37       0.1727
     51  C         -6.9580   10.5500   -3.3380 C.2    37  VAL37       0.2616
     52  O         -7.7800    9.8820   -2.7000 O.2    37  VAL37      -0.2715
     53  CB        -4.6730   10.3030   -2.2090 C.3    37  VAL37       0.0290
     54  CG1       -4.1340    9.5140   -3.4150 C.3    37  VAL37       0.0023
     55  CG2       -3.5280   11.0710   -1.5320 C.3    37  VAL37       0.0023
     56  N         -6.9770   10.6710   -4.6610 N.am   38  PHE38      -0.1960
     57  CA        -7.9610   10.0340   -5.5270 C.3    38  PHE38       0.1771
     58  C         -7.2300    9.0700   -6.4490 C.2    38  PHE38       0.2620
     59  O         -5.9910    9.0120   -6.4660 O.2    38  PHE38      -0.2715
     60  CB        -8.6950   11.1090   -6.3440 C.3    38  PHE38       0.0574
     61  CG        -9.5540   11.9980   -5.4770 C.ar   38  PHE38      -0.0200
     62  CD1       -8.9990   13.0750   -4.7940 C.ar   38  PHE38      -0.0042
     63  CD2      -10.9040   11.7200   -5.2900 C.ar   38  PHE38      -0.0042
     64  CE1       -9.7700   13.8540   -3.9420 C.ar   38  PHE38      -0.0003
     65  CE2      -11.6830   12.5160   -4.4430 C.ar   38  PHE38      -0.0003
     66  CZ       -11.1070   13.5810   -3.7780 C.ar   38  PHE38      -0.0000
     67  N         -8.0000    8.2960   -7.2000 N.am   39  SER39      -0.1936
     68  CA        -7.4380    7.3790   -8.1660 C.3    39  SER39       0.2055
     69  C         -8.2420    7.3790   -9.4460 C.2    39  SER39       0.2644
     70  O         -9.1470    8.1900   -9.6130 O.2    39  SER39      -0.2714
     71  CB        -7.2720    5.9780   -7.5820 C.3    39  SER39       0.2130
     72  OG        -6.3890    5.2840   -8.4480 O.3    39  SER39      -0.2179
     73  N         -7.8590    6.5200  -10.3900 N.am   40  THR40      -0.1936
     74  CA        -8.5310    6.4210  -11.6850 C.3    40  THR40       0.2028
     75  C         -9.6930    5.4310  -11.6200 C.2    40  THR40       0.2642
     76  O         -9.6740    4.4740  -10.8400 O.2    40  THR40      -0.2714
     77  CB        -7.5350    6.0270  -12.7530 C.3    40  THR40       0.1808
     78  OG1       -6.8470    4.8750  -12.2800 O.3    40  THR40      -0.2208
     79  CG2       -6.5680    7.1620  -13.0890 C.3    40  THR40       0.0379
     80  N        -10.6800    5.6420  -12.4810 N.am   41  ALA41      -0.1963
     81  CA       -11.8840    4.8140  -12.5220 C.3    41  ALA41       0.1728
     82  C        -11.7660    3.5740  -13.4050 C.2    41  ALA41       0.2616
     83  O        -12.4790    2.5920  -13.1720 O.2    41  ALA41      -0.2715
     84  CB       -13.0520    5.6610  -12.9680 C.3    41  ALA41       0.0334
     85  N        -10.9350    3.6360  -14.4660 N.am   42  GLU42      -0.1977
     86  CA       -10.7580    2.4990  -15.3710 C.3    42  GLU42       0.1602
     87  C         -9.3020    2.1350  -15.5300 C.2    42  GLU42       0.2287
     88  O         -8.4280    2.9640  -15.2580 O.2    42  GLU42      -0.2864
     89  CB       -11.4170    2.7390  -16.7500 C.3    42  GLU42       0.0415
     90  CG       -12.9070    3.1010  -16.7210 C.3    42  GLU42       0.1163
     91  CD       -13.9000    2.1070  -16.1280 C.2    42  GLU42       0.3649
     92  OE1      -13.5510    0.9130  -15.9890 O.co2  42  GLU42      -0.2457
     93  OE2      -15.0400    2.5240  -15.8140 O.co2  42  GLU42      -0.2457
     94  N         -6.2960    4.2790  -17.5740 N.3    45  GLN45      -0.1245
     95  CA        -6.7970    5.6550  -17.7000 C.3    45  GLN45       0.1566
     96  C         -5.6010    6.5900  -17.7350 C.2    45  GLN45       0.2260
     97  O         -4.7750    6.5660  -16.8190 O.2    45  GLN45      -0.2867
     98  CB        -7.6860    5.9890  -16.5070 C.3    45  GLN45       0.0367
     99  CG        -8.4390    7.2910  -16.6510 C.3    45  GLN45       0.0905
    100  CD        -9.5200    7.4180  -15.6180 C.2    45  GLN45       0.2608
    101  OE1      -10.1230    6.4340  -15.1750 O.2    45  GLN45      -0.2717
    102  NE2       -9.8170    8.6480  -15.2430 N.am   45  GLN45      -0.0878
    103  N         -5.7700   10.0230  -18.2120 N.3    47  ALA47      -0.1231
    104  CA        -6.0890   11.3560  -17.7420 C.3    47  ALA47       0.1694
    105  C         -7.2880   11.3470  -16.8220 C.2    47  ALA47       0.2592
    106  O         -8.0990   10.4190  -16.8700 O.2    47  ALA47      -0.2718
    107  CB        -6.3440   12.2690  -18.9330 C.3    47  ALA47       0.0304
    108  N         -7.3870   12.3750  -15.9690 N.am   48  VAL48      -0.1966
    109  CA        -8.5100   12.5800  -15.0510 C.3    48  VAL48       0.1727
    110  C         -9.0230   14.0010  -15.2410 C.2    48  VAL48       0.2617
    111  O         -8.2320   14.8990  -15.5310 O.2    48  VAL48      -0.2715
    112  CB        -8.2130   12.2970  -13.5330 C.3    48  VAL48       0.0290
    113  CG1       -7.9100   10.8260  -13.2710 C.3    48  VAL48       0.0023
    114  CG2       -7.1060   13.2030  -12.9620 C.3    48  VAL48       0.0023
    115  N        -10.3360   14.1990  -15.0810 N.am   49  THR49      -0.1937
    116  CA       -10.9530   15.5220  -15.0770 C.3    49  THR49       0.2028
    117  C        -11.2150   15.8440  -13.5990 C.2    49  THR49       0.2642
    118  O        -11.7320   14.9970  -12.8690 O.2    49  THR49      -0.2714
    119  CB       -12.2670   15.5800  -15.9100 C.3    49  THR49       0.1808
    120  OG1      -11.9510   15.3740  -17.2820 O.3    49  THR49      -0.2208
    121  CG2      -12.9680   16.9650  -15.8200 C.3    49  THR49       0.0379
    122  N        -10.8430   17.0630  -13.1720 N.am   50  ILE50      -0.1977
    123  CA       -11.0680   17.5730  -11.8330 C.3    50  ILE50       0.1596
    124  C        -12.1790   18.6060  -12.0010 C.2    50  ILE50       0.2287
    125  O        -11.9190   19.6780  -12.5270 O.2    50  ILE50      -0.2864
    126  CB        -9.7810   18.1980  -11.2100 C.3    50  ILE50       0.0276
    127  CG1       -8.5350   17.2560  -11.2720 C.3    50  ILE50       0.0022
    128  CG2      -10.0510   18.7530   -9.8080 C.3    50  ILE50       0.0022
    129  CD1       -8.6420   15.9110  -10.4980 C.3    50  ILE50       0.0001
    130  N         -8.0340   19.2780  -16.5390 N.3    70  ASN70      -0.1240
    131  CA        -7.6330   17.8970  -16.7120 C.3    70  ASN70       0.1653
    132  C         -6.2060   17.7390  -16.2880 C.2    70  ASN70       0.2266
    133  O         -5.4280   18.6890  -16.3850 O.2    70  ASN70      -0.2867
    134  CB        -7.7750   17.4710  -18.1740 C.3    70  ASN70       0.1155
    135  CG        -9.1860   17.5910  -18.6940 C.2    70  ASN70       0.2627
    136  OD1      -10.1480   17.3170  -17.9970 O.2    70  ASN70      -0.2716
    137  ND2       -9.3370   18.0550  -19.9140 N.am   70  ASN70      -0.0877
    138  N         -7.0380    0.1210  -12.5350 N.3    79  ARG79      -0.1231
    139  CA        -7.8700    1.1490  -11.8930 C.3    79  ARG79       0.1694
    140  C         -7.6600    1.1040  -10.3710 C.2    79  ARG79       0.2593
    141  O         -7.4310    0.0200   -9.8260 O.2    79  ARG79      -0.2718
    142  CB        -9.3660    0.9360  -12.2350 C.3    79  ARG79       0.0321
    143  CG        -9.9630   -0.3840  -11.7320 C.3    79  ARG79       0.0489
    144  CD       -11.2410   -0.6990  -12.4670 C.3    79  ARG79       0.2205
    145  NE       -11.5550   -2.1320  -12.4610 N.pl3  79  ARG79      -0.0865
    146  CZ       -12.2760   -2.7430  -11.5240 C.cat  79  ARG79       0.5346
    147  NH1      -12.7440   -2.0620  -10.4850 N.pl3  79  ARG79       0.1354
    148  NH2      -12.5230   -4.0440  -11.6130 N.pl3  79  ARG79       0.1354
    149  N         -7.6740    2.2630   -9.7240 N.am   80  GLY80      -0.1942
    150  CA        -7.4780    2.3530   -8.2760 C.3    80  GLY80       0.2014
    151  C         -6.0330    2.3790   -7.7820 C.2    80  GLY80       0.2639
    152  O         -5.8090    2.5760   -6.5850 O.2    80  GLY80      -0.2714
    153  N         -5.0390    2.1820   -8.6780 N.am   81  MET81      -0.1963
    154  CA        -3.6380    2.1600   -8.2750 C.3    81  MET81       0.1722
    155  C         -2.9520    3.5360   -8.3560 C.2    81  MET81       0.2458
    156  O         -2.2600    3.8760   -7.4030 O.2    81  MET81      -0.2730
    157  CB        -2.8590    1.0460   -8.9810 C.3    81  MET81       0.0427
    158  CG        -3.4500   -0.3370   -8.7550 C.3    81  MET81       0.0599
    159  SD        -3.6260   -0.8290   -7.0130 S.3    81  MET81      -0.1393
    160  CE        -1.9290   -0.8500   -6.4970 C.3    81  MET81       0.0692
    161  N         -3.1460    4.3800   -9.4210 N.am   82  PRO82      -0.2716
    162  CA        -2.5000    5.7020   -9.4030 C.3    82  PRO82       0.1536
    163  C         -2.9260    6.5430   -8.1980 C.2    82  PRO82       0.2598
    164  O         -4.0310    6.3560   -7.6680 O.2    82  PRO82      -0.2715
    165  CB        -2.9890    6.3420  -10.7170 C.3    82  PRO82       0.0310
    166  CG        -3.2720    5.1680  -11.6070 C.3    82  PRO82       0.0237
    167  CD        -3.9240    4.2080  -10.6740 C.3    82  PRO82       0.0939
    168  N         -2.0380    7.4360   -7.7410 N.am   83  GLN83      -0.1964
    169  CA        -2.3230    8.3100   -6.6010 C.3    83  GLN83       0.1733
    170  C         -2.3500    9.7450   -7.0900 C.2    83  GLN83       0.2616
    171  O         -1.2980   10.3070   -7.4280 O.2    83  GLN83      -0.2715
    172  CB        -1.2810    8.1280   -5.4830 C.3    83  GLN83       0.0408
    173  CG        -1.5120    6.9090   -4.5980 C.3    83  GLN83       0.0908
    174  CD        -0.5390    6.8720   -3.4430 C.2    83  GLN83       0.2608
    175  OE1       -0.5340    7.7470   -2.5670 O.2    83  GLN83      -0.2717
    176  NE2        0.2760    5.8340   -3.3880 N.am   83  GLN83      -0.0878
    177  N         -3.5690   10.3110   -7.2030 N.am   84  ILE84      -0.1977
    178  CA        -3.7830   11.6960   -7.6450 C.3    84  ILE84       0.1596
    179  C         -4.1460   12.5480   -6.4150 C.2    84  ILE84       0.2287
    180  O         -5.2690   12.4780   -5.9200 O.2    84  ILE84      -0.2864
    181  CB        -4.8530   11.8500   -8.7800 C.3    84  ILE84       0.0276
    182  CG1       -4.7150   10.8120   -9.9630 C.3    84  ILE84       0.0022
    183  CG2       -4.9450   13.3200   -9.2610 C.3    84  ILE84       0.0022
    184  CD1       -3.3560   10.7430  -10.6860 C.3    84  ILE84       0.0001
    185  N         -5.3290   15.6910   -4.6460 N.3    86  VAL86      -0.1245
    186  CA        -6.0660   16.9180   -4.9430 C.3    86  VAL86       0.1561
    187  C         -6.0160   17.8190   -3.7020 C.2    86  VAL86       0.2260
    188  O         -6.3060   17.3600   -2.5990 O.2    86  VAL86      -0.2867
    189  CB        -7.5140   16.6420   -5.4720 C.3    86  VAL86       0.0252
    190  CG1       -8.2960   17.9390   -5.6640 C.3    86  VAL86       0.0019
    191  CG2       -7.4760   15.8480   -6.7820 C.3    86  VAL86       0.0019
    192  N        -17.4090   -1.1250  -14.3380 N.3   153  HIS153     -0.1241
    193  CA       -16.1560   -1.8800  -14.2240 C.3   153  HIS153      0.1621
    194  C        -16.1940   -3.2380  -14.9530 C.2   153  HIS153      0.2264
    195  O        -15.2220   -3.5810  -15.6250 O.2   153  HIS153     -0.2867
    196  CB       -15.7360   -2.0400  -12.7550 C.3   153  HIS153      0.0745
    197  CG       -15.2200   -0.7750  -12.1290 C.ar  153  HIS153      0.0817
    198  ND1      -15.4970   -0.4560  -10.8090 N.ar  153  HIS153     -0.2268
    199  CD2      -14.4600    0.2130  -12.6640 C.ar  153  HIS153      0.1154
    200  CE1      -14.8910    0.7010  -10.5820 C.ar  153  HIS153      0.1986
    201  NE2      -14.2410    1.1360  -11.6630 N.ar  153  HIS153     -0.2212
    202  N        -16.5220   -2.6270  -18.8300 N.3   156  HIS156     -0.1241
    203  CA       -15.2130   -2.2610  -19.3650 C.3   156  HIS156      0.1621
    204  C        -14.2670   -3.4610  -19.4090 C.2   156  HIS156      0.2264
    205  O        -13.6260   -3.6710  -20.4400 O.2   156  HIS156     -0.2867
    206  CB       -14.5940   -1.1030  -18.5610 C.3   156  HIS156      0.0745
    207  CG       -15.0910    0.2500  -18.9690 C.ar  156  HIS156      0.0817
    208  ND1      -14.2960    1.1230  -19.6970 N.ar  156  HIS156     -0.2268
    209  CD2      -16.2930    0.8340  -18.7510 C.ar  156  HIS156      0.1154
    210  CE1      -15.0340    2.2050  -19.8870 C.ar  156  HIS156      0.1986
    211  NE2      -16.2430    2.0780  -19.3330 N.ar  156  HIS156     -0.2212
@<TRIPOS>BOND
     1   205   204    2
     2   137   135   am
     3   210   208   ar
     4   210   211   ar
     5   208   207   ar
     6   204   203    1
     7   203   202    1
     8   203   206    1
     9   211   209   ar
    10   207   209   ar
    11   207   206    1
    12   107   104    1
    13   135   134    1
    14   135   136    2
    15   103   104    1
    16   134   131    1
    17   104   105    1
    18    96    95    1
    19    96    97    2
    20    95    94    1
    21    95    98    1
    22   120   119    1
    23   106   105    2
    24   105   108   am
    25    89    90    1
    26    89    86    1
    27    90    91    1
    28   131   130    1
    29   131   132    1
    30    99    98    1
    31    99   100    1
    32   133   132    2
    33    91    92   ar
    34    91    93   ar
    35   108   109    1
    36   119   121    1
    37   119   116    1
    38   195   194    2
    39   100   102   am
    40   100   101    2
    41   111   110    2
    42    87    86    1
    43    87    88    2
    44    86    85    1
    45   110   115   am
    46   110   109    1
    47   115   116    1
    48   116   117    1
    49   109   112    1
    50   194   193    1
    51    85    82   am
    52   192   193    1
    53   193   196    1
    54   117   122   am
    55   117   118    2
    56   112   113    1
    57   112   114    1
    58    82    83    2
    59    82    81    1
    60   122   123    1
    61    79    77    1
    62    84    81    1
    63   196   197    1
    64    77    78    1
    65    77    74    1
    66   199   197   ar
    67   199   201   ar
    68    32    31    1
    69   138   139    1
    70   125   124    2
    71    81    80    1
    72    80    75   am
    73   144   145    1
    74   144   143    1
    75    16    15   ar
    76   145   146    2
    77    17    15   ar
    78   142   139    1
    79   142   143    1
    80   197   198   ar
    81   124   123    1
    82    15    14    1
    83   139   140    1
    84   123   126    1
    85    74    75    1
    86    74    73    1
    87   201   200   ar
    88    75    76    2
    89   148   146    1
    90   166   165    1
    91   166   167    1
    92   146   147    1
    93    30    31    1
    94    30    29    1
    95   127   126    1
    96   127   129    1
    97   126   128    1
    98   198   200   ar
    99    14    13    1
   100   165   162    1
   101   184   182    1
   102   167   161    1
   103    26    29    1
   104    26    27    1
   105    26    25    1
   106    73    69   am
   107   140   141    2
   108   140   149   am
   109    13    10    1
   110    27    28    2
   111   182   181    1
   112    25    20   am
   113   149   150    1
   114    21    20    2
   115    70    69    2
   116    12    11    2
   117    69    68    1
   118   161   162    1
   119   161   155   am
   120   162   163    1
   121    20    19    1
   122   183   181    1
   123    11    10    1
   124    11    18   am
   125   157   158    1
   126   157   154    1
   127    10     9    1
   128   181   178    1
   129   158   159    1
   130   153   154    1
   131   153   151   am
   132    19    18    1
   133    19    22    1
   134    72    71    1
   135     9     3   am
   136   155   154    1
   137   155   156    2
   138   150   151    1
   139   163   168   am
   140   163   164    2
   141    68    71    1
   142    68    67    1
   143   151   152    2
   144   168   169    1
   145   178   177    1
   146   178   179    1
   147   171   170    2
   148    22    24    1
   149    22    23    1
   150   177   170   am
   151    67    58   am
   152     5     7    1
   153     5     2    1
   154     5     6    1
   155   170   169    1
   156     3     2    1
   157     3     4    2
   158   159   160    1
   159     8     6    1
   160   191   189    1
   161     2     1    1
   162   169   172    1
   163    59    58    2
   164    58    57    1
   165   179   180    2
   166    60    57    1
   167    60    61    1
   168   190   189    1
   169    57    56    1
   170   172   173    1
   171    61    63   ar
   172    61    62   ar
   173   189   186    1
   174    63    65   ar
   175   186   185    1
   176   186   187    1
   177    62    64   ar
   178    56    51   am
   179   173   174    1
   180    65    66   ar
   181    64    66   ar
   182    33    34    1
   183    38    37    1
   184   187   188    2
   185   174   176   am
   186   174   175    2
   187    54    53    1
   188    51    52    2
   189    51    50    1
   190    37    34    1
   191    37    39    1
   192    36    35    2
   193    34    35    1
   194    43    42    2
   195    50    53    1
   196    50    49    1
   197    53    55    1
   198    42    49   am
   199    42    41    1
   200    41    40    1
   201    41    44    1
   202    44    45    1
   203    45    46    1
   204    48    46   am
   205    46    47    2
