@<TRIPOS>MOLECULE
tmp/4jweA00.pdb
 229 218 0 0 0
SMALL
GASTEIGER

@<TRIPOS>ATOM
      1  N        -32.2190   33.5880  -20.6930 N.3    13  ILE13      -0.1231
      2  CA       -32.4120   34.0590  -19.3320 C.3    13  ILE13       0.1692
      3  C        -32.8490   32.9290  -18.4370 C.2    13  ILE13       0.2592
      4  O        -33.4250   31.9330  -18.9080 O.2    13  ILE13      -0.2718
      5  CB       -33.4090   35.2740  -19.2610 C.3    13  ILE13       0.0266
      6  CG1      -34.8300   34.9000  -19.8070 C.3    13  ILE13       0.0019
      7  CG2      -32.8560   36.5400  -19.9560 C.3    13  ILE13       0.0020
      8  CD1      -35.8950   36.0170  -19.5230 C.3    13  ILE13       0.0001
      9  N        -32.6300   33.1040  -17.1330 N.am   14  GLU14      -0.1966
     10  CA       -33.1060   32.1200  -16.1640 C.3    14  GLU14       0.1733
     11  C        -34.6130   32.2780  -15.9860 C.2    14  GLU14       0.2617
     12  O        -35.1130   33.4030  -15.8300 O.2    14  GLU14      -0.2715
     13  CB       -32.4090   32.3050  -14.8130 C.3    14  GLU14       0.0429
     14  CG       -32.8410   31.2680  -13.7810 C.3    14  GLU14       0.1163
     15  CD       -32.1130   31.3440  -12.4520 C.2    14  GLU14       0.3649
     16  OE1      -31.5160   32.4040  -12.1410 O.co2  14  GLU14      -0.2457
     17  OE2      -32.1530   30.3350  -11.7130 O.co2  14  GLU14      -0.2457
     18  N        -35.3360   31.1590  -16.0020 N.am   15  THR15      -0.1937
     19  CA       -36.7820   31.1870  -15.7540 C.3    15  THR15       0.2028
     20  C        -37.1310   30.2780  -14.5850 C.2    15  THR15       0.2642
     21  O        -36.3120   29.4510  -14.1740 O.2    15  THR15      -0.2714
     22  CB       -37.5730   30.8730  -17.0290 C.3    15  THR15       0.1808
     23  OG1      -37.2050   29.5800  -17.5070 O.3    15  THR15      -0.2208
     24  CG2      -37.4020   31.9480  -18.1020 C.3    15  THR15       0.0379
     25  N        -38.3580   30.4210  -14.0730 N.am   16  MET16      -0.1976
     26  CA       -38.9430   29.6910  -12.9550 C.3    16  MET16       0.1605
     27  C        -38.4770   28.2210  -12.8570 C.2    16  MET16       0.2287
     28  O        -38.6540   27.4610  -13.8150 O.2    16  MET16      -0.2864
     29  CB       -40.4660   29.7700  -13.0710 C.3    16  MET16       0.0413
     30  CG       -41.1890   28.9990  -12.0030 C.3    16  MET16       0.0598
     31  SD       -42.9670   29.3070  -12.0300 S.3    16  MET16      -0.1393
     32  CE       -43.4370   28.4650  -13.5840 C.3    16  MET16       0.0692
     33  N        -33.9810   29.6000  -20.4700 N.3    21  THR21      -0.1218
     34  CA       -34.8370   29.7770  -21.6390 C.3    21  THR21       0.1862
     35  C        -34.0130   30.5680  -22.7020 C.2    21  THR21       0.2287
     36  O        -33.6330   31.7090  -22.4640 O.2    21  THR21      -0.2866
     37  CB       -36.1360   30.4660  -21.2680 C.3    21  THR21       0.1770
     38  OG1      -36.8480   29.6300  -20.3560 O.3    21  THR21      -0.2211
     39  CG2      -37.0110   30.7850  -22.4840 C.3    21  THR21       0.0375
     40  N        -39.0250   38.0550  -26.6700 N.3    36  GLN36      -0.1231
     41  CA       -39.9800   37.0640  -26.1690 C.3    36  GLN36       0.1698
     42  C        -40.6990   37.6570  -24.9690 C.2    36  GLN36       0.2592
     43  O        -40.0860   38.3780  -24.1850 O.2    36  GLN36      -0.2718
     44  CB       -39.2800   35.7470  -25.7900 C.3    36  GLN36       0.0381
     45  CG       -40.2270   34.5500  -25.7890 C.3    36  GLN36       0.0905
     46  CD       -39.5900   33.2430  -25.3590 C.2    36  GLN36       0.2608
     47  OE1      -38.4170   32.9440  -25.6360 O.2    36  GLN36      -0.2717
     48  NE2      -40.3730   32.4140  -24.7010 N.am   36  GLN36      -0.0878
     49  N        -42.0010   37.3770  -24.8430 N.am   37  VAL37      -0.1966
     50  CA       -42.7970   37.8880  -23.7160 C.3    37  VAL37       0.1727
     51  C        -42.7610   36.8560  -22.5830 C.2    37  VAL37       0.2616
     52  O        -42.9780   35.6670  -22.8190 O.2    37  VAL37      -0.2715
     53  CB       -44.2440   38.2630  -24.1610 C.3    37  VAL37       0.0290
     54  CG1      -45.1030   38.7410  -22.9860 C.3    37  VAL37       0.0023
     55  CG2      -44.2070   39.3250  -25.2580 C.3    37  VAL37       0.0023
     56  N        -42.4560   37.3190  -21.3700 N.am   38  PHE38      -0.1960
     57  CA       -42.4260   36.4900  -20.1700 C.3    38  PHE38       0.1771
     58  C        -43.4900   36.9970  -19.2000 C.2    38  PHE38       0.2620
     59  O        -44.0470   38.0720  -19.4010 O.2    38  PHE38      -0.2715
     60  CB       -41.0220   36.5420  -19.5100 C.3    38  PHE38       0.0574
     61  CG       -39.9590   35.8810  -20.3560 C.ar   38  PHE38      -0.0200
     62  CD1      -39.3540   36.5660  -21.4000 C.ar   38  PHE38      -0.0042
     63  CD2      -39.6120   34.5500  -20.1520 C.ar   38  PHE38      -0.0042
     64  CE1      -38.4080   35.9400  -22.2180 C.ar   38  PHE38      -0.0003
     65  CE2      -38.6570   33.9230  -20.9720 C.ar   38  PHE38      -0.0003
     66  CZ       -38.0730   34.6210  -22.0030 C.ar   38  PHE38      -0.0000
     67  N        -43.7940   36.2190  -18.1790 N.am   39  SER39      -0.1936
     68  CA       -44.7140   36.6790  -17.1470 C.3    39  SER39       0.2055
     69  C        -44.1100   36.4070  -15.7820 C.2    39  SER39       0.2644
     70  O        -42.9730   35.9460  -15.6950 O.2    39  SER39      -0.2714
     71  CB       -46.0830   36.0360  -17.2860 C.3    39  SER39       0.2130
     72  OG       -46.9910   36.8160  -16.5180 O.3    39  SER39      -0.2179
     73  N        -44.8530   36.7050  -14.7260 N.am   40  THR40      -0.1936
     74  CA       -44.4050   36.5170  -13.3350 C.3    40  THR40       0.2028
     75  C        -44.6360   35.0990  -12.8470 C.2    40  THR40       0.2642
     76  O        -45.6470   34.4850  -13.1880 O.2    40  THR40      -0.2714
     77  CB       -45.1440   37.4790  -12.4150 C.3    40  THR40       0.1808
     78  OG1      -46.5520   37.4090  -12.7210 O.3    40  THR40      -0.2208
     79  CG2      -44.5900   38.9190  -12.5020 C.3    40  THR40       0.0379
     80  N        -43.7240   34.6100  -11.9880 N.am   41  ALA41      -0.1963
     81  CA       -43.8130   33.2620  -11.4200 C.3    41  ALA41       0.1728
     82  C        -44.8810   33.1350  -10.3310 C.2    41  ALA41       0.2616
     83  O        -45.5610   32.1050  -10.2810 O.2    41  ALA41      -0.2715
     84  CB       -42.4590   32.8410  -10.8630 C.3    41  ALA41       0.0334
     85  N        -45.0300   34.1780   -9.4710 N.am   42  GLU42      -0.1977
     86  CA       -45.9290   34.1810   -8.2980 C.3    42  GLU42       0.1602
     87  C        -47.0390   35.2380   -8.3620 C.2    42  GLU42       0.2287
     88  O        -46.8750   36.2510   -9.0420 O.2    42  GLU42      -0.2864
     89  CB       -45.0930   34.4910   -7.0490 C.3    42  GLU42       0.0415
     90  CG       -43.9670   33.5180   -6.7470 C.3    42  GLU42       0.1163
     91  CD       -43.0080   34.0090   -5.6760 C.2    42  GLU42       0.3649
     92  OE1      -43.4850   34.4570   -4.6070 O.co2  42  GLU42      -0.2457
     93  OE2      -41.7780   33.9470   -5.9070 O.co2  42  GLU42      -0.2457
     94  N        -46.5460   39.5490   -7.7110 N.3    45  GLN45      -0.1245
     95  CA       -45.1270   39.8290   -7.8980 C.3    45  GLN45       0.1566
     96  C        -44.9060   41.2180   -8.5220 C.2    45  GLN45       0.2260
     97  O        -45.4020   41.5050   -9.6130 O.2    45  GLN45      -0.2867
     98  CB       -44.4920   38.7170   -8.7260 C.3    45  GLN45       0.0367
     99  CG       -42.9730   38.7100   -8.6890 C.3    45  GLN45       0.0905
    100  CD       -42.4490   37.5250   -9.4710 C.2    45  GLN45       0.2608
    101  OE1      -43.0800   36.4660   -9.5580 O.2    45  GLN45      -0.2717
    102  NE2      -41.2650   37.6660  -10.0220 N.am   45  GLN45      -0.0878
    103  N        -41.7080   42.6830   -8.8070 N.3    47  ALA47      -0.1231
    104  CA       -40.3770   42.8040   -9.3810 C.3    47  ALA47       0.1694
    105  C        -39.9370   41.4710   -9.9620 C.2    47  ALA47       0.2592
    106  O        -40.3150   40.4220   -9.4530 O.2    47  ALA47      -0.2718
    107  CB       -39.3880   43.2680   -8.3070 C.3    47  ALA47       0.0304
    108  N        -39.1320   41.5150  -11.0200 N.am   48  VAL48      -0.1966
    109  CA       -38.5620   40.3330  -11.6680 C.3    48  VAL48       0.1727
    110  C        -37.0530   40.5410  -11.8330 C.2    48  VAL48       0.2617
    111  O        -36.5830   41.6750  -11.9350 O.2    48  VAL48      -0.2715
    112  CB       -39.2220   39.9380  -13.0390 C.3    48  VAL48       0.0290
    113  CG1      -40.6980   39.5500  -12.8960 C.3    48  VAL48       0.0023
    114  CG2      -39.0270   40.9990  -14.1280 C.3    48  VAL48       0.0023
    115  N        -36.3070   39.4360  -11.8840 N.am   49  THR49      -0.1937
    116  CA       -34.8770   39.4510  -12.1530 C.3    49  THR49       0.2028
    117  C        -34.6660   38.9150  -13.5450 C.2    49  THR49       0.2642
    118  O        -35.2070   37.8600  -13.8940 O.2    49  THR49      -0.2714
    119  CB       -34.0950   38.6170  -11.1070 C.3    49  THR49       0.1808
    120  OG1      -34.2490   39.2700   -9.8630 O.3    49  THR49      -0.2208
    121  CG2      -32.5880   38.5710  -11.3980 C.3    49  THR49       0.0379
    122  N        -33.8540   39.6260  -14.3320 N.am   50  ILE50      -0.1977
    123  CA       -33.4610   39.2140  -15.6750 C.3    50  ILE50       0.1596
    124  C        -32.0070   38.8000  -15.5410 C.2    50  ILE50       0.2287
    125  O        -31.1450   39.6680  -15.4030 O.2    50  ILE50      -0.2864
    126  CB       -33.6530   40.3400  -16.7430 C.3    50  ILE50       0.0276
    127  CG1      -35.0960   40.9470  -16.7270 C.3    50  ILE50       0.0022
    128  CG2      -33.2520   39.8400  -18.1410 C.3    50  ILE50       0.0022
    129  CD1      -36.2670   39.9280  -16.8870 C.3    50  ILE50       0.0001
    130  N        -26.9450   40.6150  -14.8390 N.3    68  GLN68      -0.1245
    131  CA       -28.3220   40.5730  -14.3870 C.3    68  GLN68       0.1566
    132  C        -28.7750   41.9360  -13.9840 C.2    68  GLN68       0.2260
    133  O        -27.9460   42.7890  -13.6380 O.2    68  GLN68      -0.2867
    134  CB       -28.5470   39.5490  -13.2400 C.3    68  GLN68       0.0367
    135  CG       -27.8160   39.8410  -11.9270 C.3    68  GLN68       0.0905
    136  CD       -28.1310   38.7570  -10.9370 C.2    68  GLN68       0.2608
    137  OE1      -27.5000   37.6920  -10.9320 O.2    68  GLN68      -0.2717
    138  NE2      -29.1480   38.9830  -10.1100 N.am   68  GLN68      -0.0878
    139  N        -32.6650   44.0090  -12.3200 N.3    70  ASN70      -0.1240
    140  CA       -34.0260   43.8990  -11.8310 C.3    70  ASN70       0.1653
    141  C        -34.9330   44.8690  -12.5540 C.2    70  ASN70       0.2266
    142  O        -34.4970   45.9370  -12.9960 O.2    70  ASN70      -0.2867
    143  CB       -34.0830   44.1280  -10.3060 C.3    70  ASN70       0.1155
    144  CG       -33.3310   43.0710   -9.5260 C.2    70  ASN70       0.2627
    145  OD1      -33.2980   41.8890   -9.8940 O.2    70  ASN70      -0.2716
    146  ND2      -32.7150   43.4700   -8.4240 N.am   70  ASN70      -0.0877
    147  N        -50.4170   35.5910  -11.1090 N.3    79  ARG79      -0.1231
    148  CA       -49.2670   35.0830  -11.8830 C.3    79  ARG79       0.1694
    149  C        -49.7130   34.8040  -13.3300 C.2    79  ARG79       0.2592
    150  O        -50.8770   34.4640  -13.5430 O.2    79  ARG79      -0.2718
    151  CB       -48.6370   33.8430  -11.2120 C.3    79  ARG79       0.0321
    152  CG       -49.5810   32.6580  -11.0640 C.3    79  ARG79       0.0489
    153  CD       -49.1760   31.7600   -9.9080 C.3    79  ARG79       0.2205
    154  NE       -49.2890   30.3470  -10.2620 N.pl3  79  ARG79      -0.0865
    155  CZ       -48.8390   29.3420   -9.5150 C.cat  79  ARG79       0.5346
    156  NH1      -48.2440   29.5810   -8.3530 N.pl3  79  ARG79       0.1354
    157  NH2      -48.9730   28.0880   -9.9290 N.pl3  79  ARG79       0.1354
    158  N        -48.8510   35.0830  -14.3020 N.am   80  GLY80      -0.1957
    159  CA       -49.2070   34.8900  -15.7060 C.3    80  GLY80       0.1869
    160  C        -49.8870   36.0740  -16.3700 C.2    80  GLY80       0.2309
    161  O        -49.9640   36.1320  -17.5980 O.2    80  GLY80      -0.2863
    162  N        -48.9600   39.7130  -15.9240 N.3    82  PRO82      -0.2102
    163  CA       -48.0030   40.6880  -16.4820 C.3    82  PRO82       0.1504
    164  C        -47.3650   40.2280  -17.8030 C.2    82  PRO82       0.2576
    165  O        -47.1970   39.0270  -18.0210 O.2    82  PRO82      -0.2718
    166  CB       -46.9450   40.8050  -15.3720 C.3    82  PRO82       0.0282
    167  CG       -47.6780   40.4450  -14.1250 C.3    82  PRO82       0.0208
    168  CD       -48.5620   39.3250  -14.5480 C.3    82  PRO82       0.0893
    169  N        -47.1110   41.1770  -18.7230 N.am   83  GLN83      -0.1966
    170  CA       -46.4830   40.8780  -20.0110 C.3    83  GLN83       0.1733
    171  C        -45.1410   41.6190  -20.0220 C.2    83  GLN83       0.2616
    172  O        -45.1000   42.8420  -20.1850 O.2    83  GLN83      -0.2715
    173  CB       -47.3740   41.2920  -21.2020 C.3    83  GLN83       0.0408
    174  CG       -48.8170   40.7920  -21.1350 C.3    83  GLN83       0.0908
    175  CD       -49.6420   41.3540  -22.2790 C.2    83  GLN83       0.2608
    176  OE1      -50.0820   40.6160  -23.1690 O.2    83  GLN83      -0.2717
    177  NE2      -49.8480   42.6780  -22.3120 N.am   83  GLN83      -0.0878
    178  N        -44.0590   40.8770  -19.7320 N.am   84  ILE84      -0.1977
    179  CA       -42.7130   41.4270  -19.6670 C.3    84  ILE84       0.1596
    180  C        -41.9940   41.0770  -20.9550 C.2    84  ILE84       0.2287
    181  O        -41.5630   39.9490  -21.1130 O.2    84  ILE84      -0.2864
    182  CB       -41.9220   40.9470  -18.4140 C.3    84  ILE84       0.0276
    183  CG1      -42.7840   40.9240  -17.0940 C.3    84  ILE84       0.0022
    184  CG2      -40.5620   41.6760  -18.2730 C.3    84  ILE84       0.0022
    185  CD1      -43.1140   42.1770  -16.4920 C.3    84  ILE84       0.0001
    186  N        -38.9200   40.7730  -23.1350 N.3    86  VAL86      -0.1245
    187  CA       -37.4610   40.7120  -22.9930 C.3    86  VAL86       0.1561
    188  C        -36.8710   40.6840  -24.4040 C.2    86  VAL86       0.2260
    189  O        -37.2610   39.8320  -25.2130 O.2    86  VAL86      -0.2867
    190  CB       -37.0110   39.4880  -22.1230 C.3    86  VAL86       0.0252
    191  CG1      -35.4730   39.3780  -22.0470 C.3    86  VAL86       0.0019
    192  CG2      -37.6210   39.5650  -20.7120 C.3    86  VAL86       0.0019
    193  N        -45.2840   45.6560  -20.0750 N.3   103  LYS103     -0.1245
    194  CA       -46.2630   46.3150  -20.9550 C.3   103  LYS103      0.1561
    195  C        -47.3140   47.1700  -20.2530 C.2   103  LYS103      0.2260
    196  O        -47.6390   48.2490  -20.7550 O.2   103  LYS103     -0.2867
    197  CB       -46.9120   45.3330  -21.9370 C.3   103  LYS103      0.0271
    198  CG       -45.9380   44.8420  -23.0160 C.3   103  LYS103      0.0035
    199  CD       -46.6640   44.0440  -24.1030 C.3   103  LYS103      0.0206
    200  CE       -45.7080   43.2210  -24.9340 C.3   103  LYS103      0.1093
    201  NZ       -46.4260   42.4330  -25.9690 N.3   103  LYS103     -0.1314
    202  N        -40.8440   21.0780  -15.3990 N.3   146  GLN146     -0.1245
    203  CA       -42.1900   21.2510  -15.9740 C.3   146  GLN146      0.1566
    204  C        -43.2240   20.6130  -15.0630 C.2   146  GLN146      0.2260
    205  O        -44.2640   21.2240  -14.7960 O.2   146  GLN146     -0.2867
    206  CB       -42.2820   20.6530  -17.3880 C.3   146  GLN146      0.0367
    207  CG       -41.6180   21.5470  -18.4450 C.3   146  GLN146      0.0905
    208  CD       -41.2650   20.8470  -19.7430 C.2   146  GLN146      0.2608
    209  OE1      -41.5810   19.6690  -19.9740 O.2   146  GLN146     -0.2717
    210  NE2      -40.5810   21.5700  -20.6240 N.am  146  GLN146     -0.0878
    211  N        -46.1110   22.3520  -12.9910 N.3   150  GLN150     -0.1245
    212  CA       -47.5010   21.8750  -13.1590 C.3   150  GLN150      0.1566
    213  C        -48.0540   21.4400  -11.8030 C.2   150  GLN150      0.2260
    214  O        -49.2490   21.6070  -11.5430 O.2   150  GLN150     -0.2867
    215  CB       -47.5850   20.6680  -14.1160 C.3   150  GLN150      0.0367
    216  CG       -47.4640   21.0070  -15.5960 C.3   150  GLN150      0.0905
    217  CD       -47.4360   19.7530  -16.4320 C.2   150  GLN150      0.2608
    218  OE1      -48.4650   19.1160  -16.6720 O.2   150  GLN150     -0.2717
    219  NE2      -46.2540   19.3570  -16.8820 N.am  150  GLN150     -0.0878
    220  N        -49.0200   24.4350  -10.1410 N.3   153  HIS153     -0.1241
    221  CA       -50.2780   24.9180  -10.7510 C.3   153  HIS153      0.1621
    222  C        -51.4750   24.1920  -10.1300 C.2   153  HIS153      0.2264
    223  O        -52.4890   24.8310   -9.8350 O.2   153  HIS153     -0.2867
    224  CB       -50.2760   24.7490  -12.2930 C.3   153  HIS153      0.0745
    225  CG       -51.6430   24.7640  -12.9250 C.ar  153  HIS153      0.0817
    226  ND1      -52.2990   25.9560  -13.2160 N.ar  153  HIS153     -0.2268
    227  CD2      -52.4470   23.7300  -13.2780 C.ar  153  HIS153      0.1154
    228  CE1      -53.4650   25.6080  -13.7420 C.ar  153  HIS153      0.1986
    229  NE2      -53.6040   24.2810  -13.7910 N.ar  153  HIS153     -0.2212
@<TRIPOS>BOND
     1    40    41    1
     2    41    44    1
     3    41    42    1
     4   201   200    1
     5    44    45    1
     6    45    46    1
     7    47    46    2
     8    46    48   am
     9    55    53    1
    10   189   188    2
    11    42    49   am
    12    42    43    2
    13   200   199    1
    14    49    50    1
    15   188   187    1
    16    53    50    1
    17    53    54    1
    18   199   198    1
    19    50    51    1
    20   176   175    2
    21   186   187    1
    22   198   197    1
    23   187   190    1
    24    52    51    2
    25    35    36    2
    26    35    34    1
    27    51    56   am
    28    39    37    1
    29   177   175   am
    30   175   174    1
    31    64    66   ar
    32    64    62   ar
    33   190   191    1
    34   190   192    1
    35    66    65   ar
    36   197   194    1
    37    34    37    1
    38    34    33    1
    39    62    61   ar
    40    56    57    1
    41    37    38    1
    42   173   174    1
    43   173   170    1
    44   181   180    2
    45    65    63   ar
    46   194   195    1
    47   194   193    1
    48   180   179    1
    49   196   195    2
    50     1     2    1
    51   210   208   am
    52    61    63   ar
    53    61    60    1
    54   172   171    2
    55    57    60    1
    56    57    58    1
    57   171   170    1
    58   171   178   am
    59   170   169    1
    60   209   208    2
    61     7     5    1
    62     6     8    1
    63     6     5    1
    64   208   207    1
    65   178   179    1
    66   179   182    1
    67    59    58    2
    68     2     5    1
    69     2     3    1
    70    58    67   am
    71     4     3    2
    72   169   164   am
    73   207   206    1
    74     3     9   am
    75   182   184    1
    76   182   183    1
    77    67    68    1
    78   128   126    1
    79    24    22    1
    80   165   164    2
    81   164   163    1
    82   161   160    2
    83    23    22    1
    84   206   203    1
    85    71    68    1
    86    71    72    1
    87    68    69    1
    88     9    10    1
    89   183   185    1
    90    22    19    1
    91   129   127    1
    92   219   217   am
    93   126   127    1
    94   126   123    1
    95   218   217    2
    96   163   162    1
    97   163   166    1
    98   217   216    1
    99   160   159    1
   100    10    11    1
   101    10    13    1
   102    18    11   am
   103    18    19    1
   104    11    12    2
   105   203   202    1
   106   203   204    1
   107   162   168    1
   108    69    70    2
   109    69    73   am
   110    19    20    1
   111   159   158    1
   112   123   124    1
   113   123   122    1
   114   216   215    1
   115   124   125    2
   116   166   167    1
   117   204   205    2
   118   130   131    1
   119    13    14    1
   120    73    74    1
   121    20    21    2
   122    20    25   am
   123   168   167    1
   124   131   132    1
   125   131   134    1
   126   122   117   am
   127   158   149   am
   128   114   112    1
   129   215   212    1
   130    25    26    1
   131   132   133    2
   132   118   117    2
   133    28    27    2
   134   229   228   ar
   135   229   227   ar
   136    14    15    1
   137   228   226   ar
   138    32    31    1
   139   117   116    1
   140   150   149    2
   141    74    75    1
   142    74    77    1
   143   149   148    1
   144   227   225   ar
   145   134   135    1
   146   226   225   ar
   147    76    75    2
   148   212   211    1
   149   212   213    1
   150    29    26    1
   151    29    30    1
   152   112   113    1
   153   112   109    1
   154   142   141    2
   155    26    27    1
   156   225   224    1
   157    75    80   am
   158    78    77    1
   159   141   140    1
   160    79    77    1
   161    15    16   ar
   162    15    17   ar
   163   139   140    1
   164   224   221    1
   165   116   115    1
   166   116   119    1
   167    31    30    1
   168    80    81    1
   169   111   110    2
   170   135   136    1
   171   115   110   am
   172   148   151    1
   173   148   147    1
   174   110   109    1
   175   140   143    1
   176   213   214    2
   177   109   108    1
   178    81    84    1
   179    81    82    1
   180   121   119    1
   181   151   152    1
   182   119   120    1
   183   152   153    1
   184   108   105   am
   185   136   137    2
   186   136   138   am
   187   221   220    1
   188   221   222    1
   189    82    83    2
   190    82    85   am
   191   143   144    1
   192   154   153    1
   193   154   155    2
   194   222   223    2
   195   102   100   am
   196   105   106    2
   197   105   104    1
   198   157   155    1
   199   145   144    2
   200    97    96    2
   201   101   100    2
   202   144   146   am
   203   155   156    1
   204   100    99    1
   205    85    86    1
   206   104   103    1
   207   104   107    1
   208    88    87    2
   209    98    99    1
   210    98    95    1
   211    96    95    1
   212    87    86    1
   213    86    89    1
   214    95    94    1
   215    89    90    1
   216    90    91    1
   217    93    91   ar
   218    91    92   ar
