@<TRIPOS>MOLECULE
tmp/4jwhA00.pdb
 174 164 0 0 0
SMALL
GASTEIGER

@<TRIPOS>ATOM
      1  N         13.0950    5.0560    7.1850 N.3   100  LEU100     -0.1231
      2  CA        11.8530    4.8820    7.9410 C.3   100  LEU100      0.1693
      3  C         12.1600    4.4300    9.3790 C.2   100  LEU100      0.2593
      4  O         12.8790    3.4530    9.5850 O.2   100  LEU100     -0.2718
      5  CB        10.9680    3.8680    7.2180 C.3   100  LEU100      0.0284
      6  CG        10.4850    4.3970    5.8380 C.3   100  LEU100      0.0019
      7  CD1        9.7530    3.3500    5.0650 C.3   100  LEU100      0.0001
      8  CD2        9.5600    5.6290    6.0190 C.3   100  LEU100      0.0001
      9  N         11.6270    5.1580   10.3600 N.am  101  SER101     -0.1938
     10  CA        11.8100    4.8140   11.7760 C.3   101  SER101      0.2055
     11  C         10.5770    5.2140   12.6090 C.2   101  SER101      0.2643
     12  O         10.0800    6.3320   12.4820 O.2   101  SER101     -0.2714
     13  CB        13.0980    5.4750   12.3390 C.3   101  SER101      0.2130
     14  OG        13.1640    5.4350   13.7690 O.3   101  SER101     -0.2179
     15  N         10.1000    4.3140   13.4610 N.am  102  ALA102     -0.1963
     16  CA         9.0000    4.6650   14.3660 C.3   102  ALA102      0.1728
     17  C          9.3570    5.8260   15.3240 C.2   102  ALA102      0.2616
     18  O          8.4800    6.5020   15.8500 O.2   102  ALA102     -0.2715
     19  CB         8.5410    3.4380   15.1360 C.3   102  ALA102      0.0334
     20  N         10.6510    6.0510   15.5190 N.am  103  ASP103     -0.1971
     21  CA        11.1930    7.0510   16.4540 C.3   103  ASP103      0.1709
     22  C         11.4030    8.4520   15.8750 C.2   103  ASP103      0.2293
     23  O         11.7650    9.3810   16.6080 O.2   103  ASP103     -0.2864
     24  CB        12.4960    6.5100   17.0600 C.3   103  ASP103      0.1436
     25  CG        12.3000    5.1180   17.7190 C.2   103  ASP103      0.3671
     26  OD1       11.3200    4.9600   18.4860 O.co2 103  ASP103     -0.2456
     27  OD2       13.0960    4.1730   17.4730 O.co2 103  ASP103     -0.2456
     28  N         14.2030    0.5210    5.0000 N.3   119  ILE119     -0.1231
     29  CA        13.6640   -0.2300    6.1510 C.3   119  ILE119      0.1692
     30  C         14.8290   -0.9040    6.8800 C.2   119  ILE119      0.2592
     31  O         15.6680   -1.5660    6.2370 O.2   119  ILE119     -0.2718
     32  CB        12.6340   -1.2970    5.7020 C.3   119  ILE119      0.0266
     33  CG1       11.5420   -0.6440    4.8210 C.3   119  ILE119      0.0019
     34  CG2       12.0460   -2.0300    6.9280 C.3   119  ILE119      0.0020
     35  CD1       10.6250   -1.6190    4.0910 C.3   119  ILE119      0.0001
     36  N         14.9100   -0.7240    8.2050 N.am  120  GLY120     -0.1957
     37  CA        15.8710   -1.5020    9.0140 C.3   120  GLY120      0.1869
     38  C         15.6080   -3.0010    8.9920 C.2   120  GLY120      0.2309
     39  O         14.5410   -3.4580    9.4030 O.2   120  GLY120     -0.2863
     40  N         15.8800   -5.7840   10.7560 N.3   122  ILE122     -0.1245
     41  CA        16.1550   -6.2830   12.0960 C.3   122  ILE122      0.1561
     42  C         14.8720   -6.7240   12.8180 C.2   122  ILE122      0.2260
     43  O         13.8290   -6.0810   12.7280 O.2   122  ILE122     -0.2867
     44  CB        16.9430   -5.2270   12.9530 C.3   122  ILE122      0.0252
     45  CG1       17.3850   -5.8390   14.3070 C.3   122  ILE122      0.0019
     46  CG2       16.1490   -3.9140   13.1040 C.3   122  ILE122      0.0019
     47  CD1       18.2880   -4.9610   15.1400 C.3   122  ILE122      0.0001
     48  N         13.9590   -7.2530   16.4840 N.3   124  ASP124     -0.1239
     49  CA        14.4600   -6.9860   17.8290 C.3   124  ASP124      0.1674
     50  C         13.3470   -6.8280   18.8690 C.2   124  ASP124      0.2266
     51  O         13.6360   -6.7540   20.0550 O.2   124  ASP124     -0.2867
     52  CB        15.4370   -5.7850   17.7730 C.3   124  ASP124      0.1410
     53  CG        14.7350   -4.4470   17.6140 C.2   124  ASP124      0.3668
     54  OD1       13.6950   -4.4030   16.9390 O.co2 124  ASP124     -0.2456
     55  OD2       15.2260   -3.4270   18.1540 O.co2 124  ASP124     -0.2456
     56  N         11.7550   -4.2200   19.0390 N.3   126  ASN126     -0.1240
     57  CA        12.1220   -2.8760   19.4450 C.3   126  ASN126      0.1653
     58  C         12.9300   -2.7220   20.7620 C.2   126  ASN126      0.2266
     59  O         12.9000   -1.6630   21.3810 O.2   126  ASN126     -0.2867
     60  CB        10.9010   -1.9490   19.4430 C.3   126  ASN126      0.1155
     61  CG        11.2900   -0.4980   19.2730 C.2   126  ASN126      0.2627
     62  OD1       12.1760   -0.1710   18.4710 O.2   126  ASN126     -0.2716
     63  ND2       10.6390    0.3840   20.0260 N.am  126  ASN126     -0.0877
     64  N         15.9980   -2.3930   20.7160 N.3   128  TYR128     -0.1241
     65  CA        16.9490   -1.3660   20.3200 C.3   128  TYR128      0.1605
     66  C         16.2890   -0.0530   19.9320 C.2   128  TYR128      0.2264
     67  O         16.2870    0.3250   18.7730 O.2   128  TYR128     -0.2867
     68  CB        17.8790   -1.8650   19.2080 C.3   128  TYR128      0.0534
     69  CG        18.5770   -3.1360   19.5570 C.ar  128  TYR128     -0.0201
     70  CD1       19.5240   -3.1850   20.5850 C.ar  128  TYR128     -0.0009
     71  CD2       18.2960   -4.3020   18.8630 C.ar  128  TYR128     -0.0009
     72  CE1       20.1780   -4.3900   20.9110 C.ar  128  TYR128      0.0417
     73  CE2       18.9180   -5.5060   19.1860 C.ar  128  TYR128      0.0417
     74  CZ        19.8600   -5.5420   20.2070 C.ar  128  TYR128      0.1957
     75  OH        20.4760   -6.7400   20.4890 O.3   128  TYR128     -0.2866
     76  N         17.5750    2.8920   17.4510 N.3   131  LEU131     -0.1231
     77  CA        18.7030    2.3450   16.6880 C.3   131  LEU131      0.1693
     78  C         18.7520    2.9710   15.2900 C.2   131  LEU131      0.2592
     79  O         19.7570    3.6100   14.8790 O.2   131  LEU131     -0.2718
     80  CB        18.5930    0.8200   16.6120 C.3   131  LEU131      0.0284
     81  CG        19.5980    0.0390   15.7470 C.3   131  LEU131      0.0019
     82  CD1       20.9140   -0.1830   16.4700 C.3   131  LEU131      0.0001
     83  CD2       18.9870   -1.2860   15.3390 C.3   131  LEU131      0.0001
     84  N         17.6750    2.7890   14.5440 N.am  132  CYS132     -0.1956
     85  CA        17.6920    3.2470   13.1430 C.3   132  CYS132      0.1843
     86  C         17.6750    4.7590   13.0700 C.2   132  CYS132      0.2625
     87  O         18.3830    5.3700   12.2540 O.2   132  CYS132     -0.2714
     88  CB        16.5790    2.5760   12.3190 C.3   132  CYS132      0.0997
     89  SG        16.9220    0.7940   12.1950 S.3   132  CYS132     -0.0797
     90  N         16.9100    5.3740   13.9750 N.am  133  GLN133     -0.1977
     91  CA        16.9030    6.8160   14.0400 C.3   133  GLN133      0.1601
     92  C         18.3320    7.3310   14.2400 C.2   133  GLN133      0.2287
     93  O         18.7290    8.2990   13.6000 O.2   133  GLN133     -0.2864
     94  CB        15.9390    7.3280   15.1320 C.3   133  GLN133      0.0394
     95  CG        15.9080    8.8760   15.3140 C.3   133  GLN133      0.0908
     96  CD        15.3070    9.6420   14.1170 C.2   133  GLN133      0.2608
     97  OE1       14.4410    9.1440   13.4140 O.2   133  GLN133     -0.2717
     98  NE2       15.7690   10.8660   13.9070 N.am  133  GLN133     -0.0878
     99  N         11.5720    9.3570    8.9060 N.3   144  ALA144     -0.1231
    100  CA        10.1260    9.5740    8.8900 C.3   144  ALA144      0.1694
    101  C          9.4600    8.3360    9.4520 C.2   144  ALA144      0.2592
    102  O          9.8710    7.1900    9.1310 O.2   144  ALA144     -0.2718
    103  CB         9.6400    9.8170    7.4740 C.3   144  ALA144      0.0304
    104  N          8.4400    8.5410   10.2890 N.am  145  LYS145     -0.1966
    105  CA         7.6010    7.4420   10.7400 C.3   145  LYS145      0.1728
    106  C          6.3210    7.3550    9.9310 C.2   145  LYS145      0.2616
    107  O          5.8580    8.3490    9.3810 O.2   145  LYS145     -0.2715
    108  CB         7.2550    7.5950   12.2130 C.3   145  LYS145      0.0311
    109  CG         6.3420    8.7690   12.4950 C.3   145  LYS145      0.0038
    110  CD         6.2240    8.9590   13.9740 C.3   145  LYS145      0.0206
    111  CE         5.7870   10.3990   14.3190 C.3   145  LYS145      0.1093
    112  NZ         4.9010   10.2120   15.4950 N.3   145  LYS145     -0.1314
    113  N          5.7470    6.1600    9.8750 N.am  146  LEU146     -0.1977
    114  CA         4.4850    5.9250    9.2050 C.3   146  LEU146      0.1596
    115  C          3.3730    6.7260    9.9010 C.2   146  LEU146      0.2287
    116  O          3.4160    6.8980   11.1350 O.2   146  LEU146     -0.2864
    117  CB         4.1350    4.4320    9.2210 C.3   146  LEU146      0.0297
    118  CG         4.9650    3.5290    8.2900 C.3   146  LEU146      0.0022
    119  CD1        4.5810    2.0840    8.4780 C.3   146  LEU146      0.0001
    120  CD2        4.7650    3.9440    6.8430 C.3   146  LEU146      0.0001
    121  N          0.7710    6.3340   11.3610 N.3   148  ILE148     -0.1245
    122  CA        -0.0260    5.2900   11.9900 C.3   148  ILE148      0.1561
    123  C         -1.0640    5.9170   12.9170 C.2   148  ILE148      0.2260
    124  O         -2.2620    5.6600   12.7700 O.2   148  ILE148     -0.2867
    125  CB         0.8720    4.2830   12.7330 C.3   148  ILE148      0.0252
    126  CG1        1.4440    3.2730   11.7530 C.3   148  ILE148      0.0019
    127  CG2        0.0970    3.5530   13.7960 C.3   148  ILE148      0.0019
    128  CD1        2.2400    2.1780   12.4050 C.3   148  ILE148      0.0001
    129  N          2.6640   -0.1070   17.2890 N.3   154  LYS154     -0.1231
    130  CA         3.4160    1.0770   16.8820 C.3   154  LYS154      0.1693
    131  C          4.6450    0.6980   16.0160 C.2   154  LYS154      0.2592
    132  O          4.9090    1.2990   14.9570 O.2   154  LYS154     -0.2718
    133  CB         3.8460    1.8760   18.1210 C.3   154  LYS154      0.0285
    134  CG         4.4290    3.2080   17.7740 C.3   154  LYS154      0.0035
    135  CD         3.4300    4.2210   17.2550 C.3   154  LYS154      0.0206
    136  CE         4.1010    5.5870   17.1320 C.3   154  LYS154      0.1093
    137  NZ         3.4200    6.5090   16.1930 N.3   154  LYS154     -0.1314
    138  N          5.3980   -0.3020   16.4670 N.am  155  ILE155     -0.1966
    139  CA         6.5710   -0.7350   15.7130 C.3   155  ILE155      0.1727
    140  C          6.2440   -2.0250   14.9460 C.2   155  ILE155      0.2616
    141  O          5.9660   -3.0880   15.5210 O.2   155  ILE155     -0.2715
    142  CB         7.8550   -0.8040   16.5880 C.3   155  ILE155      0.0290
    143  CG1        8.2210    0.5920   17.1120 C.3   155  ILE155      0.0022
    144  CG2        9.0540   -1.2750   15.7720 C.3   155  ILE155      0.0023
    145  CD1        7.3430    1.1460   18.2450 C.3   155  ILE155      0.0001
    146  N          6.2300   -1.9040   13.6280 N.am  156  LEU156     -0.1963
    147  CA         5.7910   -3.0120   12.7920 C.3   156  LEU156      0.1728
    148  C          6.9980   -3.8350   12.3370 C.2   156  LEU156      0.2617
    149  O          8.1390   -3.4040   12.5110 O.2   156  LEU156     -0.2715
    150  CB         5.0050   -2.4710   11.6020 C.3   156  LEU156      0.0311
    151  CG         3.8040   -1.5570   11.9040 C.3   156  LEU156      0.0022
    152  CD1        3.2370   -1.0030   10.6200 C.3   156  LEU156      0.0001
    153  CD2        2.7260   -2.2940   12.6770 C.3   156  LEU156      0.0001
    154  N          6.7440   -5.0060   11.7630 N.am  157  THR157     -0.1937
    155  CA         7.8210   -5.8630   11.2980 C.3   157  THR157      0.2028
    156  C          8.3280   -5.3260    9.9410 C.2   157  THR157      0.2642
    157  O          7.6480   -4.5140    9.2850 O.2   157  THR157     -0.2714
    158  CB         7.3690   -7.3280   11.1180 C.3   157  THR157      0.1808
    159  OG1        6.4500   -7.4140   10.0210 O.3   157  THR157     -0.2208
    160  CG2        6.7250   -7.9020   12.4110 C.3   157  THR157      0.0379
    161  N          9.5100   -5.7890    9.5320 N.am  158  VAL158     -0.1977
    162  CA        10.0740   -5.4270    8.2240 C.3   158  VAL158      0.1596
    163  C          9.0390   -5.6360    7.1080 C.2   158  VAL158      0.2287
    164  O          8.7600   -4.7220    6.3320 O.2   158  VAL158     -0.2864
    165  CB        11.3560   -6.2240    7.9210 C.3   158  VAL158      0.0276
    166  CG1       11.8350   -5.9550    6.4840 C.3   158  VAL158      0.0022
    167  CG2       12.4590   -5.9110    8.9640 C.3   158  VAL158      0.0022
    168  N          5.8750   -3.2800    7.1750 N.3   161  VAL161     -0.1245
    169  CA         6.1670   -1.9230    6.7100 C.3   161  VAL161      0.1561
    170  C          6.2680   -1.9540    5.1940 C.2   161  VAL161      0.2260
    171  O          5.6630   -1.1500    4.5080 O.2   161  VAL161     -0.2867
    172  CB         7.5060   -1.4300    7.3260 C.3   161  VAL161      0.0252
    173  CG1        7.9850   -0.1550    6.6270 C.3   161  VAL161      0.0019
    174  CG2        7.3000   -1.1770    8.8210 C.3   161  VAL161      0.0019
@<TRIPOS>BOND
     1    35    33    1
     2   171   170    2
     3    33    32    1
     4    28    29    1
     5     7     6    1
     6   170   169    1
     7    32    29    1
     8    32    34    1
     9     6     8    1
    10     6     5    1
    11    29    30    1
    12    31    30    2
    13   164   163    2
    14   166   165    1
    15   173   172    1
    16   169   168    1
    17   169   172    1
    18   120   118    1
    19    30    36   am
    20   163   162    1
    21     1     2    1
    22     5     2    1
    23   172   174    1
    24   103   100    1
    25   165   162    1
    26   165   167    1
    27     2     3    1
    28    36    37    1
    29   162   161    1
    30   118   119    1
    31   118   117    1
    32   100    99    1
    33   100   101    1
    34    38    37    1
    35    38    39    2
    36   102   101    2
    37   114   117    1
    38   114   113    1
    39   114   115    1
    40   157   156    2
    41     3     4    2
    42     3     9   am
    43   107   106    2
    44   101   104   am
    45   161   156   am
    46   113   106   am
    47   115   116    2
    48   106   105    1
    49   156   155    1
    50   159   158    1
    51   104   105    1
    52     9    10    1
    53   152   151    1
    54   105   108    1
    55    40    41    1
    56   158   155    1
    57   158   160    1
    58   155   154    1
    59   121   122    1
    60   150   151    1
    61   150   147    1
    62   126   128    1
    63   126   125    1
    64   154   148   am
    65    10    13    1
    66    10    11    1
    67   151   153    1
    68   122   125    1
    69   122   123    1
    70    41    42    1
    71    41    44    1
    72    89    88    1
    73   108   109    1
    74    87    86    2
    75    88    85    1
    76   148   149    2
    77   148   147    1
    78    13    14    1
    79    12    11    2
    80   109   110    1
    81    11    15   am
    82    43    42    2
    83   125   127    1
    84   124   123    2
    85   147   146    1
    86    44    46    1
    87    44    45    1
    88    86    85    1
    89    86    90   am
    90    85    84    1
    91    97    96    2
    92    15    16    1
    93    93    92    2
    94   146   140   am
    95    98    96   am
    96   110   111    1
    97    90    91    1
    98    91    92    1
    99    91    94    1
   100    96    95    1
   101    45    47    1
   102   111   112    1
   103    16    19    1
   104    16    17    1
   105    84    78   am
   106    79    78    2
   107   140   141    2
   108   140   139    1
   109   132   131    2
   110    94    95    1
   111    78    77    1
   112    17    20   am
   113    17    18    2
   114    83    81    1
   115    20    21    1
   116   139   138    1
   117   139   142    1
   118    81    82    1
   119    81    80    1
   120   144   142    1
   121    22    21    1
   122    22    23    2
   123   131   138   am
   124   131   130    1
   125   137   136    1
   126    21    24    1
   127    48    49    1
   128   142   143    1
   129    80    77    1
   130    77    76    1
   131   130   129    1
   132   130   133    1
   133    54    53   ar
   134    24    25    1
   135   143   145    1
   136   136   135    1
   137   135   134    1
   138    27    25   ar
   139    53    52    1
   140    53    55   ar
   141    25    26   ar
   142    52    49    1
   143   134   133    1
   144    49    50    1
   145    62    61    2
   146    67    66    2
   147    71    73   ar
   148    71    69   ar
   149    50    51    2
   150    56    57    1
   151    73    74   ar
   152    68    69    1
   153    68    65    1
   154    61    60    1
   155    61    63   am
   156    60    57    1
   157    57    58    1
   158    69    70   ar
   159    66    65    1
   160    74    75    1
   161    74    72   ar
   162    65    64    1
   163    70    72   ar
   164    58    59    2
