@<TRIPOS>MOLECULE
tmp/4jwiA00.pdb
 209 201 0 0 0
SMALL
GASTEIGER

@<TRIPOS>ATOM
      1  N        -32.1370   33.1470  -20.7610 N.3    13  ILE13      -0.1231
      2  CA       -32.3510   33.5770  -19.3860 C.3    13  ILE13       0.1692
      3  C        -32.7730   32.4270  -18.5060 C.2    13  ILE13       0.2592
      4  O        -33.2700   31.4160  -19.0020 O.2    13  ILE13      -0.2718
      5  CB       -33.3950   34.7410  -19.3290 C.3    13  ILE13       0.0266
      6  CG1      -34.7980   34.2950  -19.8280 C.3    13  ILE13       0.0019
      7  CG2      -32.8990   36.0300  -20.0170 C.3    13  ILE13       0.0020
      8  CD1      -35.9000   35.4320  -19.7190 C.3    13  ILE13       0.0001
      9  N        -32.6330   32.6130  -17.1860 N.am   14  GLU14      -0.1966
     10  CA       -33.1170   31.6160  -16.2330 C.3    14  GLU14       0.1733
     11  C        -34.6290   31.8260  -16.0720 C.2    14  GLU14       0.2617
     12  O        -35.0980   32.9610  -15.9470 O.2    14  GLU14      -0.2715
     13  CB       -32.3960   31.7630  -14.8830 C.3    14  GLU14       0.0429
     14  CG       -32.9090   30.8150  -13.8060 C.3    14  GLU14       0.1163
     15  CD       -32.0090   30.7450  -12.5900 C.2    14  GLU14       0.3649
     16  OE1      -31.0660   31.5670  -12.4910 O.co2  14  GLU14      -0.2457
     17  OE2      -32.2290   29.8450  -11.7480 O.co2  14  GLU14      -0.2457
     18  N        -35.3990   30.7280  -16.1090 N.am   15  THR15      -0.1937
     19  CA       -36.8400   30.8130  -15.9340 C.3    15  THR15       0.2028
     20  C        -37.2240   29.9060  -14.7620 C.2    15  THR15       0.2642
     21  O        -36.3710   29.1830  -14.2350 O.2    15  THR15      -0.2714
     22  CB       -37.5690   30.5180  -17.2450 C.3    15  THR15       0.1808
     23  OG1      -37.2760   29.1830  -17.6670 O.3    15  THR15      -0.2208
     24  CG2      -37.2350   31.5400  -18.3540 C.3    15  THR15       0.0379
     25  N        -38.4850   29.9740  -14.3470 N.am   16  MET16      -0.1962
     26  CA       -39.0560   29.2480  -13.2180 C.3    16  MET16       0.1736
     27  C        -38.5630   27.8120  -13.0820 C.2    16  MET16       0.2617
     28  O        -38.6830   27.0180  -14.0160 O.2    16  MET16      -0.2715
     29  CB       -40.5770   29.3070  -13.2490 C.3    16  MET16       0.0427
     30  CG       -41.1990   28.6470  -12.0270 C.3    16  MET16       0.0599
     31  SD       -42.9740   28.5680  -12.1780 S.3    16  MET16      -0.1393
     32  CE       -43.3610   27.7350  -10.5550 C.3    16  MET16       0.0692
     33  N        -38.0090   27.5140  -11.9170 N.am   17  GLY17      -0.1940
     34  CA       -37.5180   26.1720  -11.6050 C.3    17  GLY17       0.2014
     35  C        -36.0470   25.9210  -11.8770 C.2    17  GLY17       0.2639
     36  O        -35.5730   24.8110  -11.6260 O.2    17  GLY17      -0.2714
     37  N        -35.3130   26.9470  -12.3360 N.am   18  GLY18      -0.1954
     38  CA       -33.8620   26.8640  -12.5490 C.3    18  GLY18       0.1869
     39  C        -33.4150   26.3000  -13.8800 C.2    18  GLY18       0.2309
     40  O        -32.3450   25.6880  -13.9770 O.2    18  GLY18      -0.2863
     41  N        -33.8180   29.1640  -20.5360 N.3    21  THR21      -0.1218
     42  CA       -34.6890   29.2710  -21.7130 C.3    21  THR21       0.1862
     43  C        -33.8820   30.0610  -22.7590 C.2    21  THR21       0.2287
     44  O        -33.4850   31.2010  -22.5030 O.2    21  THR21      -0.2866
     45  CB       -36.0220   29.9600  -21.3790 C.3    21  THR21       0.1770
     46  OG1      -36.7450   29.1310  -20.4640 O.3    21  THR21      -0.2211
     47  CG2      -36.8830   30.2240  -22.6330 C.3    21  THR21       0.0375
     48  N        -39.1240   37.7130  -26.8750 N.3    36  GLN36      -0.1231
     49  CA       -40.0990   36.7230  -26.4190 C.3    36  GLN36       0.1698
     50  C        -40.8170   37.2870  -25.2190 C.2    36  GLN36       0.2592
     51  O        -40.1870   37.9400  -24.3710 O.2    36  GLN36      -0.2718
     52  CB       -39.4290   35.3840  -26.0690 C.3    36  GLN36       0.0381
     53  CG       -40.4310   34.2370  -25.9030 C.3    36  GLN36       0.0905
     54  CD       -39.7740   32.8930  -25.7020 C.2    36  GLN36       0.2608
     55  OE1      -40.0800   32.1690  -24.7490 O.2    36  GLN36      -0.2717
     56  NE2      -38.8940   32.5040  -26.6180 N.am   36  GLN36      -0.0878
     57  N        -42.1210   37.0070  -25.1290 N.am   37  VAL37      -0.1966
     58  CA       -42.9280   37.4750  -24.0050 C.3    37  VAL37       0.1727
     59  C        -42.9470   36.4040  -22.9290 C.2    37  VAL37       0.2616
     60  O        -43.1950   35.2360  -23.2080 O.2    37  VAL37      -0.2715
     61  CB       -44.3630   37.9330  -24.3840 C.3    37  VAL37       0.0290
     62  CG1      -45.1090   38.4830  -23.1630 C.3    37  VAL37       0.0023
     63  CG2      -44.3450   38.9530  -25.5160 C.3    37  VAL37       0.0023
     64  N        -42.6670   36.8320  -21.7050 N.am   38  PHE38      -0.1960
     65  CA       -42.6430   36.0150  -20.5100 C.3    38  PHE38       0.1771
     66  C        -43.6790   36.5650  -19.5370 C.2    38  PHE38       0.2620
     67  O        -44.2510   37.6260  -19.7650 O.2    38  PHE38      -0.2715
     68  CB       -41.2430   36.0460  -19.8630 C.3    38  PHE38       0.0574
     69  CG       -40.1840   35.3560  -20.6950 C.ar   38  PHE38      -0.0200
     70  CD1      -39.4800   36.0520  -21.6740 C.ar   38  PHE38      -0.0042
     71  CD2      -39.9170   34.0050  -20.5260 C.ar   38  PHE38      -0.0042
     72  CE1      -38.5080   35.4140  -22.4430 C.ar   38  PHE38      -0.0003
     73  CE2      -38.9390   33.3650  -21.2990 C.ar   38  PHE38      -0.0003
     74  CZ       -38.2500   34.0730  -22.2540 C.ar   38  PHE38      -0.0000
     75  N        -43.8990   35.8450  -18.4520 N.am   39  SER39      -0.1936
     76  CA       -44.8140   36.2750  -17.4070 C.3    39  SER39       0.2055
     77  C        -44.2950   35.9370  -16.0220 C.2    39  SER39       0.2644
     78  O        -43.1840   35.4110  -15.8910 O.2    39  SER39      -0.2714
     79  CB       -46.2070   35.7080  -17.6410 C.3    39  SER39       0.2130
     80  OG       -47.1120   36.5050  -16.8960 O.3    39  SER39      -0.2179
     81  N        -45.1030   36.2180  -14.9920 N.am   40  THR40      -0.1936
     82  CA       -44.7510   35.9900  -13.5840 C.3    40  THR40       0.2028
     83  C        -45.0060   34.5530  -13.1520 C.2    40  THR40       0.2642
     84  O        -45.9570   33.9320  -13.6220 O.2    40  THR40      -0.2714
     85  CB       -45.4880   37.0110  -12.6960 C.3    40  THR40       0.1808
     86  OG1      -46.8840   36.9950  -13.0130 O.3    40  THR40      -0.2208
     87  CG2      -44.9110   38.4210  -12.8240 C.3    40  THR40       0.0379
     88  N        -44.1510   34.0330  -12.2560 N.am   41  ALA41      -0.1977
     89  CA       -44.2160   32.6640  -11.7510 C.3    41  ALA41       0.1597
     90  C        -45.3220   32.4750  -10.7230 C.2    41  ALA41       0.2287
     91  O        -45.9300   31.4000  -10.6820 O.2    41  ALA41      -0.2864
     92  CB       -42.8700   32.2600  -11.1540 C.3    41  ALA41       0.0319
     93  N        -46.7250   38.9870   -7.9640 N.3    45  GLN45      -0.1231
     94  CA       -45.3100   39.2160   -8.1890 C.3    45  GLN45       0.1698
     95  C        -45.1090   40.6350   -8.7510 C.2    45  GLN45       0.2593
     96  O        -45.6700   40.9690   -9.7980 O.2    45  GLN45      -0.2718
     97  CB       -44.7730   38.1120   -9.1070 C.3    45  GLN45       0.0381
     98  CG       -43.2680   37.9580   -9.0810 C.3    45  GLN45       0.0905
     99  CD       -42.8390   36.7710   -9.9100 C.2    45  GLN45       0.2608
    100  OE1      -43.4420   35.6920   -9.8800 O.2    45  GLN45      -0.2717
    101  NE2      -41.7930   36.9480  -10.6730 N.am   45  GLN45      -0.0878
    102  N        -44.3520   41.4860   -8.0180 N.am   46  SER46      -0.1938
    103  CA       -44.1450   42.8700   -8.4470 C.3    46  SER46       0.2055
    104  C        -42.7830   43.0930   -9.1130 C.2    46  SER46       0.2643
    105  O        -42.5360   44.1800   -9.6530 O.2    46  SER46      -0.2714
    106  CB       -44.3450   43.8330   -7.2800 C.3    46  SER46       0.2130
    107  OG       -44.4520   45.1810   -7.7130 O.3    46  SER46      -0.2179
    108  N        -41.9100   42.0670   -9.0850 N.am   47  ALA47      -0.1963
    109  CA       -40.5880   42.1500   -9.6950 C.3    47  ALA47       0.1728
    110  C        -40.1650   40.8360  -10.3380 C.2    47  ALA47       0.2616
    111  O        -40.6270   39.7760   -9.9350 O.2    47  ALA47      -0.2715
    112  CB       -39.5510   42.5730   -8.6540 C.3    47  ALA47       0.0334
    113  N        -39.3240   40.9180  -11.3740 N.am   48  VAL48      -0.1963
    114  CA       -38.7460   39.7620  -12.0360 C.3    48  VAL48       0.1727
    115  C        -37.2310   39.9550  -12.1340 C.2    48  VAL48       0.2617
    116  O        -36.7500   41.0940  -12.2310 O.2    48  VAL48      -0.2715
    117  CB       -39.3860   39.3970  -13.4160 C.3    48  VAL48       0.0290
    118  CG1      -40.8570   39.0040  -13.2800 C.3    48  VAL48       0.0023
    119  CG2      -39.1910   40.4940  -14.4590 C.3    48  VAL48       0.0023
    120  N        -36.4820   38.8460  -12.1080 N.am   49  THR49      -0.1937
    121  CA       -35.0440   38.8780  -12.2980 C.3    49  THR49       0.2028
    122  C        -34.7530   38.3460  -13.6900 C.2    49  THR49       0.2642
    123  O        -35.2540   37.2860  -14.0770 O.2    49  THR49      -0.2714
    124  CB       -34.3090   38.0700  -11.2130 C.3    49  THR49       0.1808
    125  OG1      -34.6680   38.5990   -9.9520 O.3    49  THR49      -0.2208
    126  CG2      -32.7720   38.1440  -11.3500 C.3    49  THR49       0.0379
    127  N        -33.9540   39.1000  -14.4470 N.am   50  ILE50      -0.1963
    128  CA       -33.5060   38.7050  -15.7890 C.3    50  ILE50       0.1727
    129  C        -32.0480   38.3070  -15.6220 C.2    50  ILE50       0.2616
    130  O        -31.1840   39.1770  -15.4820 O.2    50  ILE50      -0.2715
    131  CB       -33.6950   39.8340  -16.8360 C.3    50  ILE50       0.0290
    132  CG1      -35.1470   40.3950  -16.8500 C.3    50  ILE50       0.0022
    133  CG2      -33.2230   39.3990  -18.2320 C.3    50  ILE50       0.0023
    134  CD1      -36.2980   39.3860  -17.1470 C.3    50  ILE50       0.0001
    135  N        -31.8000   37.0040  -15.5520 N.am   51  HIS51      -0.1973
    136  CA       -30.4660   36.4550  -15.3630 C.3    51  HIS51       0.1656
    137  C        -29.9860   35.9420  -16.7200 C.2    51  HIS51       0.2291
    138  O        -30.4800   34.9300  -17.2150 O.2    51  HIS51      -0.2864
    139  CB       -30.5200   35.3430  -14.3060 C.3    51  HIS51       0.0771
    140  CG       -29.1900   34.7770  -13.9640 C.ar   51  HIS51       0.0820
    141  ND1      -29.0780   33.5220  -13.3940 N.ar   51  HIS51      -0.2267
    142  CD2      -27.9480   35.2790  -14.1830 C.ar   51  HIS51       0.1154
    143  CE1      -27.7770   33.3130  -13.2640 C.ar   51  HIS51       0.1986
    144  NE2      -27.0570   34.3460  -13.7250 N.ar   51  HIS51      -0.2212
    145  N        -26.9890   40.1700  -14.8510 N.3    68  GLN68      -0.1245
    146  CA       -28.3870   40.1460  -14.4350 C.3    68  GLN68       0.1566
    147  C        -28.8740   41.5110  -14.0140 C.2    68  GLN68       0.2260
    148  O        -28.0760   42.3710  -13.6450 O.2    68  GLN68      -0.2867
    149  CB       -28.6280   39.1210  -13.3030 C.3    68  GLN68       0.0367
    150  CG       -27.8840   39.3950  -12.0000 C.3    68  GLN68       0.0905
    151  CD       -28.2230   38.3220  -11.0020 C.2    68  GLN68       0.2608
    152  OE1      -27.4610   37.3690  -10.8050 O.2    68  GLN68      -0.2717
    153  NE2      -29.4040   38.4190  -10.3910 N.am   68  GLN68      -0.0878
    154  N        -32.8150   43.5170  -12.4140 N.3    70  ASN70      -0.1240
    155  CA       -34.1860   43.3440  -11.9530 C.3    70  ASN70       0.1653
    156  C        -35.1040   44.3110  -12.6620 C.2    70  ASN70       0.2266
    157  O        -34.6750   45.3930  -13.0670 O.2    70  ASN70      -0.2867
    158  CB       -34.2920   43.5340  -10.4400 C.3    70  ASN70       0.1155
    159  CG       -33.4540   42.5540   -9.6620 C.2    70  ASN70       0.2627
    160  OD1      -33.3380   41.3830  -10.0180 O.2    70  ASN70      -0.2716
    161  ND2      -32.8990   43.0010   -8.5510 N.am   70  ASN70      -0.0877
    162  N        -38.6930   45.9540  -11.6930 N.3    72  ASP72      -0.1239
    163  CA       -39.6270   46.2180  -10.5840 C.3    72  ASP72       0.1674
    164  C        -40.7960   47.1140  -11.0350 C.2    72  ASP72       0.2266
    165  O        -40.8070   47.6090  -12.1670 O.2    72  ASP72      -0.2867
    166  CB       -38.8840   46.9310   -9.4180 C.3    72  ASP72       0.1410
    167  CG       -37.5180   46.3760   -9.0380 C.2    72  ASP72       0.3668
    168  OD1      -36.5600   47.1830   -8.9090 O.co2  72  ASP72      -0.2456
    169  OD2      -37.4090   45.1410   -8.8330 O.co2  72  ASP72      -0.2456
    170  N        -50.6850   35.1570  -11.4790 N.3    79  ARG79      -0.1231
    171  CA       -49.5440   34.6310  -12.2300 C.3    79  ARG79       0.1694
    172  C        -49.9560   34.4420  -13.6890 C.2    79  ARG79       0.2592
    173  O        -51.1330   34.1400  -13.9600 O.2    79  ARG79      -0.2718
    174  CB       -49.0430   33.3210  -11.6090 C.3    79  ARG79       0.0321
    175  CG       -50.0710   32.2110  -11.5500 C.3    79  ARG79       0.0489
    176  CD       -49.3930   30.8570  -11.4830 C.3    79  ARG79       0.2205
    177  NE       -50.3670   29.7830  -11.6950 N.pl3  79  ARG79      -0.0865
    178  CZ       -50.4880   29.0900  -12.8250 C.cat  79  ARG79       0.5346
    179  NH1      -49.6710   29.3260  -13.8490 N.pl3  79  ARG79       0.1354
    180  NH2      -51.4110   28.1360  -12.9320 N.pl3  79  ARG79       0.1354
    181  N        -49.0330   34.7040  -14.6100 N.am   80  GLY80      -0.1957
    182  CA       -49.3390   34.5350  -16.0270 C.3    80  GLY80       0.1869
    183  C        -50.0080   35.7020  -16.7190 C.2    80  GLY80       0.2309
    184  O        -50.0800   35.7310  -17.9570 O.2    80  GLY80      -0.2863
    185  N        -44.1830   40.4390  -19.9960 N.3    84  ILE84      -0.1245
    186  CA       -42.8210   40.9440  -19.8840 C.3    84  ILE84       0.1561
    187  C        -42.0750   40.5900  -21.1520 C.2    84  ILE84       0.2260
    188  O        -41.7450   39.4200  -21.3750 O.2    84  ILE84      -0.2867
    189  CB       -42.0790   40.4130  -18.6150 C.3    84  ILE84       0.0252
    190  CG1      -42.9540   40.4620  -17.3120 C.3    84  ILE84       0.0019
    191  CG2      -40.6650   41.0700  -18.4530 C.3    84  ILE84       0.0019
    192  CD1      -43.2980   41.7600  -16.7970 C.3    84  ILE84       0.0001
    193  N        -38.9520   40.3050  -23.2820 N.3    86  VAL86      -0.1245
    194  CA       -37.5050   40.2010  -23.1360 C.3    86  VAL86       0.1561
    195  C        -36.8940   40.2140  -24.5360 C.2    86  VAL86       0.2260
    196  O        -37.2790   39.4060  -25.3790 O.2    86  VAL86      -0.2867
    197  CB       -37.0670   38.9690  -22.2970 C.3    86  VAL86       0.0252
    198  CG1      -35.5330   38.8060  -22.3070 C.3    86  VAL86       0.0019
    199  CG2      -37.5930   39.0850  -20.8700 C.3    86  VAL86       0.0019
    200  N        -48.0010   25.1960   -8.9040 N.3   153  HIS153     -0.1241
    201  CA       -49.2000   25.9590   -9.2430 C.3   153  HIS153      0.1621
    202  C        -50.4570   25.3180   -8.7150 C.2   153  HIS153      0.2264
    203  O        -51.3830   26.0390   -8.3430 O.2   153  HIS153     -0.2867
    204  CB       -49.2770   26.2490  -10.7460 C.3   153  HIS153      0.0745
    205  CG       -48.1760   27.1500  -11.2160 C.ar  153  HIS153      0.0817
    206  ND1      -47.6230   27.0160  -12.4830 N.ar  153  HIS153     -0.2268
    207  CD2      -47.5260   28.1450  -10.5610 C.ar  153  HIS153      0.1154
    208  CE1      -46.6790   27.9410  -12.5610 C.ar  153  HIS153      0.1986
    209  NE2      -46.6020   28.6620  -11.4450 N.ar  153  HIS153     -0.2212
@<TRIPOS>BOND
     1    48    49    1
     2    56    54   am
     3    49    52    1
     4    49    50    1
     5    52    53    1
     6    53    54    1
     7    54    55    2
     8    63    61    1
     9   196   195    2
    10    50    57   am
    11    50    51    2
    12    57    58    1
    13   195   194    1
    14    61    58    1
    15    61    62    1
    16    58    59    1
    17   193   194    1
    18    60    59    2
    19   194   197    1
    20    59    64   am
    21    43    44    2
    22    43    42    1
    23    47    45    1
    24    72    74   ar
    25    72    70   ar
    26   198   197    1
    27   197   199    1
    28    74    73   ar
    29    42    45    1
    30    42    41    1
    31    64    65    1
    32    70    69   ar
    33    45    46    1
    34   188   187    2
    35    73    71   ar
    36   187   186    1
    37     1     2    1
    38    69    71   ar
    39    69    68    1
    40    65    68    1
    41    65    66    1
    42     7     5    1
    43   185   186    1
    44   186   189    1
    45     6     8    1
    46     6     5    1
    47    67    66    2
    48    66    75   am
    49     2     5    1
    50     2     3    1
    51     4     3    2
    52   189   191    1
    53   189   190    1
    54     3     9   am
    55    75    76    1
    56    24    22    1
    57   133   131    1
    58   184   183    2
    59    23    22    1
    60    79    76    1
    61    79    80    1
    62    76    77    1
    63   190   192    1
    64    22    19    1
    65   138   137    2
    66     9    10    1
    67   134   132    1
    68   132   131    1
    69   131   128    1
    70   137   136    1
    71   183   182    1
    72    10    11    1
    73    10    13    1
    74    18    11   am
    75    18    19    1
    76    11    12    2
    77   182   181    1
    78    77    78    2
    79    77    81   am
    80    19    20    1
    81   128   129    1
    82   128   127    1
    83   129   135   am
    84   129   130    2
    85   135   136    1
    86   136   139    1
    87    81    82    1
    88    13    14    1
    89   145   146    1
    90    20    25   am
    91    20    21    2
    92   181   172   am
    93   119   117    1
    94   127   122   am
    95   146   147    1
    96   146   149    1
    97    25    26    1
    98   139   140    1
    99   142   140   ar
   100   142   144   ar
   101   123   122    2
   102    28    27    2
   103   147   148    2
   104    40    39    2
   105   140   141   ar
   106   173   172    2
   107    39    38    1
   108   179   178    1
   109    14    15    1
   110   144   143   ar
   111   122   121    1
   112   172   171    1
   113    84    83    2
   114    82    83    1
   115    82    85    1
   116   117   118    1
   117   117   114    1
   118   141   143   ar
   119   149   150    1
   120    29    26    1
   121    29    30    1
   122    26    27    1
   123    83    88   am
   124    27    33   am
   125   157   156    2
   126    86    85    1
   127   180   178    1
   128   178   177    2
   129    87    85    1
   130   156   155    1
   131    15    16   ar
   132    15    17   ar
   133   208   206   ar
   134   208   209   ar
   135    38    37    1
   136   206   205   ar
   137   154   155    1
   138    37    35   am
   139   121   120    1
   140   121   124    1
   141    88    89    1
   142   116   115    2
   143   171   174    1
   144   171   170    1
   145    31    30    1
   146    31    32    1
   147   165   164    2
   148   115   120   am
   149   115   114    1
   150   114   113    1
   151   150   151    1
   152   155   158    1
   153    33    34    1
   154    35    36    2
   155    35    34    1
   156    89    92    1
   157    89    90    1
   158   177   176    1
   159   162   163    1
   160   174   175    1
   161   175   176    1
   162   209   207   ar
   163   113   110   am
   164   126   124    1
   165   205   204    1
   166   205   207   ar
   167   124   125    1
   168   164   163    1
   169   151   152    2
   170   151   153   am
   171   204   201    1
   172    90    91    2
   173   101    99   am
   174   163   166    1
   175   158   159    1
   176   110   111    2
   177   110   109    1
   178   160   159    2
   179    99   100    2
   180    99    98    1
   181    96    95    2
   182   109   108    1
   183   109   112    1
   184   159   161   am
   185   105   104    2
   186   166   167    1
   187   201   200    1
   188   201   202    1
   189   104   108   am
   190   104   103    1
   191    97    98    1
   192    97    94    1
   193   167   168   ar
   194   167   169   ar
   195    95    94    1
   196    95   102   am
   197   202   203    2
   198   103   102    1
   199   103   106    1
   200    94    93    1
   201   107   106    1
