@<TRIPOS>MOLECULE
tmp/4jwjA00.pdb
 200 191 0 0 0
SMALL
GASTEIGER

@<TRIPOS>ATOM
      1  N         21.6730   14.5700  -19.1460 N.3   104  TYR104     -0.1227
      2  CA        21.9240   16.0080  -19.1800 C.3   104  TYR104      0.1736
      3  C         21.2510   16.5910  -20.4290 C.2   104  TYR104      0.2595
      4  O         21.5360   16.1540  -21.5560 O.2   104  TYR104     -0.2718
      5  CB        23.4510   16.2720  -19.2000 C.3   104  TYR104      0.0548
      6  CG        23.8450   17.6480  -18.6220 C.ar  104  TYR104     -0.0200
      7  CD1       24.7310   17.7340  -17.5520 C.ar  104  TYR104     -0.0009
      8  CD2       23.3680   18.8330  -19.1780 C.ar  104  TYR104     -0.0009
      9  CE1       25.1200   18.9650  -17.0340 C.ar  104  TYR104      0.0417
     10  CE2       23.6960   20.1100  -18.6100 C.ar  104  TYR104      0.0417
     11  CZ        24.5880   20.1410  -17.5460 C.ar  104  TYR104      0.1957
     12  OH        24.9640   21.3610  -16.9780 O.3   104  TYR104     -0.2866
     13  N         20.3680   17.5650  -20.2430 N.am  105  LEU105     -0.1966
     14  CA        19.6560   18.1750  -21.3650 C.3   105  LEU105      0.1728
     15  C         20.5360   19.2530  -22.0020 C.2   105  LEU105      0.2617
     16  O         21.1190   20.0830  -21.3110 O.2   105  LEU105     -0.2715
     17  CB        18.3140   18.7850  -20.9050 C.3   105  LEU105      0.0311
     18  CG        17.2850   17.8040  -20.3060 C.3   105  LEU105      0.0022
     19  CD1       16.0060   18.5560  -19.9570 C.3   105  LEU105      0.0001
     20  CD2       17.0170   16.6270  -21.2410 C.3   105  LEU105      0.0001
     21  N         20.6570   19.2200  -23.3200 N.am  106  THR106     -0.1937
     22  CA        21.4310   20.2650  -23.9970 C.3   106  THR106      0.2028
     23  C         20.9030   20.4240  -25.4070 C.2   106  THR106      0.2642
     24  O         20.5720   19.4150  -26.0490 O.2   106  THR106     -0.2714
     25  CB        22.9600   19.9820  -24.0040 C.3   106  THR106      0.1808
     26  OG1       23.5940   20.7590  -25.0220 O.3   106  THR106     -0.2208
     27  CG2       23.2950   18.5480  -24.2840 C.3   106  THR106      0.0379
     28  N         20.8190   21.6740  -25.8640 N.am  107  ALA107     -0.1963
     29  CA        20.3510   21.9660  -27.2370 C.3   107  ALA107      0.1728
     30  C         21.3360   21.4970  -28.3020 C.2   107  ALA107      0.2616
     31  O         20.9650   21.3990  -29.4980 O.2   107  ALA107     -0.2715
     32  CB        20.0590   23.4390  -27.4090 C.3   107  ALA107      0.0334
     33  N         22.5730   21.1910  -27.8930 N.am  108  ASP108     -0.1971
     34  CA        23.6640   20.9520  -28.8660 C.3   108  ASP108      0.1709
     35  C         23.8650   19.4960  -29.2340 C.2   108  ASP108      0.2293
     36  O         24.7490   19.1560  -30.0030 O.2   108  ASP108     -0.2864
     37  CB        24.9820   21.5930  -28.3900 C.3   108  ASP108      0.1436
     38  CG        24.8640   23.1050  -28.2260 C.2   108  ASP108      0.3671
     39  OD1       24.4090   23.7850  -29.1890 O.co2 108  ASP108     -0.2456
     40  OD2       25.2090   23.6270  -27.1420 O.co2 108  ASP108     -0.2456
     41  N         19.6670   20.2690  -15.9660 N.3   124  VAL124     -0.1231
     42  CA        19.4940   21.4670  -16.7890 C.3   124  VAL124      0.1692
     43  C         20.5850   22.4870  -16.3950 C.2   124  VAL124      0.2592
     44  O         20.7250   22.8170  -15.2160 O.2   124  VAL124     -0.2718
     45  CB        18.1130   22.0990  -16.5080 C.3   124  VAL124      0.0266
     46  CG1       17.9080   23.3160  -17.3840 C.3   124  VAL124      0.0020
     47  CG2       16.9700   21.0510  -16.8150 C.3   124  VAL124      0.0020
     48  N         21.3200   23.0180  -17.3660 N.am  125  GLY125     -0.1957
     49  CA        22.3740   23.9780  -17.0270 C.3   125  GLY125      0.1869
     50  C         21.8550   25.2710  -16.4100 C.2   125  GLY125      0.2309
     51  O         21.0090   25.9640  -16.9740 O.2   125  GLY125     -0.2863
     52  N         22.6580   28.5400  -15.9950 N.3   127  ILE127     -0.1245
     53  CA        23.5620   29.5790  -16.5180 C.3   127  ILE127      0.1561
     54  C         22.7940   30.5200  -17.3910 C.2   127  ILE127      0.2260
     55  O         21.9840   30.0940  -18.2160 O.2   127  ILE127     -0.2867
     56  CB        24.8080   29.0250  -17.2730 C.3   127  ILE127      0.0252
     57  CG1       25.7740   30.1820  -17.6640 C.3   127  ILE127      0.0019
     58  CG2       24.4130   28.1630  -18.5050 C.3   127  ILE127      0.0019
     59  CD1       27.0900   29.7100  -18.2800 C.3   127  ILE127      0.0001
     60  N         23.6460   32.8520  -20.1600 N.3   129  ASP129     -0.1239
     61  CA        24.7360   33.2670  -21.0480 C.3   129  ASP129      0.1674
     62  C         24.2540   33.6770  -22.4360 C.2   129  ASP129      0.2266
     63  O         25.0710   34.0270  -23.3020 O.2   129  ASP129     -0.2867
     64  CB        25.8200   32.1790  -21.1560 C.3   129  ASP129      0.1410
     65  CG        25.3460   30.9390  -21.9210 C.2   129  ASP129      0.3668
     66  OD1       24.1080   30.6960  -21.9760 O.co2 129  ASP129     -0.2456
     67  OD2       26.2090   30.2080  -22.4700 O.co2 129  ASP129     -0.2456
     68  N         23.5650   31.6650  -24.6280 N.3   131  ASN131     -0.1240
     69  CA        24.3010   30.7200  -25.4500 C.3   131  ASN131      0.1653
     70  C         25.6570   31.2030  -26.0070 C.2   131  ASN131      0.2266
     71  O         26.1470   30.6950  -27.0160 O.2   131  ASN131     -0.2867
     72  CB        23.4160   30.1500  -26.5630 C.3   131  ASN131      0.1155
     73  CG        23.9130   28.8420  -27.0570 C.2   131  ASN131      0.2627
     74  OD1       24.3340   27.9660  -26.2640 O.2   131  ASN131     -0.2716
     75  ND2       23.9240   28.6880  -28.3790 N.am  131  ASN131     -0.0877
     76  N         28.5750   30.7090  -24.4570 N.3   133  TYR133     -0.1241
     77  CA        29.5000   29.5970  -24.2900 C.3   133  TYR133      0.1605
     78  C         29.0170   28.3790  -25.0930 C.2   133  TYR133      0.2264
     79  O         28.3310   27.4930  -24.5880 O.2   133  TYR133     -0.2867
     80  CB        29.6420   29.2530  -22.8070 C.3   133  TYR133      0.0534
     81  CG        30.2160   30.3890  -21.9540 C.ar  133  TYR133     -0.0201
     82  CD1       31.5830   30.6530  -21.9580 C.ar  133  TYR133     -0.0009
     83  CD2       29.3870   31.1630  -21.1320 C.ar  133  TYR133     -0.0009
     84  CE1       32.1260   31.6570  -21.1630 C.ar  133  TYR133      0.0417
     85  CE2       29.9130   32.1910  -20.3420 C.ar  133  TYR133      0.0417
     86  CZ        31.2880   32.4160  -20.3690 C.ar  133  TYR133      0.1957
     87  OH        31.8030   33.4030  -19.5730 O.3   133  TYR133     -0.2866
     88  N         28.2360   25.0560  -26.7980 N.3   135  GLU135     -0.1231
     89  CA        28.4340   23.6290  -26.4710 C.3   135  GLU135      0.1699
     90  C         28.9960   23.3740  -25.0690 C.2   135  GLU135      0.2592
     91  O         29.5520   22.3200  -24.8310 O.2   135  GLU135     -0.2718
     92  CB        29.3040   22.8910  -27.5080 C.3   135  GLU135      0.0402
     93  CG        28.7270   22.9260  -28.9250 C.3   135  GLU135      0.1161
     94  CD        29.4760   22.0420  -29.9090 C.2   135  GLU135      0.3649
     95  OE1       30.5870   21.5750  -29.6110 O.co2 135  GLU135     -0.2457
     96  OE2       28.9380   21.8020  -31.0040 O.co2 135  GLU135     -0.2457
     97  N         28.8730   24.3490  -24.1750 N.am  136  LEU136     -0.1966
     98  CA        29.4610   24.2190  -22.8190 C.3   136  LEU136      0.1728
     99  C         28.8930   22.9830  -22.0770 C.2   136  LEU136      0.2616
    100  O         29.6330   22.0960  -21.6400 O.2   136  LEU136     -0.2715
    101  CB        29.2100   25.5270  -22.0350 C.3   136  LEU136      0.0311
    102  CG        29.6820   25.5480  -20.5730 C.3   136  LEU136      0.0022
    103  CD1       31.1960   25.4190  -20.3960 C.3   136  LEU136      0.0001
    104  CD2       29.1090   26.8100  -19.8930 C.3   136  LEU136      0.0001
    105  N         27.5830   22.9290  -21.9550 N.am  137  CYS137     -0.1954
    106  CA        26.9420   21.8130  -21.2270 C.3   137  CYS137      0.1843
    107  C         27.1310   20.4470  -21.9170 C.2   137  CYS137      0.2625
    108  O         27.3490   19.4410  -21.2400 O.2   137  CYS137     -0.2714
    109  CB        25.4710   22.1160  -20.9840 C.3   137  CYS137      0.0997
    110  SG        25.3410   23.4920  -19.7860 S.3   137  CYS137     -0.0797
    111  N         27.0460   20.4210  -23.2520 N.am  138  LEU138     -0.1977
    112  CA        27.3510   19.1990  -24.0070 C.3   138  LEU138      0.1596
    113  C         28.7430   18.6640  -23.6550 C.2   138  LEU138      0.2287
    114  O         28.9010   17.5050  -23.2770 O.2   138  LEU138     -0.2864
    115  CB        27.2330   19.4830  -25.5430 C.3   138  LEU138      0.0297
    116  CG        27.6920   18.3310  -26.4820 C.3   138  LEU138      0.0022
    117  CD1       26.7570   17.1420  -26.3620 C.3   138  LEU138      0.0001
    118  CD2       27.7320   18.7880  -27.9530 C.3   138  LEU138      0.0001
    119  N         18.4530   16.3400  -26.3360 N.3   150  ARG150     -0.1231
    120  CA        17.8460   17.6440  -26.5470 C.3   150  ARG150      0.1694
    121  C         16.3070   17.5760  -26.4610 C.2   150  ARG150      0.2591
    122  O         15.7150   16.5130  -26.7000 O.2   150  ARG150     -0.2718
    123  CB        18.3170   18.2850  -27.8760 C.3   150  ARG150      0.0321
    124  CG        17.6270   17.8100  -29.1030 C.3   150  ARG150      0.0489
    125  CD        18.0490   18.6470  -30.3130 C.3   150  ARG150      0.2205
    126  NE        18.1470   17.7600  -31.4500 N.pl3 150  ARG150     -0.0865
    127  CZ        17.2930   17.7330  -32.4660 C.cat 150  ARG150      0.5346
    128  NH1       16.2810   18.5910  -32.5260 N.pl3 150  ARG150      0.1354
    129  NH2       17.4820   16.8570  -33.4400 N.pl3 150  ARG150      0.1354
    130  N         15.6730   18.7010  -26.1290 N.am  151  LEU151     -0.1980
    131  CA        14.2240   18.7760  -26.0340 C.3   151  LEU151      0.1596
    132  C         13.6390   18.6510  -27.4520 C.2   151  LEU151      0.2287
    133  O         14.1510   19.2980  -28.3550 O.2   151  LEU151     -0.2864
    134  CB        13.7840   20.0970  -25.4190 C.3   151  LEU151      0.0297
    135  CG        14.1080   20.2660  -23.9280 C.3   151  LEU151      0.0022
    136  CD1       13.8040   21.6760  -23.5150 C.3   151  LEU151      0.0001
    137  CD2       13.2550   19.2440  -23.1490 C.3   151  LEU151      0.0001
    138  N         11.6370   19.8850  -29.5490 N.3   153  ILE153     -0.1231
    139  CA        10.7960   21.0730  -29.7480 C.3   153  ILE153      0.1692
    140  C         11.2220   21.8960  -30.9650 C.2   153  ILE153      0.2592
    141  O         10.6500   22.9520  -31.2320 O.2   153  ILE153     -0.2718
    142  CB        10.7940   22.0140  -28.5190 C.3   153  ILE153      0.0266
    143  CG1       12.2370   22.4390  -28.1720 C.3   153  ILE153      0.0019
    144  CG2       10.0880   21.3410  -27.3130 C.3   153  ILE153      0.0020
    145  CD1       12.3200   23.5720  -27.1490 C.3   153  ILE153      0.0001
    146  N         12.2290   21.4240  -31.6810 N.am  154  ASP154     -0.1974
    147  CA        12.7460   22.2110  -32.7920 C.3   154  ASP154      0.1709
    148  C         11.7320   22.2730  -33.9300 C.2   154  ASP154      0.2293
    149  O         11.6860   23.2540  -34.6550 O.2   154  ASP154     -0.2864
    150  CB        14.1110   21.7120  -33.2340 C.3   154  ASP154      0.1436
    151  CG        15.2260   22.2080  -32.2960 C.2   154  ASP154      0.3671
    152  OD1       15.9690   21.3810  -31.7680 O.co2 154  ASP154     -0.2456
    153  OD2       15.3470   23.4390  -32.0840 O.co2 154  ASP154     -0.2456
    154  N         15.8110   28.8280  -29.9730 N.3   163  ARG163     -0.1231
    155  CA        15.7470   27.4010  -29.6780 C.3   163  ARG163      0.1694
    156  C         16.4990   27.0290  -28.4070 C.2   163  ARG163      0.2592
    157  O         16.2500   25.9710  -27.8350 O.2   163  ARG163     -0.2718
    158  CB        16.2990   26.5750  -30.8300 C.3   163  ARG163      0.0321
    159  CG        17.7410   26.8520  -31.1520 C.3   163  ARG163      0.0489
    160  CD        18.2200   25.9070  -32.2010 C.3   163  ARG163      0.2205
    161  NE        17.9780   24.5210  -31.8190 N.pl3 163  ARG163     -0.0865
    162  CZ        18.8820   23.7300  -31.2420 C.cat 163  ARG163      0.5346
    163  NH1       18.5690   22.4750  -30.9450 N.pl3 163  ARG163      0.1354
    164  NH2       20.1010   24.1840  -30.9870 N.pl3 163  ARG163      0.1354
    165  N         17.4410   27.8720  -27.9910 N.am  164  VAL164     -0.1966
    166  CA        18.1500   27.6410  -26.7340 C.3   164  VAL164      0.1727
    167  C         17.4040   28.3890  -25.6450 C.2   164  VAL164      0.2616
    168  O         17.5960   29.5970  -25.4400 O.2   164  VAL164     -0.2715
    169  CB        19.6760   28.0250  -26.7970 C.3   164  VAL164      0.0290
    170  CG1       20.3530   27.7840  -25.4240 C.3   164  VAL164      0.0023
    171  CG2       20.3840   27.2280  -27.8630 C.3   164  VAL164      0.0023
    172  N         16.5300   27.6610  -24.9520 N.am  165  LEU165     -0.1963
    173  CA        15.6700   28.2210  -23.9180 C.3   165  LEU165      0.1728
    174  C         16.4050   28.6170  -22.6430 C.2   165  LEU165      0.2617
    175  O         17.4830   28.1030  -22.3390 O.2   165  LEU165     -0.2715
    176  CB        14.5740   27.1960  -23.5660 C.3   165  LEU165      0.0311
    177  CG        13.3440   27.1140  -24.4920 C.3   165  LEU165      0.0022
    178  CD1       13.6690   27.0920  -25.9870 C.3   165  LEU165      0.0001
    179  CD2       12.4600   25.9180  -24.1350 C.3   165  LEU165      0.0001
    180  N         15.7910   29.5100  -21.8860 N.am  166  THR166     -0.1937
    181  CA        16.2590   29.8430  -20.5650 C.3   166  THR166      0.2028
    182  C         16.0680   28.6350  -19.6310 C.2   166  THR166      0.2642
    183  O         15.1990   27.7700  -19.8780 O.2   166  THR166     -0.2714
    184  CB        15.5210   31.0670  -19.9770 C.3   166  THR166      0.1808
    185  OG1       14.1540   30.7290  -19.7210 O.3   166  THR166     -0.2208
    186  CG2       15.5760   32.3030  -20.9270 C.3   166  THR166      0.0379
    187  N         16.8880   28.5730  -18.5860 N.am  167  THR167     -0.1950
    188  CA        16.7650   27.5460  -17.5360 C.3   167  THR167      0.1897
    189  C         15.3170   27.4100  -17.0720 C.2   167  THR167      0.2313
    190  O         14.7740   26.2860  -17.0030 O.2   167  THR167     -0.2863
    191  CB        17.6900   27.8330  -16.3150 C.3   167  THR167      0.1794
    192  OG1       19.0540   27.9740  -16.7520 O.3   167  THR167     -0.2208
    193  CG2       17.6270   26.7190  -15.3320 C.3   167  THR167      0.0378
    194  N         12.8240   25.9380  -19.5830 N.3   170  VAL170     -0.1245
    195  CA        13.0120   24.4660  -19.7280 C.3   170  VAL170      0.1561
    196  C         12.2410   23.7730  -18.6200 C.2   170  VAL170      0.2260
    197  O         11.5060   22.8040  -18.8840 O.2   170  VAL170     -0.2867
    198  CB        14.5150   24.0420  -19.6930 C.3   170  VAL170      0.0252
    199  CG1       14.7040   22.4940  -19.6270 C.3   170  VAL170      0.0019
    200  CG2       15.2610   24.5730  -20.9420 C.3   170  VAL170      0.0019
@<TRIPOS>BOND
     1   149   148    2
     2   148   147    1
     3   129   127    1
     4   150   147    1
     5   150   151    1
     6   147   146    1
     7   128   127    1
     8   127   126    2
     9   151   153   ar
    10   151   152   ar
    11   160   161    1
    12   160   159    1
    13   161   162    2
    14   146   140   am
    15   126   125    1
    16   162   164    1
    17   162   163    1
    18   141   140    2
    19   159   158    1
    20    96    94   ar
    21   140   139    1
    22   158   155    1
    23   125   124    1
    24    36    35    2
    25   154   155    1
    26    94    95   ar
    27    94    93    1
    28   139   138    1
    29   139   142    1
    30   155   156    1
    31    31    30    2
    32    35    34    1
    33    39    38   ar
    34   124   123    1
    35    93    92    1
    36    34    37    1
    37    34    33    1
    38   142   143    1
    39   142   144    1
    40   156   165   am
    41   156   157    2
    42    37    38    1
    43    75    73   am
    44   133   132    2
    45    30    33   am
    46    30    29    1
    47    38    40   ar
    48   143   145    1
    49   165   166    1
    50   118   116    1
    51   123   120    1
    52   171   169    1
    53    92    89    1
    54   132   131    1
    55    32    29    1
    56    29    28    1
    57    73    72    1
    58    73    74    2
    59    71    70    2
    60    88    89    1
    61   169   166    1
    62   169   170    1
    63   166   167    1
    64   122   121    2
    65    72    69    1
    66   120   121    1
    67   120   119    1
    68   116   117    1
    69   116   115    1
    70    89    90    1
    71   121   130   am
    72   130   131    1
    73    24    23    2
    74   131   134    1
    75    70    69    1
    76   178   177    1
    77    28    23   am
    78   167   168    2
    79   167   172   am
    80   115   112    1
    81    69    68    1
    82   134   135    1
    83    23    22    1
    84    78    79    2
    85    78    77    1
    86    90    91    2
    87    90    97   am
    88    26    25    1
    89   172   173    1
    90   177   179    1
    91   177   176    1
    92    76    77    1
    93    77    80    1
    94    27    25    1
    95    97    98    1
    96   112   113    1
    97   112   111    1
    98    25    22    1
    99    22    21    1
   100   135   136    1
   101   135   137    1
   102   173   176    1
   103   173   174    1
   104   113   114    2
   105    21    15   am
   106    63    62    2
   107   111   107   am
   108    98    99    1
   109    98   101    1
   110    80    81    1
   111   174   175    2
   112   174   180   am
   113    67    65   ar
   114    62    61    1
   115    99   105   am
   116    99   100    2
   117   101   102    1
   118    15    14    1
   119    15    16    2
   120    66    65   ar
   121    82    81   ar
   122    82    84   ar
   123   105   106    1
   124    81    83   ar
   125    65    64    1
   126   107   108    2
   127   107   106    1
   128   180   181    1
   129     4     3    2
   130    14    17    1
   131    14    13    1
   132    20    18    1
   133   106   109    1
   134    84    86   ar
   135    64    61    1
   136    83    85   ar
   137    61    60    1
   138   109   110    1
   139   200   198    1
   140   186   184    1
   141    17    18    1
   142   102   103    1
   143   102   104    1
   144   181   184    1
   145   181   182    1
   146     3    13   am
   147     3     2    1
   148    86    85   ar
   149    86    87    1
   150    18    19    1
   151   184   185    1
   152   183   182    2
   153   195   198    1
   154   195   194    1
   155   195   196    1
   156   198   199    1
   157   182   187   am
   158     5     2    1
   159     5     6    1
   160     2     1    1
   161     8     6   ar
   162     8    10   ar
   163   197   196    2
   164     6     7   ar
   165    10    11   ar
   166   187   188    1
   167    58    56    1
   168    59    57    1
   169    55    54    2
   170    57    56    1
   171     7     9   ar
   172    11     9   ar
   173    11    12    1
   174   188   189    1
   175   188   191    1
   176    54    53    1
   177    46    45    1
   178    48    49    1
   179    48    43   am
   180    56    53    1
   181   189   190    2
   182    49    50    1
   183    51    50    2
   184    47    45    1
   185    42    45    1
   186    42    43    1
   187    42    41    1
   188   192   191    1
   189    53    52    1
   190    43    44    2
   191   191   193    1
