@<TRIPOS>MOLECULE
tmp/4jwkA00.pdb
 105 102 0 0 0
SMALL
GASTEIGER

@<TRIPOS>ATOM
      1  N          8.1390   14.6710   25.6590 N.3    12  ASN12      -0.1240
      2  CA         8.2370   15.8080   26.5580 C.3    12  ASN12       0.1653
      3  C          9.6980   16.1800   26.7650 C.2    12  ASN12       0.2266
      4  O         10.5550   15.3100   26.7440 O.2    12  ASN12      -0.2867
      5  CB         7.6070   15.4620   27.9060 C.3    12  ASN12       0.1155
      6  CG         6.0970   15.5250   27.8750 C.2    12  ASN12       0.2627
      7  OD1        5.5180   16.5400   27.4770 O.2    12  ASN12      -0.2716
      8  ND2        5.4460   14.4580   28.3190 N.am   12  ASN12      -0.0877
      9  N         11.5640   13.4410   31.9500 N.3    17  TYR17      -0.1241
     10  CA        10.6380   12.7740   31.0230 C.3    17  TYR17       0.1605
     11  C         11.3470   11.9060   29.9870 C.2    17  TYR17       0.2264
     12  O         10.7020   11.1150   29.2940 O.2    17  TYR17      -0.2867
     13  CB         9.7850   13.8130   30.2930 C.3    17  TYR17       0.0534
     14  CG         8.8100   14.5290   31.1910 C.ar   17  TYR17      -0.0201
     15  CD1        7.6980   13.8710   31.7010 C.ar   17  TYR17      -0.0009
     16  CD2        8.9990   15.8650   31.5350 C.ar   17  TYR17      -0.0009
     17  CE1        6.8000   14.5190   32.5310 C.ar   17  TYR17       0.0417
     18  CE2        8.1050   16.5240   32.3600 C.ar   17  TYR17       0.0417
     19  CZ         7.0080   15.8480   32.8560 C.ar   17  TYR17       0.1957
     20  OH         6.1180   16.4980   33.6780 O.3    17  TYR17      -0.2866
     21  N          6.0070    7.9290   27.2270 N.3    22  HIS22      -0.1241
     22  CA         5.4630    8.9710   26.3570 C.3    22  HIS22       0.1621
     23  C          6.5200    9.5860   25.4400 C.2    22  HIS22       0.2264
     24  O          6.1790   10.3330   24.5210 O.2    22  HIS22      -0.2867
     25  CB         4.8020   10.0760   27.1910 C.3    22  HIS22       0.0745
     26  CG         3.4860   10.5380   26.6550 C.ar   22  HIS22       0.0817
     27  ND1        2.6480    9.7180   25.9340 N.ar   22  HIS22      -0.2268
     28  CD2        2.8420   11.7230   26.7690 C.ar   22  HIS22       0.1154
     29  CE1        1.5530   10.3760   25.6110 C.ar   22  HIS22       0.1986
     30  NE2        1.6470   11.5950   26.1020 N.ar   22  HIS22      -0.2212
     31  N          6.2850   20.5240   25.2250 N.3    68  TYR68      -0.1227
     32  CA         5.4860   19.5530   25.9770 C.3    68  TYR68       0.1736
     33  C          4.4630   18.9200   25.0480 C.2    68  TYR68       0.2595
     34  O          3.9910   19.5410   24.0940 O.2    68  TYR68      -0.2718
     35  CB         4.8320   20.1370   27.2410 C.3    68  TYR68       0.0548
     36  CG         5.8630   20.4830   28.2840 C.ar   68  TYR68      -0.0200
     37  CD1        6.3740   19.5070   29.1270 C.ar   68  TYR68      -0.0009
     38  CD2        6.3580   21.7790   28.3990 C.ar   68  TYR68      -0.0009
     39  CE1        7.3380   19.8100   30.0770 C.ar   68  TYR68       0.0417
     40  CE2        7.3180   22.0950   29.3470 C.ar   68  TYR68       0.0417
     41  CZ         7.8030   21.1050   30.1830 C.ar   68  TYR68       0.1957
     42  OH         8.7640   21.4090   31.1240 O.3    68  TYR68      -0.2866
     43  N          4.1360   17.6710   25.3430 N.am   69  MET69      -0.1965
     44  CA         3.4030   16.8140   24.4190 C.3    69  MET69       0.1736
     45  C          2.0900   17.4050   23.9160 C.2    69  MET69       0.2616
     46  O          1.8120   17.3550   22.7210 O.2    69  MET69      -0.2715
     47  CB         3.1220   15.4680   25.0760 C.3    69  MET69       0.0427
     48  CG         2.4020   14.4850   24.1760 C.3    69  MET69       0.0599
     49  SD         3.4140   13.9570   22.7960 S.3    69  MET69      -0.1393
     50  CE         4.2470   12.5520   23.5210 C.3    69  MET69       0.0692
     51  N          1.2740   17.9440   24.8160 N.am   70  ASN70      -0.1972
     52  CA        -0.0620   18.3830   24.4150 C.3    70  ASN70       0.1688
     53  C         -0.0750   19.7000   23.6340 C.2    70  ASN70       0.2292
     54  O         -1.1340   20.1450   23.1910 O.2    70  ASN70      -0.2864
     55  CB        -1.0480   18.3870   25.5980 C.3    70  ASN70       0.1181
     56  CG        -0.7200   19.4130   26.6640 C.2    70  ASN70       0.2629
     57  OD1        0.1920   20.2290   26.5240 O.2    70  ASN70      -0.2716
     58  ND2       -1.4840   19.3720   27.7560 N.am   70  ASN70      -0.0877
     59  N         -6.8690    8.9920   21.1780 N.3   114  GLY114     -0.1210
     60  CA        -6.6090    9.4400   22.5490 C.3   114  GLY114      0.1956
     61  C         -5.2550   10.1050   22.8100 C.2   114  GLY114      0.2612
     62  O         -5.0420   10.6690   23.8800 O.2   114  GLY114     -0.2717
     63  N         -4.3360   10.0460   21.8470 N.am  115  HIS115     -0.1961
     64  CA        -2.9890   10.5990   22.0410 C.3   115  HIS115      0.1787
     65  C         -3.0320   12.1250   21.9750 C.2   115  HIS115      0.2620
     66  O         -3.3720   12.6920   20.9380 O.2   115  HIS115     -0.2715
     67  CB        -2.0320   10.0400   20.9850 C.3   115  HIS115      0.0785
     68  CG        -0.5860   10.2530   21.3090 C.ar  115  HIS115      0.0821
     69  ND1        0.0430   11.4620   21.1290 N.ar  115  HIS115     -0.2267
     70  CD2        0.3500    9.4150   21.8130 C.ar  115  HIS115      0.1154
     71  CE1        1.3050   11.3640   21.5050 C.ar  115  HIS115      0.1986
     72  NE2        1.5180   10.1300   21.9220 N.ar  115  HIS115     -0.2212
     73  N         -2.6990   12.7970   23.0720 N.am  116  ASN116     -0.1958
     74  CA        -2.8680   14.2570   23.1110 C.3   116  ASN116      0.1819
     75  C         -1.7720   15.0420   22.3780 C.2   116  ASN116      0.2621
     76  O         -1.9270   16.2350   22.1380 O.2   116  ASN116     -0.2715
     77  CB        -3.0710   14.7760   24.5370 C.3   116  ASN116      0.1195
     78  CG        -4.4060   14.3670   25.1310 C.2   116  ASN116      0.2630
     79  OD1       -5.4240   14.3660   24.4490 O.2   116  ASN116     -0.2716
     80  ND2       -4.4060   14.0270   26.4180 N.am  116  ASN116     -0.0877
     81  N         -0.6850   14.3710   22.0000 N.am  117  GLY117     -0.1954
     82  CA         0.2560   14.9300   21.0290 C.3   117  GLY117      0.1869
     83  C         -0.3800   15.0310   19.6520 C.2   117  GLY117      0.2309
     84  O         -0.4590   16.1110   19.0660 O.2   117  GLY117     -0.2863
     85  N         -2.1240    8.2690   32.8020 N.3   146  SER146     -0.1217
     86  CA        -1.1540    9.3380   33.0120 C.3   146  SER146      0.1889
     87  C          0.0910    8.7950   33.7060 C.2   146  SER146      0.2288
     88  O          1.2190    9.0910   33.3010 O.2   146  SER146     -0.2866
     89  CB        -1.7660   10.4650   33.8470 C.3   146  SER146      0.2089
     90  OG        -0.9270   11.6050   33.8420 O.3   146  SER146     -0.2183
     91  N          1.9920    6.5290   30.9750 N.3   149  VAL149     -0.1231
     92  CA         2.7180    7.2040   29.8860 C.3   149  VAL149      0.1692
     93  C          3.8360    8.0970   30.4270 C.2   149  VAL149      0.2591
     94  O          4.8900    8.2220   29.8060 O.2   149  VAL149     -0.2718
     95  CB         1.7930    7.9830   28.9070 C.3   149  VAL149      0.0266
     96  CG1        0.6920    7.0740   28.3700 C.3   149  VAL149      0.0020
     97  CG2        1.2050    9.2350   29.5410 C.3   149  VAL149      0.0020
     98  N          3.6240    8.6920   31.5980 N.am  150  LEU150     -0.1980
     99  CA         4.6650    9.4960   32.2370 C.3   150  LEU150      0.1596
    100  C          5.5060    8.6740   33.2040 C.2   150  LEU150      0.2287
    101  O          6.2720    9.2270   33.9950 O.2   150  LEU150     -0.2864
    102  CB         4.0510   10.7020   32.9440 C.3   150  LEU150      0.0297
    103  CG         3.1820   11.5720   32.0370 C.3   150  LEU150      0.0022
    104  CD1        2.5220   12.6800   32.8450 C.3   150  LEU150      0.0001
    105  CD2        3.9990   12.1410   30.8780 C.3   150  LEU150      0.0001
@<TRIPOS>BOND
     1    84    83    2
     2    83    82    1
     3    66    65    2
     4    67    68    1
     5    67    64    1
     6    82    81    1
     7    69    68   ar
     8    69    71   ar
     9    59    60    1
    10    68    70   ar
    11    71    72   ar
    12    70    72   ar
    13    63    64    1
    14    63    61   am
    15    65    64    1
    16    65    73   am
    17    81    75   am
    18    76    75    2
    19    75    74    1
    20    60    61    1
    21    46    45    2
    22    49    50    1
    23    49    48    1
    24    61    62    2
    25    73    74    1
    26    74    77    1
    27    54    53    2
    28    53    52    1
    29    45    44    1
    30    45    51   am
    31    34    33    2
    32    48    47    1
    33    52    51    1
    34    52    55    1
    35    44    47    1
    36    44    43    1
    37    79    78    2
    38    24    23    2
    39    77    78    1
    40    33    43   am
    41    33    32    1
    42    78    80   am
    43    31    32    1
    44    23    22    1
    45    55    56    1
    46    29    27   ar
    47    29    30   ar
    48     1     2    1
    49    27    26   ar
    50    32    35    1
    51    30    28   ar
    52    22    25    1
    53    22    21    1
    54    57    56    2
    55     2     3    1
    56     2     5    1
    57    26    28   ar
    58    26    25    1
    59    56    58   am
    60     4     3    2
    61    35    36    1
    62     7     6    2
    63     6     5    1
    64     6     8   am
    65    36    38   ar
    66    36    37   ar
    67    96    95    1
    68    38    40   ar
    69    95    97    1
    70    95    92    1
    71    37    39   ar
    72    12    11    2
    73    40    41   ar
    74    94    93    2
    75    92    93    1
    76    92    91    1
    77    11    10    1
    78    39    41   ar
    79    41    42    1
    80    13    10    1
    81    13    14    1
    82    93    98   am
    83   105   103    1
    84    10     9    1
    85    14    16   ar
    86    14    15   ar
    87    16    18   ar
    88    98    99    1
    89    15    17   ar
    90   103   104    1
    91   103   102    1
    92    99   102    1
    93    99   100    1
    94    18    19   ar
    95    17    19   ar
    96    85    86    1
    97    19    20    1
    98    86    87    1
    99    86    89    1
   100   100   101    2
   101    88    87    2
   102    90    89    1
