@<TRIPOS>MOLECULE
tmp/4jwpA00.pdb
 196 189 0 0 0
SMALL
GASTEIGER

@<TRIPOS>ATOM
      1  N         26.3770   31.0400   22.7930 N.3    24  ALA24      -0.1245
      2  CA        26.8930   32.2250   22.1050 C.3    24  ALA24       0.1562
      3  C         26.9240   33.4390   23.0440 C.2    24  ALA24       0.2260
      4  O         27.8930   34.2250   23.0480 O.2    24  ALA24      -0.2867
      5  CB        26.0720   32.5410   20.8520 C.3    24  ALA24       0.0290
      6  N         30.8320   34.0190   23.5550 N.3    28  THR28      -0.1218
      7  CA        31.2790   34.7820   22.4040 C.3    28  THR28       0.1862
      8  C         30.8410   36.2280   22.5920 C.2    28  THR28       0.2287
      9  O         30.1010   36.5420   23.5300 O.2    28  THR28      -0.2866
     10  CB        30.5830   34.3470   21.1060 C.3    28  THR28       0.1770
     11  OG1       29.1960   34.7930   21.1200 O.3    28  THR28      -0.2211
     12  CG2       30.6660   32.8760   20.8900 C.3    28  THR28       0.0375
     13  N         29.0680   37.7560   20.2900 N.3    30  ALA30      -0.1245
     14  CA        28.0220   37.8600   19.2610 C.3    30  ALA30       0.1562
     15  C         26.8100   38.6680   19.7610 C.2    30  ALA30       0.2260
     16  O         26.1260   39.2880   18.9780 O.2    30  ALA30      -0.2867
     17  CB        27.5850   36.4950   18.8240 C.3    30  ALA30       0.0290
     18  N         18.0290   43.6280   10.4700 N.3    85  GLU85      -0.1231
     19  CA        19.3070   43.2430   11.0060 C.3    85  GLU85       0.1699
     20  C         19.3020   41.7260   11.2440 C.2    85  GLU85       0.2592
     21  O         18.3710   41.1710   11.8580 O.2    85  GLU85      -0.2718
     22  CB        19.6660   44.0140   12.2620 C.3    85  GLU85       0.0402
     23  CG        21.0200   43.5700   12.8080 C.3    85  GLU85       0.1161
     24  CD        21.6060   44.4430   13.8960 C.2    85  GLU85       0.3649
     25  OE1       21.1930   45.5870   14.0740 O.co2  85  GLU85      -0.2457
     26  OE2       22.5360   43.9760   14.5680 O.co2  85  GLU85      -0.2457
     27  N         20.3280   41.0660   10.7470 N.am   86  LEU86      -0.1966
     28  CA        20.3430   39.6050   10.7650 C.3    86  LEU86       0.1728
     29  C         21.1140   39.0180   11.9420 C.2    86  LEU86       0.2617
     30  O         21.9310   39.7050   12.5440 O.2    86  LEU86      -0.2715
     31  CB        20.9070   39.0740    9.4720 C.3    86  LEU86       0.0311
     32  CG        22.4080   39.2240    9.2600 C.3    86  LEU86       0.0022
     33  CD1       23.2090   37.9950    9.7250 C.3    86  LEU86       0.0001
     34  CD2       22.6220   39.3890    7.7750 C.3    86  LEU86       0.0001
     35  N         20.8410   37.7370   12.2250 N.am   87  SER87      -0.1936
     36  CA        21.5720   36.9470   13.2140 C.3    87  SER87       0.2055
     37  C         21.9030   35.6100   12.6010 C.2    87  SER87       0.2643
     38  O         21.0740   35.0210   11.8640 O.2    87  SER87      -0.2714
     39  CB        20.6890   36.7200   14.4790 C.3    87  SER87       0.2130
     40  OG        20.2180   37.9840   15.0130 O.3    87  SER87      -0.2179
     41  N         23.0830   35.0950   12.9430 N.am   88  VAL88      -0.1963
     42  CA        23.4950   33.7570   12.5110 C.3    88  VAL88       0.1727
     43  C         24.3620   33.1270   13.6010 C.2    88  VAL88       0.2616
     44  O         25.2270   33.8090   14.1890 O.2    88  VAL88      -0.2715
     45  CB        24.1760   33.8210   11.1210 C.3    88  VAL88       0.0290
     46  CG1       25.3070   34.8330   11.1340 C.3    88  VAL88       0.0023
     47  CG2       24.6510   32.4490   10.6370 C.3    88  VAL88       0.0023
     48  N         24.0730   31.8660   13.9310 N.am   89  TYR89      -0.1960
     49  CA        24.7890   31.1560   14.9650 C.3    89  TYR89       0.1771
     50  C         25.0310   29.7250   14.5180 C.2    89  TYR89       0.2619
     51  O         24.0920   29.0340   14.0620 O.2    89  TYR89      -0.2715
     52  CB        24.0000   31.1030   16.2550 C.3    89  TYR89       0.0574
     53  CG        23.3900   32.3680   16.7060 C.ar   89  TYR89      -0.0198
     54  CD1       22.1610   32.7610   16.2150 C.ar   89  TYR89      -0.0009
     55  CD2       24.0380   33.2000   17.6160 C.ar   89  TYR89      -0.0009
     56  CE1       21.5790   33.9340   16.6260 C.ar   89  TYR89       0.0417
     57  CE2       23.4490   34.3860   18.0320 C.ar   89  TYR89       0.0417
     58  CZ        22.2130   34.7360   17.5270 C.ar   89  TYR89       0.1957
     59  OH        21.5680   35.8820   17.9250 O.3    89  TYR89      -0.2866
     60  N         26.2590   29.2640   14.6680 N.am   90  VAL90      -0.1977
     61  CA        26.5620   27.8500   14.3860 C.3    90  VAL90       0.1596
     62  C         27.0240   27.2180   15.7130 C.2    90  VAL90       0.2287
     63  O         27.7340   27.8550   16.5060 O.2    90  VAL90      -0.2864
     64  CB        27.5930   27.7230   13.2500 C.3    90  VAL90       0.0276
     65  CG1       28.1010   26.2880   13.1330 C.3    90  VAL90       0.0022
     66  CG2       26.9870   28.2350   11.9370 C.3    90  VAL90       0.0022
     67  N         30.7740   22.8250   15.7000 N.3    94  ALA94      -0.1231
     68  CA        30.5820   22.6160   14.2720 C.3    94  ALA94       0.1694
     69  C         31.0440   23.7760   13.4000 C.2    94  ALA94       0.2592
     70  O         30.6470   23.8730   12.2380 O.2    94  ALA94      -0.2718
     71  CB        29.1040   22.3170   14.0040 C.3    94  ALA94       0.0304
     72  N         31.8430   24.6790   13.9750 N.am   95  ARG95      -0.1966
     73  CA        32.2050   25.8930   13.2920 C.3    95  ARG95       0.1729
     74  C         33.3440   25.6800   12.2990 C.2    95  ARG95       0.2617
     75  O         34.0770   24.6980   12.3520 O.2    95  ARG95      -0.2715
     76  CB        32.5040   27.0330   14.2870 C.3    95  ARG95       0.0348
     77  CG        31.2430   27.5190   14.9310 C.3    95  ARG95       0.0492
     78  CD        31.4850   28.5460   16.0250 C.3    95  ARG95       0.2205
     79  NE        30.2810   28.7410   16.7910 N.pl3  95  ARG95      -0.0865
     80  CZ        30.2410   29.1690   18.0330 C.cat  95  ARG95       0.5346
     81  NH1       31.3340   29.4990   18.6570 N.pl3  95  ARG95       0.1354
     82  NH2       29.0690   29.3050   18.6500 N.pl3  95  ARG95       0.1354
     83  N         33.4180   26.5930   11.3400 N.am   96  GLY96      -0.1940
     84  CA        34.4930   26.6120   10.3660 C.3    96  GLY96       0.2014
     85  C         34.2890   25.6460    9.2470 C.2    96  GLY96       0.2639
     86  O         35.2150   25.3720    8.4920 O.2    96  GLY96      -0.2714
     87  N         33.0750   25.1130    9.1090 N.am   97  GLY97      -0.1939
     88  CA        32.8180   24.0720    8.1380 C.3    97  GLY97       0.2014
     89  C         31.7840   24.4310    7.0910 C.2    97  GLY97       0.2639
     90  O         31.1790   23.5370    6.5200 O.2    97  GLY97      -0.2714
     91  N         31.5450   25.7260    6.8570 N.am   98  GLY98      -0.1939
     92  CA        30.5890   26.1450    5.8490 C.3    98  GLY98       0.2014
     93  C         29.1090   26.2180    6.2460 C.2    98  GLY98       0.2639
     94  O         28.2670   26.5630    5.4140 O.2    98  GLY98      -0.2714
     95  N         28.7700   25.8920    7.4980 N.am   99  ILE99      -0.1963
     96  CA        27.3610   25.9390    7.8970 C.3    99  ILE99       0.1727
     97  C         26.8910   27.3930    7.8650 C.2    99  ILE99       0.2617
     98  O         25.8240   27.7100    7.3260 O.2    99  ILE99      -0.2715
     99  CB        27.1240   25.3040    9.2810 C.3    99  ILE99       0.0290
    100  CG1       27.5820   23.8420    9.2900 C.3    99  ILE99       0.0022
    101  CG2       25.6560   25.3770    9.6920 C.3    99  ILE99       0.0023
    102  CD1       27.5270   23.2530   10.6750 C.3    99  ILE99       0.0001
    103  N         27.7050   28.2870    8.4100 N.am  100  GLY100     -0.1940
    104  CA        27.4080   29.7130    8.3920 C.3   100  GLY100      0.2014
    105  C         27.1500   30.2680    6.9980 C.2   100  GLY100      0.2638
    106  O         26.1310   30.9310    6.7900 O.2   100  GLY100     -0.2714
    107  N         28.0500   29.9670    6.0530 N.am  101  ARG101     -0.1977
    108  CA        27.9010   30.3950    4.6410 C.3   101  ARG101      0.1597
    109  C         26.5550   29.9080    4.0430 C.2   101  ARG101      0.2287
    110  O         25.8110   30.6840    3.4450 O.2   101  ARG101     -0.2864
    111  CB        29.0950   29.9060    3.8070 C.3   101  ARG101      0.0334
    112  CG        29.1710   30.4330    2.3570 C.3   101  ARG101      0.0492
    113  CD        29.6840   29.3810    1.3640 C.3   101  ARG101      0.2205
    114  NE        28.7280   28.2440    1.2940 N.pl3 101  ARG101     -0.0865
    115  CZ        27.5930   28.2230    0.5800 C.cat 101  ARG101      0.5346
    116  NH1       27.2450   29.2420   -0.2080 N.pl3 101  ARG101      0.1354
    117  NH2       26.7930   27.1620    0.6670 N.pl3 101  ARG101      0.1354
    118  N         24.3560   43.8720    9.2420 N.3   121  ALA121     -0.1231
    119  CA        25.0330   43.1080   10.2700 C.3   121  ALA121      0.1694
    120  C         25.7790   44.0510   11.1530 C.2   121  ALA121      0.2593
    121  O         26.6140   44.8500   10.6630 O.2   121  ALA121     -0.2718
    122  CB        25.9810   42.0870    9.6770 C.3   121  ALA121      0.0304
    123  N         25.4860   43.9550   12.4490 N.am  122  GLY122     -0.1942
    124  CA        26.2720   44.6350   13.5110 C.3   122  GLY122      0.2014
    125  C         27.2190   43.6330   14.1620 C.2   122  GLY122      0.2639
    126  O         26.7820   42.6730   14.8020 O.2   122  GLY122     -0.2714
    127  N         28.5170   43.8300   13.9330 N.am  123  ILE123     -0.1963
    128  CA        29.5200   42.8370   14.2290 C.3   123  ILE123      0.1727
    129  C         30.6040   43.4460   15.1240 C.2   123  ILE123      0.2616
    130  O         31.0950   44.5750   14.8870 O.2   123  ILE123     -0.2715
    131  CB        30.1810   42.3360   12.9300 C.3   123  ILE123      0.0290
    132  CG1       29.1630   41.7840   11.9490 C.3   123  ILE123      0.0022
    133  CG2       31.1560   41.2340   13.2020 C.3   123  ILE123      0.0023
    134  CD1       29.7460   41.5450   10.5850 C.3   123  ILE123      0.0001
    135  N         30.9860   42.7260   16.1670 N.am  124  GLU124     -0.1977
    136  CA        32.1250   43.1690   16.9720 C.3   124  GLU124      0.1602
    137  C         33.3790   43.1280   16.0970 C.2   124  GLU124      0.2287
    138  O         33.5680   42.2070   15.3150 O.2   124  GLU124     -0.2864
    139  CB        32.3090   42.3220   18.2490 C.3   124  GLU124      0.0415
    140  CG        33.3640   42.8760   19.1800 C.3   124  GLU124      0.1163
    141  CD        34.7540   42.2800   18.9700 C.2   124  GLU124      0.3649
    142  OE1       34.8650   41.1090   18.5050 O.co2 124  GLU124     -0.2457
    143  OE2       35.7510   42.9910   19.2280 O.co2 124  GLU124     -0.2457
    144  N         35.4610   40.1100   15.5070 N.3   127  ASN127     -0.1225
    145  CA        34.8200   38.8500   15.1210 C.3   127  ASN127      0.1785
    146  C         35.1800   38.4510   13.6890 C.2   127  ASN127      0.2597
    147  O         34.4090   38.6400   12.7590 O.2   127  ASN127     -0.2718
    148  CB        33.3140   38.9410   15.3350 C.3   127  ASN127      0.1169
    149  CG        32.5970   37.6000   15.1870 C.2   127  ASN127      0.2627
    150  OD1       33.1460   36.6070   14.6290 O.2   127  ASN127     -0.2716
    151  ND2       31.3210   37.5790   15.6080 N.am  127  ASN127     -0.0877
    152  N         36.3550   37.8430   13.5290 N.am  128  ALA128     -0.1966
    153  CA        36.9170   37.6720   12.2240 C.3   128  ALA128      0.1728
    154  C         36.1010   36.7260   11.4000 C.2   128  ALA128      0.2616
    155  O         36.0270   36.8710   10.1800 O.2   128  ALA128     -0.2715
    156  CB        38.3320   37.1740   12.3040 C.3   128  ALA128      0.0334
    157  N         35.5570   35.7100   12.0410 N.am  129  ALA129     -0.1963
    158  CA        34.6880   34.7520   11.3400 C.3   129  ALA129      0.1728
    159  C         33.4820   35.4480   10.7130 C.2   129  ALA129      0.2616
    160  O         33.1500   35.2040    9.5320 O.2   129  ALA129     -0.2715
    161  CB        34.2290   33.6460   12.3060 C.3   129  ALA129      0.0334
    162  N         32.8110   36.2960   11.4940 N.am  130  SER130     -0.1950
    163  CA        31.5790   36.9140   11.0200 C.3   130  SER130      0.1924
    164  C         31.8870   37.8770    9.8670 C.2   130  SER130      0.2314
    165  O         31.1980   37.8630    8.8460 O.2   130  SER130     -0.2863
    166  CB        30.8610   37.6400   12.1320 C.3   130  SER130      0.2116
    167  OG        29.6400   38.1690   11.6530 O.3   130  SER130     -0.2180
    168  N         34.3960   37.7310    7.7900 N.3   132  ALA132     -0.1231
    169  CA        34.7180   36.9310    6.5880 C.3   132  ALA132      0.1694
    170  C         33.4490   36.3540    5.9740 C.2   132  ALA132      0.2592
    171  O         33.2690   36.3700    4.7710 O.2   132  ALA132     -0.2718
    172  CB        35.6860   35.8390    6.9470 C.3   132  ALA132      0.0304
    173  N         32.5760   35.8460    6.8190 N.am  133  LEU133     -0.1966
    174  CA        31.3040   35.2820    6.3930 C.3   133  LEU133      0.1728
    175  C         30.4800   36.2790    5.5700 C.2   133  LEU133      0.2616
    176  O         30.0750   36.0230    4.4310 O.2   133  LEU133     -0.2715
    177  CB        30.5230   34.8040    7.6280 C.3   133  LEU133      0.0311
    178  CG        29.0550   34.3960    7.3820 C.3   133  LEU133      0.0022
    179  CD1       28.9520   33.1510    6.5320 C.3   133  LEU133      0.0001
    180  CD2       28.2830   34.2440    8.6930 C.3   133  LEU133      0.0001
    181  N         30.3100   37.4580    6.1340 N.am  134  HIS134     -0.1973
    182  CA        29.5340   38.4840    5.4840 C.3   134  HIS134      0.1656
    183  C         30.2050   39.0090    4.2190 C.2   134  HIS134      0.2291
    184  O         29.5410   39.1640    3.2220 O.2   134  HIS134     -0.2864
    185  CB        29.2550   39.6020    6.4710 C.3   134  HIS134      0.0771
    186  CG        28.2280   39.2260    7.4760 C.ar  134  HIS134      0.0820
    187  ND1       28.5320   38.5420    8.6190 N.ar  134  HIS134     -0.2267
    188  CD2       26.8870   39.3380    7.4550 C.ar  134  HIS134      0.1154
    189  CE1       27.4290   38.2860    9.2950 C.ar  134  HIS134      0.1986
    190  NE2       26.4120   38.7430    8.5980 N.ar  134  HIS134     -0.2212
    191  N         32.0670   37.3840    2.2470 N.3   136  SER136     -0.1217
    192  CA        31.8670   36.3420    1.2320 C.3   136  SER136      0.1889
    193  C         30.4970   36.3850    0.5500 C.2   136  SER136      0.2288
    194  O         30.3550   35.8350   -0.5380 O.2   136  SER136     -0.2866
    195  CB        32.0990   34.9420    1.8150 C.3   136  SER136      0.2089
    196  OG        30.9150   34.4220    2.4980 O.3   136  SER136     -0.2183
@<TRIPOS>BOND
     1   194   193    2
     2   116   115    1
     3   193   192    1
     4   115   117    1
     5   115   114    2
     6   192   195    1
     7   192   191    1
     8   114   113    1
     9   113   112    1
    10   195   196    1
    11   112   111    1
    12   184   183    2
    13   110   109    2
    14   111   108    1
    15   109   108    1
    16   183   182    1
    17   176   175    2
    18   108   107    1
    19   171   170    2
    20    94    93    2
    21   182   181    1
    22   182   185    1
    23   175   181   am
    24   175   174    1
    25    92    93    1
    26    92    91    1
    27   170   169    1
    28   170   173   am
    29   107   105   am
    30    93    95   am
    31   174   173    1
    32   174   177    1
    33   185   186    1
    34    90    89    2
    35   179   178    1
    36   169   172    1
    37   169   168    1
    38   106   105    2
    39    91    89   am
    40   105   104    1
    41    89    88    1
    42    98    97    2
    43   178   177    1
    44   178   180    1
    45   188   186   ar
    46   188   190   ar
    47   186   187   ar
    48    95    96    1
    49    34    32    1
    50    97    96    1
    51    97   103   am
    52    96    99    1
    53    88    87    1
    54   104   103    1
    55    86    85    2
    56   190   189   ar
    57   187   189   ar
    58   165   164    2
    59    87    85   am
    60   118   119    1
    61    85    84    1
    62    32    31    1
    63    32    33    1
    64    99   100    1
    65    99   101    1
    66   100   102    1
    67    31    28    1
    68   160   159    2
    69   122   119    1
    70   164   163    1
    71   155   154    2
    72   119   120    1
    73    84    83    1
    74    18    19    1
    75   134   132    1
    76    47    45    1
    77   121   120    2
    78   159   158    1
    79   159   162   am
    80    27    28    1
    81    27    20   am
    82    28    29    1
    83    19    20    1
    84    19    22    1
    85   163   162    1
    86   163   166    1
    87    45    46    1
    88    45    42    1
    89   120   123   am
    90    20    21    2
    91   158   157    1
    92   158   161    1
    93    83    74   am
    94   154   157   am
    95   154   153    1
    96   167   166    1
    97    38    37    2
    98    66    64    1
    99    29    35   am
   100    29    30    2
   101   132   131    1
   102   153   156    1
   103   153   152    1
   104    35    36    1
   105    70    69    2
   106    22    23    1
   107    74    75    2
   108    74    73    1
   109   123   124    1
   110    42    41    1
   111    42    43    1
   112    37    41   am
   113    37    36    1
   114   147   146    2
   115    23    24    1
   116   131   133    1
   117   131   128    1
   118    65    64    1
   119    36    39    1
   120    64    61    1
   121    73    72    1
   122    73    76    1
   123    69    72   am
   124    69    68    1
   125   124   125    1
   126   152   146   am
   127    43    48   am
   128    43    44    2
   129   146   145    1
   130    24    25   ar
   131    24    26   ar
   132    48    49    1
   133   127   125   am
   134   127   128    1
   135    71    68    1
   136    51    50    2
   137   125   126    2
   138   128   129    1
   139    68    67    1
   140    76    77    1
   141    61    60    1
   142    61    62    1
   143    39    40    1
   144    50    60   am
   145    50    49    1
   146   150   149    2
   147   130   129    2
   148    77    78    1
   149    49    52    1
   150   145   148    1
   151   145   144    1
   152   129   135   am
   153   149   148    1
   154   149   151   am
   155   138   137    2
   156    62    63    2
   157    78    79    1
   158   137   136    1
   159   135   136    1
   160    54    56   ar
   161    54    53   ar
   162    52    53    1
   163    56    58   ar
   164    53    55   ar
   165    79    80    2
   166   136   139    1
   167    58    59    1
   168    58    57   ar
   169    55    57   ar
   170    80    82    1
   171    80    81    1
   172   139   140    1
   173   142   141   ar
   174    17    14    1
   175   141   140    1
   176   141   143   ar
   177    16    15    2
   178    14    15    1
   179    14    13    1
   180     5     2    1
   181    12    10    1
   182    10    11    1
   183    10     7    1
   184     2     1    1
   185     2     3    1
   186     7     8    1
   187     7     6    1
   188     8     9    2
   189     3     4    2
