@<TRIPOS>MOLECULE
tmp/4jwsB01.pdb
 98 94 0 0 0
SMALL
GASTEIGER

@<TRIPOS>ATOM
      1  N         24.3510  -41.9480   -0.1120 N.3    66  TYR66      -0.1241
      2  CA        25.6290  -41.4720   -0.6530 C.3    66  TYR66       0.1605
      3  C         26.6350  -42.5960   -0.8970 C.2    66  TYR66       0.2264
      4  O         27.5470  -42.4450   -1.7190 O.2    66  TYR66      -0.2867
      5  CB        26.2310  -40.4220    0.2850 C.3    66  TYR66       0.0534
      6  CG        25.7290  -39.0280   -0.0130 C.ar   66  TYR66      -0.0201
      7  CD1       25.7710  -38.5280   -1.3120 C.ar   66  TYR66      -0.0009
      8  CD2       25.2070  -38.2150    0.9900 C.ar   66  TYR66      -0.0009
      9  CE1       25.3120  -37.2520   -1.6100 C.ar   66  TYR66       0.0417
     10  CE2       24.7440  -36.9370    0.7010 C.ar   66  TYR66       0.0417
     11  CZ        24.7970  -36.4650   -0.6000 C.ar   66  TYR66       0.1957
     12  OH        24.3380  -35.1940   -0.8990 O.3    66  TYR66      -0.2866
     13  N         26.0420  -45.7660   -4.8760 N.3    69  TYR69      -0.1241
     14  CA        26.1660  -45.0150   -6.1270 C.3    69  TYR69       0.1605
     15  C         25.4430  -45.7020   -7.2920 C.2    69  TYR69       0.2264
     16  O         25.1060  -45.0590   -8.2860 O.2    69  TYR69      -0.2867
     17  CB        27.6440  -44.7980   -6.4620 C.3    69  TYR69       0.0534
     18  CG        28.4260  -46.0840   -6.5850 C.ar   69  TYR69      -0.0201
     19  CD1       28.4780  -46.7720   -7.7870 C.ar   69  TYR69      -0.0009
     20  CD2       29.0960  -46.6180   -5.4920 C.ar   69  TYR69      -0.0009
     21  CE1       29.1800  -47.9490   -7.9020 C.ar   69  TYR69       0.0417
     22  CE2       29.8050  -47.7940   -5.5940 C.ar   69  TYR69       0.0417
     23  CZ        29.8440  -48.4580   -6.8030 C.ar   69  TYR69       0.1957
     24  OH        30.5480  -49.6360   -6.9170 O.3    69  TYR69      -0.2866
     25  N         25.1910  -39.1470   -9.4280 N.3    74  SER74      -0.1217
     26  CA        25.5660  -37.7450   -9.2800 C.3    74  SER74       0.1889
     27  C         25.6040  -37.0060  -10.6180 C.2    74  SER74       0.2288
     28  O         26.0680  -35.8590  -10.6980 O.2    74  SER74      -0.2866
     29  CB        26.9240  -37.6450   -8.5780 C.3    74  SER74       0.2089
     30  OG        27.9260  -38.3080   -9.3280 O.3    74  SER74      -0.2183
     31  N         28.0820  -35.8670  -13.9150 N.3    83  SER83      -0.1202
     32  CA        29.5220  -35.9640  -13.7110 C.3    83  SER83       0.2020
     33  C         30.2260  -36.7100  -14.8570 C.2    83  SER83       0.2618
     34  O         29.8130  -36.6380  -16.0270 O.2    83  SER83      -0.2717
     35  CB        29.8150  -36.6420  -12.3790 C.3    83  SER83       0.2103
     36  OG        29.2010  -37.9630  -12.4280 O.3    83  SER83      -0.2182
     37  N         31.3000  -37.4140  -14.5020 N.am   84  MET84      -0.1979
     38  CA        32.1650  -38.1110  -15.4560 C.3    84  MET84       0.1605
     39  C         32.3570  -39.5640  -15.0140 C.2    84  MET84       0.2287
     40  O         32.1690  -39.8830  -13.8370 O.2    84  MET84      -0.2864
     41  CB        33.5160  -37.4010  -15.6020 C.3    84  MET84       0.0413
     42  CG        34.4300  -37.5130  -14.3900 C.3    84  MET84       0.0598
     43  SD        35.8880  -36.4370  -14.4970 S.3    84  MET84      -0.1393
     44  CE        36.1600  -36.3980  -16.2700 C.3    84  MET84       0.0692
     45  N         33.5980  -43.3110  -13.8420 N.3    86  PRO86      -0.2116
     46  CA        34.4440  -43.7370  -12.7140 C.3    86  PRO86       0.1372
     47  C         35.9580  -43.8490  -12.9850 C.2    86  PRO86       0.2244
     48  O         36.7150  -43.4210  -12.1200 O.2    86  PRO86      -0.2868
     49  CB        33.8610  -45.1070  -12.3430 C.3    86  PRO86       0.0268
     50  CG        32.4360  -44.9970  -12.7230 C.3    86  PRO86       0.0207
     51  CD        32.4240  -44.1900  -13.9980 C.3    86  PRO86       0.0892
     52  N         37.0540  -40.3840  -13.1620 N.3    89  GLN89      -0.1231
     53  CA        36.7860  -39.8650  -11.8240 C.3    89  GLN89       0.1698
     54  C         37.9270  -40.1960  -10.8580 C.2    89  GLN89       0.2592
     55  O         38.4290  -39.3210  -10.1640 O.2    89  GLN89      -0.2718
     56  CB        35.4650  -40.4250  -11.2830 C.3    89  GLN89       0.0381
     57  CG        35.2260  -40.1300   -9.7930 C.3    89  GLN89       0.0905
     58  CD        35.0440  -38.6420   -9.5100 C.2    89  GLN89       0.2608
     59  OE1       34.8940  -37.8360  -10.4410 O.2    89  GLN89      -0.2717
     60  NE2       35.0500  -38.2670   -8.2240 N.am   89  GLN89      -0.0878
     61  N         38.3530  -41.4510  -10.8480 N.am   90  ARG90      -0.1980
     62  CA        39.4310  -41.8480   -9.9840 C.3    90  ARG90       0.1597
     63  C         40.6840  -41.0480  -10.3120 C.2    90  ARG90       0.2287
     64  O         41.3780  -40.5940   -9.3990 O.2    90  ARG90      -0.2864
     65  CB        39.7150  -43.3480  -10.1090 C.3    90  ARG90       0.0334
     66  CG        40.5960  -43.8760   -8.9680 C.3    90  ARG90       0.0492
     67  CD        41.1890  -45.2410   -9.2820 C.3    90  ARG90       0.2205
     68  NE        42.2030  -45.1390  -10.3280 N.pl3  90  ARG90      -0.0865
     69  CZ        43.5010  -44.9600  -10.0920 C.cat  90  ARG90       0.5346
     70  NH1       43.9610  -44.8980   -8.8370 N.pl3  90  ARG90       0.1354
     71  NH2       44.3450  -44.8640  -11.1160 N.pl3  90  ARG90       0.1354
     72  N         21.1350  -36.3840   -5.4760 N.3   280  ARG280     -0.1245
     73  CA        21.3870  -37.3890   -6.4800 C.3   280  ARG280      0.1563
     74  C         20.1170  -37.6340   -7.2520 C.2   280  ARG280      0.2260
     75  O         19.0370  -37.1320   -6.8920 O.2   280  ARG280     -0.2867
     76  CB        21.8860  -38.6900   -5.8310 C.3   280  ARG280      0.0307
     77  CG        23.2190  -38.5560   -5.0220 C.3   280  ARG280      0.0489
     78  CD        24.4130  -38.2920   -5.9260 C.3   280  ARG280      0.2205
     79  NE        25.7150  -38.3430   -5.2430 N.pl3 280  ARG280     -0.0865
     80  CZ        26.4160  -37.2820   -4.8320 C.cat 280  ARG280      0.5346
     81  NH1       25.9490  -36.0440   -5.0040 N.pl3 280  ARG280      0.1354
     82  NH2       27.5920  -37.4600   -4.2340 N.pl3 280  ARG280      0.1354
     83  N         32.1400  -41.6630   -2.1940 N.3   335  SER335     -0.1202
     84  CA        33.2140  -41.4490   -3.1540 C.3   335  SER335      0.2020
     85  C         33.5120  -39.9700   -3.4600 C.2   335  SER335      0.2618
     86  O         34.6580  -39.6090   -3.7400 O.2   335  SER335     -0.2717
     87  CB        32.8630  -42.1800   -4.4490 C.3   335  SER335      0.2103
     88  OG        33.7290  -41.7730   -5.4810 O.3   335  SER335     -0.2182
     89  N         32.5060  -39.1060   -3.3670 N.am  336  HIS336     -0.1975
     90  CA        32.7080  -37.6950   -3.7050 C.3   336  HIS336      0.1656
     91  C         32.9660  -36.8110   -2.4790 C.2   336  HIS336      0.2291
     92  O         32.8200  -35.5920   -2.5400 O.2   336  HIS336     -0.2864
     93  CB        31.5050  -37.1610   -4.4700 C.3   336  HIS336      0.0771
     94  CG        31.3060  -37.8160   -5.7990 C.ar  336  HIS336      0.0820
     95  ND1       31.9900  -37.4260   -6.9310 N.ar  336  HIS336     -0.2267
     96  CD2       30.5080  -38.8440   -6.1760 C.ar  336  HIS336      0.1154
     97  CE1       31.6110  -38.1780   -7.9510 C.ar  336  HIS336      0.1986
     98  NE2       30.7150  -39.0490   -7.5200 N.ar  336  HIS336     -0.2212
@<TRIPOS>BOND
     1    44    43    1
     2    34    33    2
     3    41    38    1
     4    41    42    1
     5    38    39    1
     6    38    37    1
     7    39    40    2
     8    33    37   am
     9    33    32    1
    10    43    42    1
    11    51    45    1
    12    51    50    1
    13    31    32    1
    14    45    46    1
    15    32    35    1
    16    52    53    1
    17    47    46    1
    18    47    48    2
    19    50    49    1
    20    46    49    1
    21    36    35    1
    22    53    56    1
    23    53    54    1
    24    56    57    1
    25    71    69    1
    26    54    61   am
    27    54    55    2
    28    61    62    1
    29    28    27    2
    30    27    26    1
    31    59    58    2
    32    68    69    2
    33    68    67    1
    34    63    62    1
    35    63    64    2
    36    65    62    1
    37    65    66    1
    38    69    70    1
    39    57    58    1
    40    58    60   am
    41    25    26    1
    42    30    29    1
    43    67    66    1
    44    26    29    1
    45    16    15    2
    46    97    98   ar
    47    97    95   ar
    48    21    19   ar
    49    21    23   ar
    50    19    18   ar
    51    98    96   ar
    52    15    14    1
    53    74    75    2
    54    74    73    1
    55    95    94   ar
    56    24    23    1
    57    23    22   ar
    58    18    17    1
    59    18    20   ar
    60    73    76    1
    61    73    72    1
    62    17    14    1
    63    96    94   ar
    64    14    13    1
    65    78    79    1
    66    78    77    1
    67    76    77    1
    68    94    93    1
    69    22    20   ar
    70    88    87    1
    71    79    80    2
    72    81    80    1
    73    80    82    1
    74    93    90    1
    75    87    84    1
    76    86    85    2
    77    90    89    1
    78    90    91    1
    79    85    89   am
    80    85    84    1
    81    84    83    1
    82    92    91    2
    83     4     3    2
    84     9     7   ar
    85     9    11   ar
    86     7     6   ar
    87    12    11    1
    88     3     2    1
    89     2     1    1
    90     2     5    1
    91    11    10   ar
    92     6     5    1
    93     6     8   ar
    94    10     8   ar
