@<TRIPOS>MOLECULE
tmp/4jwtA00.pdb
 90 86 0 0 0
SMALL
GASTEIGER

@<TRIPOS>ATOM
      1  N          5.5980   39.0770   36.6830 N.3    85  VAL85      -0.1231
      2  CA         4.2730   39.5270   37.1100 C.3    85  VAL85       0.1692
      3  C          3.3510   39.6190   35.9160 C.2    85  VAL85       0.2592
      4  O          3.8110   39.6840   34.7640 O.2    85  VAL85      -0.2718
      5  CB         4.2900   40.8790   37.8480 C.3    85  VAL85       0.0266
      6  CG1        5.0900   40.7630   39.1310 C.3    85  VAL85       0.0020
      7  CG2        4.8170   42.0030   36.9590 C.3    85  VAL85       0.0020
      8  N          2.0580   39.6230   36.2080 N.am   86  ALA86      -0.1966
      9  CA         1.0100   39.6180   35.2010 C.3    86  ALA86       0.1728
     10  C         -0.2250   40.3290   35.6830 C.2    86  ALA86       0.2616
     11  O         -0.4090   40.5730   36.9020 O.2    86  ALA86      -0.2715
     12  CB         0.6560   38.1960   34.7950 C.3    86  ALA86       0.0334
     13  N         -1.0770   40.6630   34.7180 N.am   87  GLY87      -0.1955
     14  CA        -2.3770   41.2560   34.9730 C.3    87  GLY87       0.1869
     15  C         -3.4390   40.1600   34.9720 C.2    87  GLY87       0.2309
     16  O         -3.4840   39.3120   34.0590 O.2    87  GLY87      -0.2863
     17  N          1.3320   45.3380   24.7620 N.3   157  GLN157     -0.1231
     18  CA         0.6470   46.4520   25.4120 C.3   157  GLN157      0.1698
     19  C          0.4300   46.1660   26.8970 C.2   157  GLN157      0.2592
     20  O          0.0320   45.0630   27.2930 O.2   157  GLN157     -0.2718
     21  CB        -0.6980   46.7640   24.7530 C.3   157  GLN157      0.0381
     22  CG        -0.6600   46.8850   23.2230 C.3   157  GLN157      0.0905
     23  CD        -0.6120   45.5310   22.5150 C.2   157  GLN157      0.2608
     24  OE1       -1.2970   44.5680   22.9070 O.2   157  GLN157     -0.2717
     25  NE2        0.2040   45.4470   21.4600 N.am  157  GLN157     -0.0878
     26  N          0.7290   47.1620   27.7200 N.am  158  PHE158     -0.1962
     27  CA         0.2850   47.1490   29.1060 C.3   158  PHE158      0.1771
     28  C         -1.2070   47.4900   29.1180 C.2   158  PHE158      0.2619
     29  O         -1.6000   48.6120   28.7590 O.2   158  PHE158     -0.2715
     30  CB         1.0680   48.1400   29.9730 C.3   158  PHE158      0.0574
     31  CG         0.7830   47.9880   31.4340 C.ar  158  PHE158     -0.0200
     32  CD1        1.5080   47.0940   32.2030 C.ar  158  PHE158     -0.0042
     33  CD2       -0.2420   48.7120   32.0330 C.ar  158  PHE158     -0.0042
     34  CE1        1.2320   46.9230   33.5510 C.ar  158  PHE158     -0.0003
     35  CE2       -0.5310   48.5490   33.3850 C.ar  158  PHE158     -0.0003
     36  CZ         0.1980   47.6470   34.1390 C.ar  158  PHE158     -0.0000
     37  N         -2.0300   46.5220   29.5090 N.am  159  VAL159     -0.1977
     38  CA        -3.4720   46.6570   29.3550 C.3   159  VAL159      0.1596
     39  C         -4.0540   47.2440   30.6450 C.2   159  VAL159      0.2287
     40  O         -3.8970   46.6800   31.7260 O.2   159  VAL159     -0.2864
     41  CB        -4.1450   45.3270   29.0050 C.3   159  VAL159      0.0276
     42  CG1       -5.6640   45.4760   29.0120 C.3   159  VAL159      0.0022
     43  CG2       -3.6600   44.8460   27.6500 C.3   159  VAL159      0.0022
     44  N         -2.9590   38.0950   31.4990 N.3   177  LEU177     -0.1231
     45  CA        -2.2640   38.7240   30.3830 C.3   177  LEU177      0.1693
     46  C         -0.9150   39.3140   30.8160 C.2   177  LEU177      0.2591
     47  O         -0.7050   39.6610   31.9890 O.2   177  LEU177     -0.2718
     48  CB        -3.1530   39.7840   29.7130 C.3   177  LEU177      0.0284
     49  CG        -3.7900   40.9360   30.5180 C.3   177  LEU177      0.0019
     50  CD1       -2.7800   42.0210   30.8640 C.3   177  LEU177      0.0001
     51  CD2       -4.9350   41.5610   29.7230 C.3   177  LEU177      0.0001
     52  N          0.0060   39.4010   29.8650 N.am  178  GLU178     -0.1979
     53  CA         1.3450   39.9140   30.1210 C.3   178  GLU178      0.1602
     54  C          2.0470   40.2110   28.8070 C.2   178  GLU178      0.2287
     55  O          1.4280   40.1460   27.7590 O.2   178  GLU178     -0.2864
     56  CB         2.1320   38.9760   31.0460 C.3   178  GLU178      0.0415
     57  CG         1.8720   37.4780   30.8960 C.3   178  GLU178      0.1163
     58  CD         2.8420   36.8270   29.9340 C.2   178  GLU178      0.3649
     59  OE1        3.4470   35.7840   30.2780 O.co2 178  GLU178     -0.2457
     60  OE2        3.0360   37.3990   28.8520 O.co2 178  GLU178     -0.2457
     61  N         -0.0310   41.1880   39.6230 N.3   201  SER201     -0.1202
     62  CA         0.3290   42.4870   40.1600 C.3   201  SER201      0.2020
     63  C         -0.8170   43.4800   40.1120 C.2   201  SER201      0.2618
     64  O         -0.7460   44.5080   40.7760 O.2   201  SER201     -0.2717
     65  CB         1.5240   43.0650   39.3950 C.3   201  SER201      0.2103
     66  OG         1.2520   43.1500   38.0070 O.3   201  SER201     -0.2182
     67  N         -1.8570   43.1820   39.3290 N.am  202  ASP202     -0.1973
     68  CA        -2.9390   44.1230   39.0590 C.3   202  ASP202      0.1709
     69  C         -4.0570   43.4060   38.3120 C.2   202  ASP202      0.2293
     70  O         -3.9210   42.2210   37.9780 O.2   202  ASP202     -0.2864
     71  CB        -2.4500   45.3000   38.2280 C.3   202  ASP202      0.1436
     72  CG        -1.8540   44.8690   36.8790 C.2   202  ASP202      0.3671
     73  OD1       -2.6140   44.6970   35.9030 O.co2 202  ASP202     -0.2456
     74  OD2       -0.6250   44.6920   36.8240 O.co2 202  ASP202     -0.2456
     75  N         -5.4740   44.7270   35.2990 N.3   204  ALA204     -0.1245
     76  CA        -5.5390   45.1530   33.8910 C.3   204  ALA204      0.1562
     77  C         -6.6950   46.0980   33.6000 C.2   204  ALA204      0.2260
     78  O         -7.3140   46.0180   32.5180 O.2   204  ALA204     -0.2867
     79  CB        -5.6380   43.9360   32.9840 C.3   204  ALA204      0.0290
     80  N          0.2880   47.9360   39.8580 N.3   211  PHE211     -0.1241
     81  CA         1.5370   47.3550   39.3700 C.3   211  PHE211      0.1605
     82  C          2.7150   47.9170   40.1810 C.2   211  PHE211      0.2264
     83  O          3.5400   47.1580   40.6690 O.2   211  PHE211     -0.2867
     84  CB         1.6840   47.6310   37.8660 C.3   211  PHE211      0.0534
     85  CG         3.0130   47.2170   37.2790 C.ar  211  PHE211     -0.0203
     86  CD1        4.0970   48.0750   37.3230 C.ar  211  PHE211     -0.0042
     87  CD2        3.1510   45.9980   36.6260 C.ar  211  PHE211     -0.0042
     88  CE1        5.3180   47.7180   36.7600 C.ar  211  PHE211     -0.0003
     89  CE2        4.3690   45.6250   36.0520 C.ar  211  PHE211     -0.0003
     90  CZ         5.4560   46.4810   36.1270 C.ar  211  PHE211     -0.0000
@<TRIPOS>BOND
     1    25    23   am
     2    23    24    2
     3    23    22    1
     4    22    21    1
     5    21    18    1
     6    17    18    1
     7    18    19    1
     8    19    20    2
     9    19    26   am
    10    43    41    1
    11    26    27    1
    12    55    54    2
    13    29    28    2
    14    54    53    1
    15    60    58   ar
    16    41    42    1
    17    41    38    1
    18    27    28    1
    19    27    30    1
    20    28    37   am
    21    38    37    1
    22    38    39    1
    23    48    45    1
    24    48    49    1
    25    51    49    1
    26    52    53    1
    27    52    46   am
    28    58    59   ar
    29    58    57    1
    30    30    31    1
    31    53    56    1
    32    45    46    1
    33    45    44    1
    34    49    50    1
    35    39    40    2
    36    46    47    2
    37    57    56    1
    38    31    33   ar
    39    31    32   ar
    40    33    35   ar
    41    32    34   ar
    42    78    77    2
    43    79    76    1
    44    35    36   ar
    45    34    36   ar
    46    77    76    1
    47    76    75    1
    48    16    15    2
    49    13    14    1
    50    13    10   am
    51     4     3    2
    52    12     9    1
    53    15    14    1
    54     9    10    1
    55     9     8    1
    56    10    11    2
    57    73    72   ar
    58     3     8   am
    59     3     2    1
    60    89    90   ar
    61    89    87   ar
    62    90    88   ar
    63    87    85   ar
    64     1     2    1
    65    88    86   ar
    66    74    72   ar
    67    72    71    1
    68     7     5    1
    69     2     5    1
    70    85    86   ar
    71    85    84    1
    72     5     6    1
    73    84    81    1
    74    70    69    2
    75    66    65    1
    76    71    68    1
    77    69    68    1
    78    68    67    1
    79    67    63   am
    80    81    80    1
    81    81    82    1
    82    65    62    1
    83    61    62    1
    84    63    62    1
    85    63    64    2
    86    82    83    2
