@<TRIPOS>MOLECULE
tmp/4jwxA00.pdb
 130 126 0 0 0
SMALL
GASTEIGER

@<TRIPOS>ATOM
      1  N         11.4660   15.8750   36.9820 N.3    10  GLU10      -0.1245
      2  CA        12.9290   15.9800   36.9390 C.3    10  GLU10       0.1567
      3  C         13.5190   15.0570   37.9900 C.2    10  GLU10       0.2260
      4  O         13.5110   15.3530   39.1910 O.2    10  GLU10      -0.2867
      5  CB        13.4360   17.4100   37.1440 C.3    10  GLU10       0.0388
      6  CG        14.9700   17.4520   37.0800 C.3    10  GLU10       0.1160
      7  CD        15.5400   18.8110   36.7590 C.2    10  GLU10       0.3649
      8  OE1       15.0420   19.8270   37.2840 O.co2  10  GLU10      -0.2457
      9  OE2       16.5120   18.8550   35.9720 O.co2  10  GLU10      -0.2457
     10  N          8.0270   24.8790   31.6950 N.3    81  LYS81      -0.1231
     11  CA         8.5560   23.9250   32.6530 C.3    81  LYS81       0.1693
     12  C          8.5810   24.5170   34.0520 C.2    81  LYS81       0.2592
     13  O          7.5410   24.6070   34.6870 O.2    81  LYS81      -0.2718
     14  CB         9.9190   23.4030   32.1860 C.3    81  LYS81       0.0285
     15  CG         9.7930   22.5870   30.9050 C.3    81  LYS81       0.0035
     16  CD        11.0940   21.9270   30.5020 C.3    81  LYS81       0.0206
     17  CE        10.8230   20.8590   29.4460 C.3    81  LYS81       0.1093
     18  NZ        12.0220   20.0380   29.1680 N.3    81  LYS81      -0.1314
     19  N          9.7470   24.9330   34.5330 N.am   82  HIS82      -0.1976
     20  CA         9.8110   25.5110   35.8840 C.3    82  HIS82       0.1656
     21  C          9.1320   26.8690   35.9980 C.2    82  HIS82       0.2291
     22  O          8.2980   27.0980   36.8760 O.2    82  HIS82      -0.2864
     23  CB        11.2570   25.6180   36.3610 C.3    82  HIS82       0.0771
     24  CG        11.9040   24.3000   36.5890 C.ar   82  HIS82       0.0820
     25  ND1       12.5440   23.5910   35.5800 N.ar   82  HIS82      -0.2267
     26  CD2       12.0090   23.5400   37.6980 C.ar   82  HIS82       0.1154
     27  CE1       13.0110   22.4680   36.0750 C.ar   82  HIS82       0.1986
     28  NE2       12.7010   22.4040   37.3630 N.ar   82  HIS82      -0.2212
     29  N         11.6110   20.5610   41.5050 N.3   108  SER108     -0.1202
     30  CA        12.9750   21.0980   41.5240 C.3   108  SER108      0.2020
     31  C         12.9670   22.5890   41.1680 C.2   108  SER108      0.2619
     32  O         13.6020   23.0360   40.1920 O.2   108  SER108     -0.2717
     33  CB        13.8640   20.3050   40.5590 C.3   108  SER108      0.2103
     34  OG        13.2330   20.1710   39.2830 O.3   108  SER108     -0.2182
     35  N         12.2530   23.3610   41.9790 N.am  109  LEU109     -0.1965
     36  CA        11.9300   24.7420   41.6370 C.3   109  LEU109      0.1728
     37  C         12.8200   25.7120   42.4070 C.2   109  LEU109      0.2616
     38  O         12.7230   25.8490   43.6330 O.2   109  LEU109     -0.2715
     39  CB        10.4510   25.0070   41.9420 C.3   109  LEU109      0.0311
     40  CG         9.8930   26.3690   41.5750 C.3   109  LEU109      0.0022
     41  CD1       10.0550   26.6250   40.0840 C.3   109  LEU109      0.0001
     42  CD2        8.4150   26.4050   41.9680 C.3   109  LEU109      0.0001
     43  N         13.6740   26.4150   41.6770 N.am  110  THR110     -0.1951
     44  CA        14.6510   27.2830   42.3100 C.3   110  THR110      0.1897
     45  C         14.0540   28.6220   42.7540 C.2   110  THR110      0.2313
     46  O         13.3680   29.2970   41.9760 O.2   110  THR110     -0.2863
     47  CB        15.8130   27.5260   41.3470 C.3   110  THR110      0.1794
     48  OG1       16.4550   26.2690   41.0930 O.3   110  THR110     -0.2208
     49  CG2       16.8100   28.5020   41.9420 C.3   110  THR110      0.0378
     50  N         11.1620   35.4760   40.5530 N.3   115  ARG115     -0.1245
     51  CA         9.9920   34.6760   40.8890 C.3   115  ARG115      0.1563
     52  C          9.3380   35.1290   42.1810 C.2   115  ARG115      0.2260
     53  O          8.1170   35.1130   42.2950 O.2   115  ARG115     -0.2867
     54  CB        10.3640   33.1840   40.9580 C.3   115  ARG115      0.0307
     55  CG        10.7520   32.6270   39.6120 C.3   115  ARG115      0.0489
     56  CD        11.4770   31.3020   39.7200 C.3   115  ARG115      0.2205
     57  NE        11.7540   30.7550   38.3890 N.pl3 115  ARG115     -0.0865
     58  CZ        12.3910   29.6120   38.1650 C.cat 115  ARG115      0.5346
     59  NH1       12.8120   28.8690   39.1850 N.pl3 115  ARG115      0.1354
     60  NH2       12.5900   29.2030   36.9320 N.pl3 115  ARG115      0.1354
     61  N         24.0910   25.2830   28.4190 N.3   162  THR162     -0.1203
     62  CA        23.0870   24.9330   29.4200 C.3   162  THR162      0.1994
     63  C         21.8020   24.5000   28.7130 C.2   162  THR162      0.2618
     64  O         21.7690   24.3830   27.4800 O.2   162  THR162     -0.2717
     65  CB        22.8260   26.1420   30.3470 C.3   162  THR162      0.1784
     66  OG1       22.0380   25.7430   31.4820 O.3   162  THR162     -0.2211
     67  CG2       22.1210   27.2680   29.5850 C.3   162  THR162      0.0376
     68  N         20.7510   24.2580   29.4920 N.am  163  VAL163     -0.1966
     69  CA        19.4320   23.9400   28.9440 C.3   163  VAL163      0.1712
     70  C         18.6010   25.2110   28.9540 C.2   163  VAL163      0.2458
     71  O         18.4740   25.8660   29.9920 O.2   163  VAL163     -0.2730
     72  CB        18.7250   22.8690   29.7880 C.3   163  VAL163      0.0289
     73  CG1       17.3200   22.5950   29.2400 C.3   163  VAL163      0.0023
     74  CG2       19.5340   21.5960   29.8180 C.3   163  VAL163      0.0023
     75  N         18.0310   25.5730   27.7960 N.am  164  PRO164     -0.2727
     76  CA        17.2810   26.8320   27.7050 C.3   164  PRO164      0.1402
     77  C         16.1240   26.9300   28.7070 C.2   164  PRO164      0.2269
     78  O         15.4950   25.9150   29.0530 O.2   164  PRO164     -0.2865
     79  CB        16.7270   26.7980   26.2780 C.3   164  PRO164      0.0296
     80  CG        17.6870   25.9660   25.5190 C.3   164  PRO164      0.0237
     81  CD        18.1180   24.8870   26.4960 C.3   164  PRO164      0.0939
     82  N         15.7220   27.5740   31.8710 N.3   166  GLY166     -0.1210
     83  CA        15.8990   27.3920   33.3010 C.3   166  GLY166      0.1956
     84  C         16.4180   28.6570   33.9650 C.2   166  GLY166      0.2613
     85  O         16.8620   29.5920   33.2860 O.2   166  GLY166     -0.2717
     86  N         16.3860   28.6940   35.2930 N.am  167  SER167     -0.1938
     87  CA        16.8290   29.8870   36.0020 C.3   167  SER167      0.2055
     88  C         18.3130   30.1290   35.7990 C.2   167  SER167      0.2643
     89  O         18.7730   31.2740   35.8580 O.2   167  SER167     -0.2714
     90  CB        16.4770   29.8250   37.4830 C.3   167  SER167      0.2130
     91  OG        17.4640   29.1370   38.2170 O.3   167  SER167     -0.2179
     92  N         19.0610   29.0570   35.5460 N.am  168  THR168     -0.1950
     93  CA        20.4950   29.1760   35.2660 C.3   168  THR168      0.1897
     94  C         20.7500   30.0450   34.0290 C.2   168  THR168      0.2313
     95  O         21.5610   30.9850   34.0840 O.2   168  THR168     -0.2863
     96  CB        21.1310   27.7760   35.1080 C.3   168  THR168      0.1794
     97  OG1       21.0850   27.1010   36.3750 O.3   168  THR168     -0.2208
     98  CG2       22.5870   27.8740   34.6550 C.3   168  THR168      0.0378
     99  N         24.5310   24.1060   34.8260 N.3   208  TYR208     -0.1227
    100  CA        23.1660   23.7500   35.1920 C.3   208  TYR208      0.1736
    101  C         22.9380   23.8720   36.6890 C.2   208  TYR208      0.2595
    102  O         23.8500   24.1540   37.4560 O.2   208  TYR208     -0.2718
    103  CB        22.9230   22.3050   34.7620 C.3   208  TYR208      0.0548
    104  CG        21.4810   21.8550   34.6530 C.ar  208  TYR208     -0.0200
    105  CD1       20.6860   22.2500   33.5900 C.ar  208  TYR208     -0.0009
    106  CD2       20.9330   20.9820   35.5850 C.ar  208  TYR208     -0.0009
    107  CE1       19.3750   21.8020   33.4540 C.ar  208  TYR208      0.0417
    108  CE2       19.6270   20.5430   35.4660 C.ar  208  TYR208      0.0417
    109  CZ        18.8520   20.9480   34.3930 C.ar  208  TYR208      0.1957
    110  OH        17.5430   20.4980   34.2670 O.3   208  TYR208     -0.2866
    111  N         21.6860   23.6760   37.0890 N.am  209  ASP209     -0.1974
    112  CA        21.2930   23.5970   38.4840 C.3   209  ASP209      0.1709
    113  C         22.1700   22.6300   39.2810 C.2   209  ASP209      0.2293
    114  O         22.3680   21.4660   38.9030 O.2   209  ASP209     -0.2864
    115  CB        19.8430   23.1370   38.5250 C.3   209  ASP209      0.1436
    116  CG        19.3640   22.8610   39.9190 C.2   209  ASP209      0.3671
    117  OD1       19.0800   23.8310   40.6510 O.co2 209  ASP209     -0.2456
    118  OD2       19.2500   21.6690   40.2800 O.co2 209  ASP209     -0.2456
    119  N         15.8490   24.9920   46.4830 N.3   239  TYR239     -0.1241
    120  CA        14.4980   24.7010   46.0210 C.3   239  TYR239      0.1605
    121  C         13.4990   25.1190   47.0750 C.2   239  TYR239      0.2264
    122  O         13.7170   24.9200   48.2810 O.2   239  TYR239     -0.2867
    123  CB        14.2810   23.2150   45.7660 C.3   239  TYR239      0.0534
    124  CG        15.0810   22.6100   44.6440 C.ar  239  TYR239     -0.0201
    125  CD1       15.7320   23.3910   43.6940 C.ar  239  TYR239     -0.0009
    126  CD2       15.1640   21.2390   44.5280 C.ar  239  TYR239     -0.0009
    127  CE1       16.4660   22.7930   42.6560 C.ar  239  TYR239      0.0417
    128  CE2       15.8790   20.6390   43.5070 C.ar  239  TYR239      0.0417
    129  CZ        16.5260   21.4110   42.5790 C.ar  239  TYR239      0.1957
    130  OH        17.2240   20.7760   41.5720 O.3   239  TYR239     -0.2866
@<TRIPOS>BOND
     1    80    79    1
     2    80    81    1
     3    79    76    1
     4    81    75    1
     5    64    63    2
     6    76    75    1
     7    76    77    1
     8    75    70   am
     9    61    62    1
    10    77    78    2
    11    63    62    1
    12    63    68   am
    13    69    70    1
    14    69    68    1
    15    69    72    1
    16    70    71    2
    17    18    17    1
    18    73    72    1
    19    62    65    1
    20    17    16    1
    21    67    65    1
    22    72    74    1
    23    65    66    1
    24    16    15    1
    25    15    14    1
    26    10    11    1
    27    82    83    1
    28    14    11    1
    29    11    12    1
    30    85    84    2
    31    83    84    1
    32   107   105   ar
    33   107   109   ar
    34   105   104   ar
    35    84    86   am
    36    94    95    2
    37    94    93    1
    38    12    19   am
    39    12    13    2
    40   110   109    1
    41   109   108   ar
    42    19    20    1
    43   104   103    1
    44   104   106   ar
    45    98    96    1
    46   103   100    1
    47    99   100    1
    48    96    93    1
    49    96    97    1
    50   100   101    1
    51    93    92    1
    52    86    87    1
    53   108   106   ar
    54    92    88   am
    55    25    27   ar
    56    25    24   ar
    57    88    89    2
    58    88    87    1
    59    20    21    1
    60    20    23    1
    61     9     7   ar
    62    21    22    2
    63    87    90    1
    64    27    28   ar
    65    23    24    1
    66    24    26   ar
    67   101   111   am
    68   101   102    2
    69     7     6    1
    70     7     8   ar
    71    60    58    1
    72     2     1    1
    73     2     5    1
    74     2     3    1
    75     6     5    1
    76   111   112    1
    77    28    26   ar
    78    90    91    1
    79     3     4    2
    80    58    57    2
    81    58    59    1
    82    57    56    1
    83   112   115    1
    84   112   113    1
    85   115   116    1
    86   114   113    2
    87    34    33    1
    88    55    56    1
    89    55    54    1
    90   116   118   ar
    91   116   117   ar
    92    41    40    1
    93    32    31    2
    94    50    51    1
    95    33    30    1
    96    51    54    1
    97    51    52    1
    98    48    47    1
    99    31    30    1
   100    31    35   am
   101    47    49    1
   102    47    44    1
   103    29    30    1
   104   130   129    1
   105    40    39    1
   106    40    42    1
   107    36    39    1
   108    36    35    1
   109    36    37    1
   110    43    44    1
   111    43    37   am
   112    46    45    2
   113    52    53    2
   114    44    45    1
   115    37    38    2
   116   129   127   ar
   117   129   128   ar
   118   127   125   ar
   119   128   126   ar
   120   125   124   ar
   121   126   124   ar
   122   124   123    1
   123   123   120    1
   124   120   119    1
   125   120   121    1
   126   121   122    2
