@<TRIPOS>MOLECULE
tmp/4jwyA00.pdb
 127 122 0 0 0
SMALL
GASTEIGER

@<TRIPOS>ATOM
      1  N          4.7790   45.6950    4.8790 N.3    10  GLU10      -0.1245
      2  CA         5.7660   45.9340    5.9230 C.3    10  GLU10       0.1567
      3  C          6.8490   46.7930    5.3180 C.2    10  GLU10       0.2260
      4  O          7.6870   46.3140    4.5610 O.2    10  GLU10      -0.2867
      5  CB         6.3660   44.6320    6.4630 C.3    10  GLU10       0.0388
      6  CG         7.5220   44.8920    7.4270 C.3    10  GLU10       0.1160
      7  CD         7.5220   43.9710    8.6320 C.2    10  GLU10       0.3649
      8  OE1        7.5820   42.7360    8.4440 O.co2  10  GLU10      -0.2457
      9  OE2        7.4770   44.4780    9.7690 O.co2  10  GLU10      -0.2457
     10  N         -1.1360   37.4820    9.2040 N.3    71  LYS71      -0.1231
     11  CA        -0.0120   38.2530    8.6620 C.3    71  LYS71       0.1693
     12  C          0.9620   37.3470    7.9490 C.2    71  LYS71       0.2592
     13  O          0.6930   36.9010    6.8470 O.2    71  LYS71      -0.2718
     14  CB         0.7510   38.9720    9.7860 C.3    71  LYS71       0.0285
     15  CG        -0.0860   39.9120   10.6030 C.3    71  LYS71       0.0035
     16  CD        -0.4320   41.1350    9.8010 C.3    71  LYS71       0.0206
     17  CE        -1.4050   42.0200   10.5600 C.3    71  LYS71       0.1093
     18  NZ        -1.9550   43.1010    9.6810 N.3    71  LYS71      -0.1314
     19  N          2.1100   37.0930    8.5740 N.am   72  HIS72      -0.1976
     20  CA         3.1590   36.3160    7.9280 C.3    72  HIS72       0.1656
     21  C          2.8390   34.8280    7.9260 C.2    72  HIS72       0.2291
     22  O          2.9710   34.1460    6.9030 O.2    72  HIS72      -0.2864
     23  CB         4.5120   36.6020    8.5900 C.3    72  HIS72       0.0771
     24  CG         5.0390   37.9690    8.2910 C.ar   72  HIS72       0.0820
     25  ND1        4.6320   39.0940    8.9820 N.ar   72  HIS72      -0.2267
     26  CD2        5.9130   38.4030    7.3500 C.ar   72  HIS72       0.1154
     27  CE1        5.2490   40.1550    8.4920 C.ar   72  HIS72       0.1986
     28  NE2        6.0390   39.7610    7.5050 N.ar   72  HIS72      -0.2212
     29  N          8.3830   40.2980    3.7710 N.3    98  SER98      -0.1217
     30  CA         9.3620   40.1500    4.8390 C.3    98  SER98       0.1889
     31  C          9.0820   38.8350    5.5520 C.2    98  SER98       0.2288
     32  O          8.7900   38.8020    6.7440 O.2    98  SER98      -0.2866
     33  CB         9.2280   41.3270    5.7920 C.3    98  SER98       0.2089
     34  OG         7.8630   41.5540    6.0880 O.3    98  SER98      -0.2183
     35  N         10.0720   35.4380    7.0000 N.3   100  THR100     -0.1218
     36  CA        11.2470   34.7810    7.5530 C.3   100  THR100      0.1862
     37  C         11.2060   33.2460    7.4380 C.2   100  THR100      0.2287
     38  O         10.2000   32.5950    7.7660 O.2   100  THR100     -0.2866
     39  CB        11.4300   35.1780    9.0290 C.3   100  THR100      0.1770
     40  OG1       11.5320   36.6090    9.1210 O.3   100  THR100     -0.2211
     41  CG2       12.6880   34.5470    9.5770 C.3   100  THR100      0.0375
     42  N          7.9490   26.4240    9.3090 N.3   105  ARG105     -0.1245
     43  CA         7.3870   26.7830    8.0030 C.3   105  ARG105      0.1563
     44  C          7.9460   25.9000    6.8930 C.2   105  ARG105      0.2260
     45  O          7.1870   25.3790    6.0720 O.2   105  ARG105     -0.2867
     46  CB         7.6250   28.2800    7.7160 C.3   105  ARG105      0.0307
     47  CG         6.8700   29.2000    8.7070 C.3   105  ARG105      0.0489
     48  CD         7.3350   30.6610    8.6240 C.3   105  ARG105      0.2205
     49  NE         6.5200   31.5190    9.4850 N.pl3 105  ARG105     -0.0865
     50  CZ         6.7270   32.8220    9.6460 C.cat 105  ARG105      0.5346
     51  NH1        7.7270   33.4130    9.0090 N.pl3 105  ARG105      0.1354
     52  NH2        5.9250   33.5290   10.4280 N.pl3 105  ARG105      0.1354
     53  N         17.1440   38.2100   11.2250 N.3   119  GLY119     -0.1225
     54  CA        17.3180   37.5500   12.4980 C.3   119  GLY119      0.1811
     55  C         16.4790   38.3140   13.4940 C.2   119  GLY119      0.2280
     56  O         15.4380   38.8780   13.1420 O.2   119  GLY119     -0.2866
     57  N          6.0670   42.2030   18.3620 N.3   153  VAL153     -0.1231
     58  CA         4.7860   42.0340   17.6920 C.3   153  VAL153      0.1678
     59  C          4.5640   40.5370   17.6460 C.2   153  VAL153      0.2434
     60  O          5.4030   39.8040   17.1310 O.2   153  VAL153     -0.2733
     61  CB         4.8190   42.6040   16.2530 C.3   153  VAL153      0.0265
     62  CG1        3.5360   42.2560   15.5460 C.3   153  VAL153      0.0020
     63  CG2        4.9970   44.1520   16.2920 C.3   153  VAL153      0.0020
     64  N          3.4390   40.0680   18.1890 N.am  154  PRO154     -0.2718
     65  CA         3.2470   38.6190   18.3250 C.3   154  PRO154      0.1535
     66  C          2.8770   37.9540   17.0000 C.2   154  PRO154      0.2599
     67  O          2.5750   38.6520   16.0220 O.2   154  PRO154     -0.2715
     68  CB         2.0670   38.5250   19.2850 C.3   154  PRO154      0.0310
     69  CG         1.2590   39.7810   18.9820 C.3   154  PRO154      0.0237
     70  CD         2.2590   40.8390   18.6180 C.3   154  PRO154      0.0939
     71  N          2.9230   36.6230   16.9970 N.am  155  ASN155     -0.1959
     72  CA         2.4520   35.7690   15.8970 C.3   155  ASN155      0.1819
     73  C          3.4340   35.5530   14.7480 C.2   155  ASN155      0.2622
     74  O          3.1170   34.8460   13.7960 O.2   155  ASN155     -0.2715
     75  CB         1.0700   36.2030   15.3720 C.3   155  ASN155      0.1195
     76  CG         0.0220   36.2450   16.4700 C.2   155  ASN155      0.2630
     77  OD1        0.0830   35.4800   17.4270 O.2   155  ASN155     -0.2716
     78  ND2       -0.9420   37.1460   16.3360 N.am  155  ASN155     -0.0877
     79  N          4.6260   36.1320   14.8500 N.am  156  GLY156     -0.1940
     80  CA         5.6450   35.9840   13.8300 C.3   156  GLY156      0.2014
     81  C          6.7860   35.1050   14.2970 C.2   156  GLY156      0.2640
     82  O          6.7320   34.5100   15.3810 O.2   156  GLY156     -0.2714
     83  N          7.8340   35.0220   13.4900 N.am  157  SER157     -0.1935
     84  CA         8.9310   34.1200   13.8160 C.3   157  SER157      0.2055
     85  C          9.6760   34.5700   15.0680 C.2   157  SER157      0.2643
     86  O         10.2500   33.7430   15.7730 O.2   157  SER157     -0.2714
     87  CB         9.8970   33.9540   12.6430 C.3   157  SER157      0.2130
     88  OG        10.4960   35.1880   12.2970 O.3   157  SER157     -0.2179
     89  N          9.6690   35.8690   15.3440 N.am  158  THR158     -0.1950
     90  CA        10.3460   36.3650   16.5490 C.3   158  THR158      0.1897
     91  C          9.7180   35.7950   17.8090 C.2   158  THR158      0.2313
     92  O         10.4230   35.2010   18.6370 O.2   158  THR158     -0.2863
     93  CB        10.3620   37.9000   16.6240 C.3   158  THR158      0.1794
     94  OG1       11.2220   38.3980   15.5990 O.3   158  THR158     -0.2208
     95  CG2       10.9060   38.3660   17.9880 C.3   158  THR158      0.0378
     96  N         12.4450   42.5400   17.6970 N.3   198  TYR198     -0.1227
     97  CA        11.7760   42.4070   16.4030 C.3   198  TYR198      0.1736
     98  C         12.7190   41.9020   15.3300 C.2   198  TYR198      0.2595
     99  O         13.9350   41.7970   15.5420 O.2   198  TYR198     -0.2718
    100  CB        11.1570   43.7500   15.9880 C.3   198  TYR198      0.0548
    101  CG        10.0840   43.6560   14.9100 C.ar  198  TYR198     -0.0200
    102  CD1        8.8500   43.0760   15.1780 C.ar  198  TYR198     -0.0009
    103  CD2       10.3020   44.1670   13.6370 C.ar  198  TYR198     -0.0009
    104  CE1        7.8620   42.9880   14.1970 C.ar  198  TYR198      0.0417
    105  CE2        9.3200   44.0760   12.6450 C.ar  198  TYR198      0.0417
    106  CZ         8.1050   43.4930   12.9420 C.ar  198  TYR198      0.1957
    107  OH         7.1280   43.4180   11.9670 O.3   198  TYR198     -0.2866
    108  N         12.1330   41.5580   14.1870 N.am  199  ASP199     -0.1974
    109  CA        12.8750   41.1970   12.9900 C.3   199  ASP199      0.1709
    110  C         14.0230   42.1680   12.7380 C.2   199  ASP199      0.2293
    111  O         13.8140   43.3780   12.6810 O.2   199  ASP199     -0.2864
    112  CB        11.9270   41.2290   11.7850 C.3   199  ASP199      0.1436
    113  CG        12.6590   41.0410   10.4680 C.2   199  ASP199      0.3671
    114  OD1       13.0620   39.8890   10.1850 O.co2 199  ASP199     -0.2456
    115  OD2       12.8340   42.0350    9.7190 O.co2 199  ASP199     -0.2456
    116  N         14.9780   36.1800    4.7620 N.3   229  TYR229     -0.1241
    117  CA        13.6710   36.1770    4.1110 C.3   229  TYR229      0.1605
    118  C         13.7500   35.2740    2.8850 C.2   229  TYR229      0.2264
    119  O         14.7230   35.3370    2.1270 O.2   229  TYR229     -0.2867
    120  CB        13.2990   37.5680    3.5830 C.3   229  TYR229      0.0534
    121  CG        13.0410   38.6620    4.6170 C.ar  229  TYR229     -0.0201
    122  CD1       12.7880   38.3760    5.9590 C.ar  229  TYR229     -0.0009
    123  CD2       13.0330   39.9910    4.2160 C.ar  229  TYR229     -0.0009
    124  CE1       12.5430   39.4260    6.8880 C.ar  229  TYR229      0.0417
    125  CE2       12.8070   41.0150    5.1080 C.ar  229  TYR229      0.0417
    126  CZ        12.5580   40.7360    6.4290 C.ar  229  TYR229      0.1957
    127  OH        12.3260   41.8080    7.2750 O.3   229  TYR229     -0.2866
@<TRIPOS>BOND
     1   119   118    2
     2   118   117    1
     3   120   117    1
     4   120   121    1
     5    29    30    1
     6   117   116    1
     7   123   121   ar
     8   123   125   ar
     9     4     3    2
    10   121   122   ar
    11    30    31    1
    12    30    33    1
    13     1     2    1
    14   125   126   ar
    15     3     2    1
    16    31    32    2
    17    33    34    1
    18     2     5    1
    19   122   124   ar
    20    45    44    2
    21   126   124   ar
    22   126   127    1
    23     5     6    1
    24    13    12    2
    25    44    43    1
    26    22    21    2
    27    35    36    1
    28    26    28   ar
    29    26    24   ar
    30     6     7    1
    31    37    36    1
    32    37    38    2
    33    28    27   ar
    34    36    39    1
    35    46    43    1
    36    46    47    1
    37    21    20    1
    38    20    19    1
    39    20    23    1
    40    12    19   am
    41    12    11    1
    42    43    42    1
    43    24    23    1
    44    24    25   ar
    45     8     7   ar
    46    27    25   ar
    47    48    47    1
    48    48    49    1
    49     7     9   ar
    50    11    10    1
    51    11    14    1
    52    51    50    1
    53    39    40    1
    54    39    41    1
    55    49    50    2
    56    50    52    1
    57    18    17    1
    58   115   113   ar
    59    14    15    1
    60    16    17    1
    61    16    15    1
    62   114   113   ar
    63   113   112    1
    64    53    54    1
    65   112   109    1
    66   107   106    1
    67    88    87    1
    68    54    55    1
    69    87    84    1
    70   105   106   ar
    71   105   103   ar
    72   111   110    2
    73   110   109    1
    74   106   104   ar
    75   109   108    1
    76    56    55    2
    77    83    84    1
    78    83    81   am
    79   103   101   ar
    80    74    73    2
    81    84    85    1
    82    80    81    1
    83    80    79    1
    84   108    98   am
    85   104   102   ar
    86    81    82    2
    87    73    79   am
    88    73    72    1
    89   101   102   ar
    90   101   100    1
    91    85    89   am
    92    85    86    2
    93    98    99    2
    94    98    97    1
    95    89    90    1
    96    75    72    1
    97    75    76    1
    98    62    61    1
    99    94    93    1
   100    72    71    1
   101   100    97    1
   102    67    66    2
   103    61    63    1
   104    61    58    1
   105    78    76   am
   106    97    96    1
   107    76    77    2
   108    90    93    1
   109    90    91    1
   110    93    95    1
   111    71    66   am
   112    66    65    1
   113    60    59    2
   114    59    58    1
   115    59    64   am
   116    58    57    1
   117    91    92    2
   118    64    65    1
   119    64    70    1
   120    65    68    1
   121    70    69    1
   122    69    68    1
