@<TRIPOS>MOLECULE
tmp/4jx1E01.pdb
 99 95 0 0 0
SMALL
GASTEIGER

@<TRIPOS>ATOM
      1  N       -107.2500   11.6800   43.7970 N.3    20  TYR20      -0.1241
      2  CA      -106.8710   12.9300   44.4280 C.3    20  TYR20       0.1605
      3  C       -107.8740   14.0560   44.1720 C.2    20  TYR20       0.2264
      4  O       -107.8280   15.0820   44.8310 O.2    20  TYR20      -0.2867
      5  CB      -105.4760   13.3600   43.9890 C.3    20  TYR20       0.0534
      6  CG      -104.4220   12.4570   44.5420 C.ar   20  TYR20      -0.0201
      7  CD1     -104.0040   12.5760   45.8650 C.ar   20  TYR20      -0.0009
      8  CD2     -103.8370   11.4700   43.7470 C.ar   20  TYR20      -0.0009
      9  CE1     -103.0360   11.7330   46.3930 C.ar   20  TYR20       0.0417
     10  CE2     -102.8700   10.6170   44.2750 C.ar   20  TYR20       0.0417
     11  CZ      -102.4750   10.7650   45.5830 C.ar   20  TYR20       0.1957
     12  OH      -101.5300    9.9110   46.0810 O.3    20  TYR20      -0.2866
     13  N        -98.0070    2.9560   46.8160 N.3    78  PHE78      -0.1241
     14  CA       -98.6380    4.2740   46.6880 C.3    78  PHE78       0.1605
     15  C        -98.7800    4.7100   45.2430 C.2    78  PHE78       0.2264
     16  O        -97.8890    4.4760   44.4240 O.2    78  PHE78      -0.2867
     17  CB       -97.8400    5.3430   47.4680 C.3    78  PHE78       0.0534
     18  CG       -97.5880    4.9760   48.9070 C.ar   78  PHE78      -0.0203
     19  CD1      -98.6420    4.6610   49.7400 C.ar   78  PHE78      -0.0042
     20  CD2      -96.2970    4.9120   49.4160 C.ar   78  PHE78      -0.0042
     21  CE1      -98.4300    4.3110   51.0840 C.ar   78  PHE78      -0.0003
     22  CE2      -96.0680    4.5510   50.7540 C.ar   78  PHE78      -0.0003
     23  CZ       -97.1240    4.2490   51.5830 C.ar   78  PHE78      -0.0000
     24  N        -94.7900    8.9430   44.4950 N.3    83  ALA83      -0.1245
     25  CA       -95.0120    9.2590   45.9180 C.3    83  ALA83       0.1562
     26  C        -94.2870    8.2990   46.8510 C.2    83  ALA83       0.2260
     27  O        -94.1990    8.5430   48.0520 O.2    83  ALA83      -0.2867
     28  CB       -96.5010    9.2670   46.2420 C.3    83  ALA83       0.0290
     29  N        -89.8460    6.8700   50.0470 N.3    87  TYR87      -0.1241
     30  CA       -90.5170    6.3110   51.2100 C.3    87  TYR87       0.1605
     31  C        -89.8080    5.0260   51.6010 C.2    87  TYR87       0.2264
     32  O        -89.7890    4.0680   50.8230 O.2    87  TYR87      -0.2867
     33  CB       -91.9800    6.0160   50.8620 C.3    87  TYR87       0.0534
     34  CG       -92.8000    5.4310   51.9910 C.ar   87  TYR87      -0.0201
     35  CD1      -92.7170    4.0870   52.3030 C.ar   87  TYR87      -0.0009
     36  CD2      -93.6630    6.2180   52.7270 C.ar   87  TYR87      -0.0009
     37  CE1      -93.4700    3.5360   53.3240 C.ar   87  TYR87       0.0417
     38  CE2      -94.4390    5.6720   53.7630 C.ar   87  TYR87       0.0417
     39  CZ       -94.3250    4.3450   54.0580 C.ar   87  TYR87       0.1957
     40  OH       -95.0690    3.7960   55.0720 O.3    87  TYR87      -0.2866
     41  N        -90.0250    3.9330   55.1650 N.3    89  PHE89      -0.1241
     42  CA       -90.5580    3.4930   56.4520 C.3    89  PHE89       0.1605
     43  C        -90.7540    1.9480   56.5880 C.2    89  PHE89       0.2264
     44  O        -91.1010    1.2460   55.6390 O.2    89  PHE89      -0.2867
     45  CB       -91.9060    4.1900   56.7540 C.3    89  PHE89       0.0534
     46  CG       -91.7940    5.6690   57.0270 C.ar   89  PHE89      -0.0203
     47  CD1      -90.7850    6.1800   57.7980 C.ar   89  PHE89      -0.0042
     48  CD2      -92.7360    6.5490   56.5190 C.ar   89  PHE89      -0.0042
     49  CE1      -90.7020    7.5540   58.0490 C.ar   89  PHE89      -0.0003
     50  CE2      -92.6680    7.8950   56.7800 C.ar   89  PHE89      -0.0003
     51  CZ       -91.6430    8.4040   57.5520 C.ar   89  PHE89      -0.0000
     52  N        -94.5330   16.4330   55.3950 N.3   175  MET175     -0.1230
     53  CA       -94.7410   15.1770   54.6680 C.3   175  MET175      0.1702
     54  C        -96.1790   15.0080   54.2090 C.2   175  MET175      0.2593
     55  O        -96.4390   14.6400   53.0660 O.2   175  MET175     -0.2718
     56  CB       -94.3950   13.9860   55.5640 C.3   175  MET175      0.0401
     57  CG       -92.9870   13.9870   56.0610 C.3   175  MET175      0.0596
     58  SD       -92.6750   12.6450   57.2240 S.3   175  MET175     -0.1393
     59  CE       -91.3440   11.8650   56.3780 C.3   175  MET175      0.0692
     60  N        -97.1240   15.2690   55.1090 N.am  176  THR176     -0.1953
     61  CA       -98.5100   14.8980   54.8470 C.3   176  THR176      0.1897
     62  C        -99.3280   16.0350   54.2510 C.2   176  THR176      0.2313
     63  O       -100.2440   15.7910   53.4790 O.2   176  THR176     -0.2863
     64  CB       -99.1880   14.3200   56.1170 C.3   176  THR176      0.1794
     65  OG1     -100.5000   13.8470   55.7890 O.3   176  THR176     -0.2208
     66  CG2      -99.3210   15.3370   57.1330 C.3   176  THR176      0.0378
     67  N        -90.7910   15.7020   50.4590 N.3   184  PHE184     -0.1241
     68  CA       -91.0140   14.6220   51.3940 C.3   184  PHE184      0.1605
     69  C        -89.6600   14.0780   51.8240 C.2   184  PHE184      0.2264
     70  O        -89.3970   13.9550   53.0180 O.2   184  PHE184     -0.2867
     71  CB       -91.8640   13.5110   50.7740 C.3   184  PHE184      0.0534
     72  CG       -91.9480   12.2630   51.6090 C.ar  184  PHE184     -0.0203
     73  CD1      -92.8470   12.1670   52.6580 C.ar  184  PHE184     -0.0042
     74  CD2      -91.1330   11.1750   51.3340 C.ar  184  PHE184     -0.0042
     75  CE1      -92.9430   11.0150   53.3940 C.ar  184  PHE184     -0.0003
     76  CE2      -91.2210   10.0420   52.0720 C.ar  184  PHE184     -0.0003
     77  CZ       -92.1280    9.9530   53.1110 C.ar  184  PHE184     -0.0000
     78  N        -95.6160    8.8780   62.1210 N.3   238  VAL238     -0.1245
     79  CA       -96.4650    9.3490   61.0160 C.3   238  VAL238      0.1561
     80  C        -97.7710    8.5420   60.8920 C.2   238  VAL238      0.2260
     81  O        -98.8390    9.0990   60.5800 O.2   238  VAL238     -0.2867
     82  CB       -95.7150    9.2890   59.6800 C.3   238  VAL238      0.0252
     83  CG1      -96.6570    9.5680   58.5000 C.3   238  VAL238      0.0019
     84  CG2      -94.5410   10.2670   59.6820 C.3   238  VAL238      0.0019
     85  N       -104.5350    9.2820   49.4850 N.3   386  ILE386     -0.1231
     86  CA      -104.1680    8.0370   50.1320 C.3   386  ILE386      0.1692
     87  C       -104.7450    8.0190   51.5510 C.2   386  ILE386      0.2591
     88  O       -105.1890    6.9800   52.0340 O.2   386  ILE386     -0.2718
     89  CB      -102.6430    7.8700   50.1560 C.3   386  ILE386      0.0266
     90  CG1     -102.1290    7.8250   48.7100 C.3   386  ILE386      0.0019
     91  CG2     -102.2620    6.6120   50.8930 C.3   386  ILE386      0.0020
     92  CD1     -100.6270    7.9020   48.5460 C.3   386  ILE386      0.0001
     93  N       -104.7000    9.1730   52.2220 N.am  387  VAL387     -0.1980
     94  CA      -105.4210    9.3610   53.4650 C.3   387  VAL387      0.1595
     95  C       -106.3530   10.5450   53.2720 C.2   387  VAL387      0.2287
     96  O       -105.8970   11.6660   53.2230 O.2   387  VAL387     -0.2864
     97  CB      -104.5220    9.6340   54.6520 C.3   387  VAL387      0.0276
     98  CG1     -105.3700    9.7150   55.9180 C.3   387  VAL387      0.0022
     99  CG2     -103.5000    8.4970   54.8330 C.3   387  VAL387      0.0022
@<TRIPOS>BOND
     1     8    10   ar
     2     8     6   ar
     3     1     2    1
     4     5     2    1
     5     5     6    1
     6     3     2    1
     7     3     4    2
     8    10    11   ar
     9    16    15    2
    10    24    25    1
    11     6     7   ar
    12    15    14    1
    13    11    12    1
    14    11     9   ar
    15     7     9   ar
    16    25    28    1
    17    25    26    1
    18    14    13    1
    19    14    17    1
    20    26    27    2
    21    17    18    1
    22    92    90    1
    23    90    89    1
    24    18    20   ar
    25    18    19   ar
    26    20    22   ar
    27    85    86    1
    28    19    21   ar
    29    29    30    1
    30    86    89    1
    31    86    87    1
    32    89    91    1
    33    67    68    1
    34    22    23   ar
    35    71    68    1
    36    71    72    1
    37    32    31    2
    38    33    30    1
    39    33    34    1
    40    21    23   ar
    41    30    31    1
    42    74    72   ar
    43    74    76   ar
    44    68    69    1
    45    87    88    2
    46    87    93   am
    47    72    73   ar
    48    69    70    2
    49    34    35   ar
    50    34    36   ar
    51    76    77   ar
    52    93    94    1
    53    35    37   ar
    54    73    75   ar
    55    36    38   ar
    56    55    54    2
    57    77    75   ar
    58    96    95    2
    59    95    94    1
    60    37    39   ar
    61    94    97    1
    62    63    62    2
    63    38    39   ar
    64    39    40    1
    65    54    53    1
    66    54    60   am
    67    62    61    1
    68    97    99    1
    69    97    98    1
    70    53    52    1
    71    53    56    1
    72    61    60    1
    73    61    64    1
    74    41    42    1
    75    56    57    1
    76    44    43    2
    77    65    64    1
    78    57    58    1
    79    64    66    1
    80    59    58    1
    81    42    43    1
    82    42    45    1
    83    48    50   ar
    84    48    46   ar
    85    45    46    1
    86    50    51   ar
    87    46    47   ar
    88    51    49   ar
    89    47    49   ar
    90    83    82    1
    91    82    84    1
    92    82    79    1
    93    81    80    2
    94    80    79    1
    95    79    78    1
