@<TRIPOS>MOLECULE
tmp/4jx2B05.pdb
 89 85 0 0 0
SMALL
GASTEIGER

@<TRIPOS>ATOM
      1  N         96.0550  -11.9400   49.7490 N.3    70  THR70      -0.1218
      2  CA        96.5490  -12.7530   48.6280 C.3    70  THR70       0.1862
      3  C         95.4060  -13.1980   47.6930 C.2    70  THR70       0.2287
      4  O         94.3110  -13.5380   48.1420 O.2    70  THR70      -0.2866
      5  CB        97.3890  -13.9410   49.1280 C.3    70  THR70       0.1770
      6  OG1       96.7550  -14.5650   50.2640 O.3    70  THR70      -0.2211
      7  CG2       98.8210  -13.5190   49.4700 C.3    70  THR70       0.0375
      8  N         99.6510  -18.7670   46.2280 N.3    76  PHE76      -0.1241
      9  CA        99.9360  -18.6290   47.6580 C.3    76  PHE76       0.1605
     10  C         99.5840  -19.9070   48.4320 C.2    76  PHE76       0.2264
     11  O        100.4530  -20.4360   49.1340 O.2    76  PHE76      -0.2867
     12  CB        99.2160  -17.4070   48.2820 C.3    76  PHE76       0.0534
     13  CG        99.4940  -17.2350   49.7640 C.ar   76  PHE76      -0.0203
     14  CD1      100.6200  -16.5490   50.2040 C.ar   76  PHE76      -0.0042
     15  CD2       98.6490  -17.7930   50.7200 C.ar   76  PHE76      -0.0042
     16  CE1      100.8940  -16.4270   51.5730 C.ar   76  PHE76      -0.0003
     17  CE2       98.9330  -17.6830   52.0890 C.ar   76  PHE76      -0.0003
     18  CZ       100.0480  -16.9960   52.5020 C.ar   76  PHE76      -0.0000
     19  N        108.3990  -20.1040   50.5530 N.3   189  PHE189     -0.1241
     20  CA       108.1450  -18.7970   51.1840 C.3   189  PHE189      0.1605
     21  C        108.6060  -17.6750   50.3070 C.2   189  PHE189      0.2264
     22  O        107.8570  -16.7190   50.1000 O.2   189  PHE189     -0.2867
     23  CB       108.8080  -18.6690   52.5730 C.3   189  PHE189      0.0534
     24  CG       108.0180  -19.2210   53.7370 C.ar  189  PHE189     -0.0203
     25  CD1      106.7000  -19.6850   53.5650 C.ar  189  PHE189     -0.0042
     26  CD2      108.5790  -19.2890   55.0080 C.ar  189  PHE189     -0.0042
     27  CE1      105.9690  -20.2170   54.6480 C.ar  189  PHE189     -0.0003
     28  CE2      107.8620  -19.8630   56.0800 C.ar  189  PHE189     -0.0003
     29  CZ       106.5630  -20.3170   55.8910 C.ar  189  PHE189     -0.0000
     30  N        106.4270  -16.9150   47.3030 N.3   191  THR191     -0.1203
     31  CA       105.2320  -16.2530   47.7880 C.3   191  THR191      0.1994
     32  C        105.5460  -14.7380   47.9610 C.2   191  THR191      0.2617
     33  O        104.7560  -13.9070   47.5050 O.2   191  THR191     -0.2717
     34  CB       104.7760  -17.0260   49.0340 C.3   191  THR191      0.1784
     35  OG1      103.8710  -18.0560   48.6210 O.3   191  THR191     -0.2211
     36  CG2      104.1610  -16.1800   50.0690 C.3   191  THR191      0.0376
     37  N        106.7150  -14.3970   48.5560 N.am  192  ALA192     -0.1979
     38  CA       107.1550  -13.0030   48.7390 C.3   192  ALA192      0.1597
     39  C        107.4040  -12.3360   47.4000 C.2   192  ALA192      0.2287
     40  O        106.9350  -11.2170   47.1640 O.2   192  ALA192     -0.2864
     41  CB       108.4100  -12.9460   49.5870 C.3   192  ALA192      0.0319
     42  N        103.9280  -11.5930   45.5260 N.3   195  SER195     -0.1217
     43  CA       103.2770  -10.4950   46.2250 C.3   195  SER195      0.1889
     44  C        103.9500   -9.1360   45.8740 C.2   195  SER195      0.2288
     45  O        103.2700   -8.1480   45.5360 O.2   195  SER195     -0.2866
     46  CB       103.3260  -10.7780   47.7260 C.3   195  SER195      0.2089
     47  OG       102.8910   -9.6950   48.5280 O.3   195  SER195     -0.2183
     48  N        108.4610   -4.9750   56.7360 N.3   234  TRP234     -0.1241
     49  CA       109.1770   -5.0210   55.4630 C.3   234  TRP234      0.1605
     50  C        108.5380   -4.0940   54.4230 C.2   234  TRP234      0.2264
     51  O        109.1420   -3.9020   53.3740 O.2   234  TRP234     -0.2867
     52  CB       109.3220   -6.4530   54.9230 C.3   234  TRP234      0.0550
     53  CG       108.0210   -7.1420   54.6990 C.ar  234  TRP234      0.0003
     54  CD1      107.4140   -8.0280   55.5340 C.ar  234  TRP234      0.0946
     55  CD2      107.1540   -6.9960   53.5640 C.ar  234  TRP234      0.0152
     56  NE1      106.2180   -8.4390   54.9980 N.ar  234  TRP234     -0.2442
     57  CE2      106.0410   -7.8340   53.7790 C.ar  234  TRP234      0.0810
     58  CE3      107.2210   -6.2570   52.3640 C.ar  234  TRP234      0.0012
     59  CZ2      105.0000   -7.9540   52.8430 C.ar  234  TRP234      0.0191
     60  CZ3      106.1890   -6.3750   51.4430 C.ar  234  TRP234      0.0001
     61  CH2      105.0980   -7.2190   51.6810 C.ar  234  TRP234      0.0015
     62  N        105.0860  -13.0220   60.3490 N.3   338  LEU338     -0.1231
     63  CA       105.7670  -14.1940   59.7660 C.3   338  LEU338      0.1693
     64  C        106.4290  -13.8680   58.4140 C.2   338  LEU338      0.2592
     65  O        107.4720  -14.4330   58.1090 O.2   338  LEU338     -0.2718
     66  CB       104.8340  -15.4080   59.6010 C.3   338  LEU338      0.0284
     67  CG       104.5430  -16.2190   60.8800 C.3   338  LEU338      0.0019
     68  CD1      103.5560  -17.3240   60.6050 C.3   338  LEU338      0.0001
     69  CD2      105.8100  -16.8080   61.4680 C.3   338  LEU338      0.0001
     70  N        105.8510  -12.9380   57.6280 N.am  339  SER339     -0.1952
     71  CA       106.3900  -12.5280   56.3210 C.3   339  SER339      0.1924
     72  C        107.7670  -11.8240   56.4360 C.2   339  SER339      0.2314
     73  O        108.4730  -11.7360   55.4350 O.2   339  SER339     -0.2863
     74  CB       105.4000  -11.6450   55.5670 C.3   339  SER339      0.2116
     75  OG       104.8850  -10.6060   56.3830 O.3   339  SER339     -0.2180
     76  N        110.2870  -13.1000   57.7480 N.3   341  THR341     -0.1203
     77  CA       111.1970  -14.2160   57.5090 C.3   341  THR341      0.1994
     78  C        112.0010  -14.0350   56.2130 C.2   341  THR341      0.2617
     79  O        113.2020  -14.3030   56.2180 O.2   341  THR341     -0.2717
     80  CB       110.3700  -15.5010   57.4270 C.3   341  THR341      0.1784
     81  OG1      109.5630  -15.5970   58.5950 O.3   341  THR341     -0.2211
     82  CG2      111.2160  -16.7560   57.2120 C.3   341  THR341      0.0376
     83  N        111.3260  -13.5710   55.1200 N.am  342  VAL342     -0.1979
     84  CA       111.8560  -13.4350   53.7490 C.3   342  VAL342      0.1595
     85  C        111.6120  -12.0200   53.1420 C.2   342  VAL342      0.2287
     86  O        112.2910  -11.6520   52.1690 O.2   342  VAL342     -0.2864
     87  CB       111.2410  -14.5560   52.8300 C.3   342  VAL342      0.0276
     88  CG1      111.6340  -15.9570   53.3190 C.3   342  VAL342      0.0022
     89  CG2      109.7230  -14.4440   52.7240 C.3   342  VAL342      0.0022
@<TRIPOS>BOND
     1    42    43    1
     2    45    44    2
     3    44    43    1
     4    43    46    1
     5     8     9    1
     6    40    39    2
     7    30    31    1
     8    39    38    1
     9    33    32    2
    10     9    12    1
    11     9    10    1
    12     3     4    2
    13     3     2    1
    14    46    47    1
    15    31    32    1
    16    31    34    1
    17    32    37   am
    18    12    13    1
    19    10    11    2
    20    37    38    1
    21    35    34    1
    22     2     5    1
    23     2     1    1
    24    38    41    1
    25    34    36    1
    26     5     7    1
    27     5     6    1
    28    13    14   ar
    29    13    15   ar
    30    22    21    2
    31    14    16   ar
    32    21    20    1
    33    19    20    1
    34    15    17   ar
    35    20    23    1
    36    60    61   ar
    37    60    58   ar
    38    16    18   ar
    39    61    59   ar
    40    17    18   ar
    41    86    85    2
    42    58    55   ar
    43    23    24    1
    44    89    87    1
    45    87    88    1
    46    87    84    1
    47    59    57   ar
    48    85    84    1
    49    51    50    2
    50    55    57   ar
    51    55    53   ar
    52    25    24   ar
    53    25    27   ar
    54    24    26   ar
    55    84    83    1
    56    57    56   ar
    57    50    49    1
    58    27    29   ar
    59    53    52    1
    60    53    54   ar
    61    52    49    1
    62    56    54   ar
    63    26    28   ar
    64    83    78   am
    65    73    72    2
    66    49    48    1
    67    74    71    1
    68    74    75    1
    69    29    28   ar
    70    78    79    2
    71    78    77    1
    72    71    72    1
    73    71    70    1
    74    82    80    1
    75    80    77    1
    76    80    81    1
    77    77    76    1
    78    70    64   am
    79    65    64    2
    80    64    63    1
    81    66    63    1
    82    66    67    1
    83    63    62    1
    84    68    67    1
    85    67    69    1
