@<TRIPOS>MOLECULE
tmp/4jx7A00.pdb
 167 157 0 0 0
SMALL
GASTEIGER

@<TRIPOS>ATOM
      1  N         24.9300  -33.7740   -3.5800 N.3    12  LEU12      -0.1231
      2  CA        24.0410  -34.8650   -4.0090 C.3    12  LEU12       0.1693
      3  C         22.8620  -34.3310   -4.8300 C.2    12  LEU12       0.2593
      4  O         22.5080  -34.8960   -5.8570 O.2    12  LEU12      -0.2718
      5  CB        23.5570  -35.6870   -2.8220 C.3    12  LEU12       0.0284
      6  CG        24.6020  -36.3620   -1.9160 C.3    12  LEU12       0.0019
      7  CD1       23.9090  -37.0260   -0.7330 C.3    12  LEU12       0.0001
      8  CD2       25.4470  -37.3950   -2.6540 C.3    12  LEU12       0.0001
      9  N         22.2510  -33.2400   -4.3930 N.am   13  GLY13      -0.1942
     10  CA        21.2000  -32.6050   -5.1930 C.3    13  GLY13       0.2014
     11  C         20.7600  -31.3110   -4.5530 C.2    13  GLY13       0.2639
     12  O         21.2740  -30.9230   -3.4920 O.2    13  GLY13      -0.2714
     13  N         19.8240  -30.6260   -5.1910 N.am   14  SER14      -0.1949
     14  CA        19.3170  -29.3850   -4.6450 C.3    14  SER14       0.1924
     15  C         17.9040  -29.2080   -5.1560 C.2    14  SER14       0.2314
     16  O         17.5140  -29.8660   -6.0920 O.2    14  SER14      -0.2863
     17  CB        20.2110  -28.1970   -5.0380 C.3    14  SER14       0.2116
     18  OG        19.8110  -27.6200   -6.2670 O.3    14  SER14      -0.2180
     19  N         13.9210  -28.4130   -1.1850 N.3    17  PHE17      -0.1241
     20  CA        14.4910  -28.7100    0.1400 C.3    17  PHE17       0.1605
     21  C         15.8090  -27.9770    0.4780 C.2    17  PHE17       0.2264
     22  O         16.2760  -28.0590    1.6180 O.2    17  PHE17      -0.2867
     23  CB        14.7400  -30.2260    0.2640 C.3    17  PHE17       0.0534
     24  CG        15.5550  -30.7850   -0.8650 C.ar   17  PHE17      -0.0203
     25  CD1       16.9410  -30.7730   -0.8100 C.ar   17  PHE17      -0.0042
     26  CD2       14.9310  -31.2840   -2.0060 C.ar   17  PHE17      -0.0042
     27  CE1       17.6890  -31.2590   -1.8690 C.ar   17  PHE17      -0.0003
     28  CE2       15.6780  -31.7660   -3.0740 C.ar   17  PHE17      -0.0003
     29  CZ        17.0620  -31.7550   -3.0040 C.ar   17  PHE17      -0.0000
     30  N         21.8870  -30.7290   -0.5880 N.3    20  VAL20      -0.1245
     31  CA        22.3180  -31.8840    0.2110 C.3    20  VAL20       0.1561
     32  C         23.6540  -32.3950   -0.2930 C.2    20  VAL20       0.2260
     33  O         23.7810  -32.6990   -1.4760 O.2    20  VAL20      -0.2867
     34  CB        21.3530  -33.1000    0.1240 C.3    20  VAL20       0.0252
     35  CG1       21.5140  -33.9820    1.3500 C.3    20  VAL20       0.0019
     36  CG2       19.9120  -32.6690   -0.0060 C.3    20  VAL20       0.0019
     37  N         27.0390  -35.1240    0.2720 N.3    22  SER22      -0.1217
     38  CA        27.5810  -36.3250    0.8850 C.3    22  SER22       0.1889
     39  C         28.6040  -35.8070    1.8480 C.2    22  SER22       0.2288
     40  O         29.1710  -34.7390    1.6320 O.2    22  SER22      -0.2866
     41  CB        28.2390  -37.2140   -0.1570 C.3    22  SER22       0.2089
     42  OG        28.8710  -38.3140    0.4570 O.3    22  SER22      -0.2183
     43  N         24.8640  -37.3300    5.4550 N.3    33  ALA33      -0.1245
     44  CA        24.4020  -36.3680    4.4680 C.3    33  ALA33       0.1562
     45  C         24.2080  -35.0290    5.1590 C.2    33  ALA33       0.2260
     46  O         23.7200  -34.9700    6.2880 O.2    33  ALA33      -0.2867
     47  CB        23.1120  -36.8280    3.7820 C.3    33  ALA33       0.0290
     48  N         22.6730  -31.2420    4.8610 N.3    35  LYS35      -0.1245
     49  CA        21.6180  -30.5270    4.1900 C.3    35  LYS35       0.1561
     50  C         21.5560  -29.0840    4.6830 C.2    35  LYS35       0.2260
     51  O         21.4680  -28.8180    5.8920 O.2    35  LYS35      -0.2867
     52  CB        20.2980  -31.2370    4.4520 C.3    35  LYS35       0.0271
     53  CG        19.0910  -30.5710    3.8310 C.3    35  LYS35       0.0035
     54  CD        17.8710  -31.4420    4.1140 C.3    35  LYS35       0.0206
     55  CE        16.5500  -30.7360    3.8500 C.3    35  LYS35       0.1093
     56  NZ        15.5030  -31.7790    3.5590 N.3    35  LYS35      -0.1314
     57  N         14.9110  -41.7920    7.8890 N.3    72  ILE72      -0.1245
     58  CA        16.2960  -41.3170    8.0070 C.3    72  ILE72       0.1561
     59  C         16.4700  -40.5300    9.3140 C.2    72  ILE72       0.2260
     60  O         15.6450  -39.6610    9.6420 O.2    72  ILE72      -0.2867
     61  CB        16.7270  -40.4670    6.7830 C.3    72  ILE72       0.0252
     62  CG1       17.0930  -41.3730    5.6030 C.3    72  ILE72       0.0019
     63  CG2       17.9370  -39.5830    7.0870 C.3    72  ILE72       0.0019
     64  CD1       18.4900  -41.9620    5.6380 C.3    72  ILE72       0.0001
     65  N         22.4900  -35.8110    8.7270 N.3    88  LEU88      -0.1231
     66  CA        21.5620  -36.9260    8.6690 C.3    88  LEU88       0.1693
     67  C         22.3190  -38.1800    8.3620 C.2    88  LEU88       0.2592
     68  O         23.3690  -38.1490    7.7270 O.2    88  LEU88      -0.2718
     69  CB        20.4880  -36.6940    7.5930 C.3    88  LEU88       0.0284
     70  CG        19.7420  -35.3650    7.6940 C.3    88  LEU88       0.0019
     71  CD1       19.5940  -34.7400    6.3260 C.3    88  LEU88       0.0001
     72  CD2       18.3990  -35.5350    8.3920 C.3    88  LEU88       0.0001
     73  N         21.7710  -39.2920    8.8180 N.am   89  GLU89      -0.1966
     74  CA        22.2660  -40.6090    8.4660 C.3    89  GLU89       0.1733
     75  C         22.3870  -40.7740    6.9410 C.2    89  GLU89       0.2616
     76  O         21.5690  -40.2430    6.1850 O.2    89  GLU89      -0.2715
     77  CB        21.3140  -41.6300    9.0920 C.3    89  GLU89       0.0429
     78  CG        21.0520  -42.8960    8.3050 C.3    89  GLU89       0.1163
     79  CD        20.1760  -43.8750    9.0690 C.2    89  GLU89       0.3649
     80  OE1       19.2300  -43.4260    9.7610 O.co2  89  GLU89      -0.2457
     81  OE2       20.4450  -45.0980    8.9800 O.co2  89  GLU89      -0.2457
     82  N         23.4220  -41.4720    6.4840 N.am   90  ARG90      -0.1964
     83  CA        23.5290  -41.8080    5.0530 C.3    90  ARG90       0.1714
     84  C         23.9230  -43.2740    4.8160 C.2    90  ARG90       0.2458
     85  O         25.0440  -43.6780    5.1480 O.2    90  ARG90      -0.2730
     86  CB        24.4720  -40.8500    4.3090 C.3    90  ARG90       0.0347
     87  CG        24.9450  -41.3660    2.9520 C.3    90  ARG90       0.0492
     88  CD        25.7370  -40.3170    2.1690 C.3    90  ARG90       0.2205
     89  NE        27.0960  -40.0930    2.6820 N.pl3  90  ARG90      -0.0865
     90  CZ        28.1640  -40.8470    2.3770 C.cat  90  ARG90       0.5346
     91  NH1       28.0610  -41.9190    1.5810 N.pl3  90  ARG90       0.1354
     92  NH2       29.3460  -40.5390    2.8900 N.pl3  90  ARG90       0.1354
     93  N         22.9950  -44.0710    4.2440 N.am   91  PRO91      -0.2727
     94  CA        23.2690  -45.4730    3.9170 C.3    91  PRO91       0.1402
     95  C         24.2160  -45.5400    2.7410 C.2    91  PRO91       0.2269
     96  O         24.2760  -44.6140    1.9300 O.2    91  PRO91      -0.2865
     97  CB        21.9040  -46.0430    3.5120 C.3    91  PRO91       0.0296
     98  CG        20.9130  -44.9200    3.5920 C.3    91  PRO91       0.0237
     99  CD        21.6710  -43.6310    3.7600 C.3    91  PRO91       0.0939
    100  N         23.5320  -46.6310   -1.7040 N.3    94  VAL94      -0.1231
    101  CA        22.1490  -46.1680   -1.6280 C.3    94  VAL94       0.1692
    102  C         21.6890  -45.6280   -2.9770 C.2    94  VAL94       0.2592
    103  O         22.4630  -45.0110   -3.6920 O.2    94  VAL94      -0.2718
    104  CB        22.0060  -45.0740   -0.5430 C.3    94  VAL94       0.0266
    105  CG1       22.6750  -43.7920   -0.9990 C.3    94  VAL94       0.0020
    106  CG2       20.5600  -44.7830   -0.2340 C.3    94  VAL94       0.0020
    107  N         20.4300  -45.8580   -3.3300 N.am   95  GLN95      -0.1966
    108  CA        19.8310  -45.1920   -4.4850 C.3    95  GLN95       0.1733
    109  C         18.3940  -44.7820   -4.1370 C.2    95  GLN95       0.2616
    110  O         17.6830  -45.5510   -3.4940 O.2    95  GLN95      -0.2715
    111  CB        19.8350  -46.1290   -5.6930 C.3    95  GLN95       0.0408
    112  CG        19.2920  -45.4950   -6.9660 C.3    95  GLN95       0.0908
    113  CD        19.2910  -46.4520   -8.1510 C.2    95  GLN95       0.2608
    114  OE1       18.9820  -47.6350   -8.0110 O.2    95  GLN95      -0.2717
    115  NE2       19.6200  -45.9350   -9.3280 N.am   95  GLN95      -0.0878
    116  N         17.9650  -43.5890   -4.5570 N.am   96  ASP96      -0.1971
    117  CA        16.5880  -43.1840   -4.3360 C.3    96  ASP96       0.1709
    118  C         15.6240  -43.9760   -5.2330 C.2    96  ASP96       0.2293
    119  O         15.9930  -44.4260   -6.3260 O.2    96  ASP96      -0.2864
    120  CB        16.4030  -41.6830   -4.5400 C.3    96  ASP96       0.1436
    121  CG        16.6800  -41.2680   -5.9540 C.2    96  ASP96       0.3671
    122  OD1       15.7630  -40.7670   -6.6360 O.co2  96  ASP96      -0.2456
    123  OD2       17.8300  -41.4800   -6.3960 O.co2  96  ASP96      -0.2456
    124  N         13.0910  -43.0590   -7.0030 N.3    98  PHE98      -0.1227
    125  CA        12.8400  -42.4340   -8.2990 C.3    98  PHE98       0.1736
    126  C         13.8360  -42.9150   -9.3730 C.2    98  PHE98       0.2595
    127  O         13.4320  -43.4120  -10.4290 O.2    98  PHE98      -0.2718
    128  CB        12.8170  -40.9010   -8.1880 C.3    98  PHE98       0.0547
    129  CG        12.5350  -40.2070   -9.4980 C.ar   98  PHE98      -0.0202
    130  CD1       13.5800  -39.9160  -10.3890 C.ar   98  PHE98      -0.0042
    131  CD2       11.2300  -39.8610   -9.8560 C.ar   98  PHE98      -0.0042
    132  CE1       13.3250  -39.2970  -11.6070 C.ar   98  PHE98      -0.0003
    133  CE2       10.9700  -39.2300  -11.0730 C.ar   98  PHE98      -0.0003
    134  CZ        12.0180  -38.9530  -11.9540 C.ar   98  PHE98      -0.0000
    135  N         15.1300  -42.7930   -9.0890 N.am   99  ASP99      -0.1974
    136  CA        16.1640  -43.2620  -10.0090 C.3    99  ASP99       0.1709
    137  C         16.0960  -44.7560  -10.2260 C.2    99  ASP99       0.2293
    138  O         16.3160  -45.2400  -11.3380 O.2    99  ASP99      -0.2864
    139  CB        17.5630  -42.8510   -9.5330 C.3    99  ASP99       0.1436
    140  CG        17.7810  -41.3610   -9.6380 C.2    99  ASP99       0.3671
    141  OD1       17.1070  -40.7330  -10.4850 O.co2  99  ASP99      -0.2456
    142  OD2       18.6040  -40.7990   -8.8730 O.co2  99  ASP99      -0.2456
    143  N         10.7400  -40.0240   -4.9700 N.3   139  GLU139     -0.1245
    144  CA        11.8790  -39.1040   -4.7670 C.3   139  GLU139      0.1567
    145  C         12.2320  -38.9330   -3.3020 C.2   139  GLU139      0.2260
    146  O         13.3660  -38.6070   -2.9900 O.2   139  GLU139     -0.2867
    147  CB        11.6110  -37.7170   -5.3570 C.3   139  GLU139      0.0388
    148  CG        11.2660  -37.7050   -6.8400 C.3   139  GLU139      0.1160
    149  CD        10.9830  -36.2940   -7.3550 C.2   139  GLU139      0.3649
    150  OE1        9.8090  -35.8900   -7.4370 O.co2 139  GLU139     -0.2457
    151  OE2       11.9490  -35.5690   -7.6530 O.co2 139  GLU139     -0.2457
    152  N         14.6840  -43.6070    0.1230 N.3   142  LEU142     -0.1245
    153  CA        16.0160  -44.1300   -0.1760 C.3   142  LEU142      0.1561
    154  C         16.0560  -45.6240   -0.0180 C.2   142  LEU142      0.2260
    155  O         15.4420  -46.1770    0.8950 O.2   142  LEU142     -0.2867
    156  CB        17.0970  -43.4780    0.7180 C.3   142  LEU142      0.0270
    157  CG        17.2620  -41.9700    0.5190 C.3   142  LEU142      0.0019
    158  CD1       18.3150  -41.4310    1.4770 C.3   142  LEU142      0.0001
    159  CD2       17.5830  -41.6150   -0.9350 C.3   142  LEU142      0.0001
    160  N         12.7990  -39.8060    3.5510 N.3   153  ILE153     -0.1245
    161  CA        13.5680  -38.5780    3.7220 C.3   153  ILE153      0.1561
    162  C         12.6890  -37.3940    3.4320 C.2   153  ILE153      0.2260
    163  O         11.5590  -37.5470    2.9540 O.2   153  ILE153     -0.2867
    164  CB        14.8300  -38.5000    2.8150 C.3   153  ILE153      0.0252
    165  CG1       14.4410  -38.5880    1.3340 C.3   153  ILE153      0.0019
    166  CG2       15.8420  -39.5670    3.2120 C.3   153  ILE153      0.0019
    167  CD1       15.5630  -38.2830    0.3610 C.3   153  ILE153      0.0001
@<TRIPOS>BOND
     1   134   132   ar
     2   134   133   ar
     3   132   130   ar
     4   138   137    2
     5   133   131   ar
     6   141   140   ar
     7   127   126    2
     8   130   129   ar
     9   137   136    1
    10   136   139    1
    11   136   135    1
    12   131   129   ar
    13   140   139    1
    14   140   142   ar
    15   129   128    1
    16   126   135   am
    17   126   125    1
    18   115   113   am
    19   125   128    1
    20   125   124    1
    21   113   114    2
    22   113   112    1
    23   151   149   ar
    24   150   149   ar
    25   149   148    1
    26   112   111    1
    27   148   147    1
    28   122   121   ar
    29   123   121   ar
    30   119   118    2
    31    18    17    1
    32    16    15    2
    33   121   120    1
    34     4     3    2
    35   111   108    1
    36   147   144    1
    37   118   117    1
    38    10    11    1
    39    10     9    1
    40    13    14    1
    41    13    11   am
    42    15    14    1
    43    17    14    1
    44   143   144    1
    45     3     9   am
    46     3     2    1
    47   144   145    1
    48   116   117    1
    49   116   109   am
    50    11    12    2
    51   120   117    1
    52   108   109    1
    53   108   107    1
    54   109   110    2
    55     2     1    1
    56     2     5    1
    57   103   102    2
    58   107   102   am
    59   145   146    2
    60    28    29   ar
    61    28    26   ar
    62    29    27   ar
    63   102   101    1
    64     5     6    1
    65     8     6    1
    66    26    24   ar
    67     6     7    1
    68    27    25   ar
    69   100   101    1
    70   101   104    1
    71    33    32    2
    72    19    20    1
    73   105   104    1
    74   159   157    1
    75    24    25   ar
    76    24    23    1
    77    30    31    1
    78   104   106    1
    79    32    31    1
    80   153   154    1
    81   153   152    1
    82   153   156    1
    83    41    42    1
    84    41    38    1
    85   154   155    2
    86    36    34    1
    87    34    31    1
    88    34    35    1
    89    20    23    1
    90    20    21    1
    91    37    38    1
    92   167   165    1
    93    21    22    2
    94   157   156    1
    95   157   158    1
    96    38    39    1
    97   165   164    1
    98    91    90    1
    99    40    39    2
   100    96    95    2
   101    88    89    1
   102    88    87    1
   103    90    89    2
   104    90    92    1
   105    95    94    1
   106   164   166    1
   107   164   161    1
   108    87    86    1
   109   163   162    2
   110   162   161    1
   111    97    98    1
   112    97    94    1
   113   160   161    1
   114    56    55    1
   115    98    99    1
   116    99    93    1
   117    47    44    1
   118    53    54    1
   119    53    52    1
   120    55    54    1
   121    94    93    1
   122    49    52    1
   123    49    50    1
   124    49    48    1
   125    93    84   am
   126    86    83    1
   127    44    45    1
   128    44    43    1
   129    50    51    2
   130    84    83    1
   131    84    85    2
   132    83    82    1
   133    45    46    2
   134    62    64    1
   135    62    61    1
   136    76    75    2
   137    71    70    1
   138    82    75   am
   139    61    63    1
   140    61    58    1
   141    75    74    1
   142    69    70    1
   143    69    66    1
   144    70    72    1
   145    68    67    2
   146    57    58    1
   147    58    59    1
   148    78    79    1
   149    78    77    1
   150    67    66    1
   151    67    73   am
   152    74    73    1
   153    74    77    1
   154    66    65    1
   155    81    79   ar
   156    79    80   ar
   157    59    60    2
