@<TRIPOS>MOLECULE
tmp/4jx8B01.pdb
 116 112 0 0 0
SMALL
GASTEIGER

@<TRIPOS>ATOM
      1  N        -13.4650   38.4860  312.9370 N.3    92  GLY92      -0.1210
      2  CA       -12.1200   37.9230  313.1420 C.3    92  GLY92       0.1956
      3  C        -11.9170   37.3670  314.5550 C.2    92  GLY92       0.2612
      4  O        -12.2840   38.0070  315.5310 O.2    92  GLY92      -0.2717
      5  N        -11.3120   36.1880  314.6690 N.am   93  PHE93      -0.1962
      6  CA       -10.9960   35.6460  315.9900 C.3    93  PHE93       0.1771
      7  C         -9.6940   34.8570  316.0930 C.2    93  PHE93       0.2619
      8  O         -9.2710   34.1910  315.1440 O.2    93  PHE93      -0.2715
      9  CB       -12.1430   34.8010  316.5360 C.3    93  PHE93       0.0574
     10  CG       -12.0040   34.4760  317.9910 C.ar   93  PHE93      -0.0200
     11  CD1      -12.1100   35.4760  318.9530 C.ar   93  PHE93      -0.0042
     12  CD2      -11.7620   33.1800  318.4000 C.ar   93  PHE93      -0.0042
     13  CE1      -11.9770   35.1860  320.3000 C.ar   93  PHE93      -0.0003
     14  CE2      -11.6280   32.8800  319.7420 C.ar   93  PHE93      -0.0003
     15  CZ       -11.7330   33.8870  320.6940 C.ar   93  PHE93      -0.0000
     16  N         -9.0720   34.9720  317.2670 N.am   94  ALA94      -0.1977
     17  CA        -7.9780   34.1260  317.7160 C.3    94  ALA94       0.1597
     18  C         -8.1820   33.9870  319.2170 C.2    94  ALA94       0.2287
     19  O         -8.3700   34.9930  319.9060 O.2    94  ALA94      -0.2864
     20  CB        -6.6370   34.7730  317.4160 C.3    94  ALA94       0.0319
     21  N         -6.8390   34.3270  322.0810 N.3    96  GLY96      -0.1225
     22  CA        -5.4720   34.7710  322.2420 C.3    96  GLY96       0.1811
     23  C         -5.2190   35.3960  323.5690 C.2    96  GLY96       0.2280
     24  O         -5.8080   36.4350  323.8120 O.2    96  GLY96      -0.2866
     25  N         -2.0190   36.6250  320.9200 N.3    99  LEU99      -0.1245
     26  CA        -1.5830   37.9420  320.3600 C.3    99  LEU99       0.1561
     27  C         -0.8950   38.6170  321.5460 C.2    99  LEU99       0.2260
     28  O         -1.2210   39.7460  321.8920 O.2    99  LEU99      -0.2867
     29  CB        -3.0620   38.3970  320.3100 C.3    99  LEU99       0.0270
     30  CG        -4.1040   37.6960  319.4060 C.3    99  LEU99       0.0019
     31  CD1       -5.4680   38.3710  319.4730 C.3    99  LEU99       0.0001
     32  CD2       -3.6290   37.5430  317.9590 C.3    99  LEU99       0.0001
     33  N         -6.3320   43.7100  308.0240 N.3   145  TYR145     -0.1241
     34  CA        -5.3620   44.6300  308.6010 C.3   145  TYR145      0.1605
     35  C         -4.0100   44.4990  307.9000 C.2   145  TYR145      0.2264
     36  O         -3.8160   43.5880  307.0890 O.2   145  TYR145     -0.2867
     37  CB        -5.2340   44.3970  310.1090 C.3   145  TYR145      0.0534
     38  CG        -4.2090   45.2890  310.7610 C.ar  145  TYR145     -0.0201
     39  CD1       -4.3060   46.6780  310.6610 C.ar  145  TYR145     -0.0009
     40  CD2       -3.1450   44.7520  311.4720 C.ar  145  TYR145     -0.0009
     41  CE1       -3.3720   47.5080  311.2470 C.ar  145  TYR145      0.0417
     42  CE2       -2.1990   45.5750  312.0650 C.ar  145  TYR145      0.0417
     43  CZ        -2.3140   46.9560  311.9510 C.ar  145  TYR145      0.1957
     44  OH        -1.3740   47.7990  312.5290 O.3   145  TYR145     -0.2866
     45  N          3.5410   42.3750  312.3210 N.3   152  ILE152     -0.1231
     46  CA         3.3380   43.2920  313.4420 C.3   152  ILE152      0.1678
     47  C          3.5590   42.5270  314.7480 C.2   152  ILE152      0.2434
     48  O          3.0040   41.4400  314.9430 O.2   152  ILE152     -0.2733
     49  CB         1.8970   43.8720  313.4650 C.3   152  ILE152      0.0265
     50  CG1        1.4620   44.3670  312.0850 C.3   152  ILE152      0.0019
     51  CG2        1.7580   44.9810  314.4960 C.3   152  ILE152      0.0020
     52  CD1        2.3500   45.4350  311.5010 C.3   152  ILE152      0.0001
     53  N          4.3660   43.0910  315.6620 N.am  153  PRO153     -0.2718
     54  CA         4.4980   42.4120  316.9520 C.3   153  PRO153      0.1535
     55  C          3.1400   42.2380  317.6480 C.2   153  PRO153      0.2599
     56  O          2.3050   43.1450  317.6340 O.2   153  PRO153     -0.2715
     57  CB         5.4410   43.3260  317.7560 C.3   153  PRO153      0.0310
     58  CG         5.4180   44.6400  317.0480 C.3   153  PRO153      0.0237
     59  CD         5.1470   44.3400  315.6050 C.3   153  PRO153      0.0939
     60  N          2.9360   41.0460  318.2020 N.am  154  ASN154     -0.1959
     61  CA         1.7450   40.6830  318.9650 C.3   154  ASN154      0.1819
     62  C          0.5070   40.3860  318.1310 C.2   154  ASN154      0.2621
     63  O         -0.5140   40.0150  318.6780 O.2   154  ASN154     -0.2715
     64  CB         1.4390   41.7240  320.0510 C.3   154  ASN154      0.1195
     65  CG         2.5220   41.7960  321.1060 C.2   154  ASN154      0.2630
     66  OD1        3.6440   42.2190  320.8320 O.2   154  ASN154     -0.2716
     67  ND2        2.1900   41.3850  322.3250 N.am  154  ASN154     -0.0877
     68  N          0.5730   40.5490  316.8180 N.am  155  TYR155     -0.1974
     69  CA        -0.5910   40.2240  315.9940 C.3   155  TYR155      0.1639
     70  C         -0.5220   38.7360  315.7270 C.2   155  TYR155      0.2290
     71  O         -1.5470   38.0450  315.6530 O.2   155  TYR155     -0.2864
     72  CB        -0.6050   41.0270  314.6770 C.3   155  TYR155      0.0560
     73  CG        -1.9590   41.0870  313.9630 C.ar  155  TYR155     -0.0198
     74  CD1       -2.0890   40.8020  312.6060 C.ar  155  TYR155     -0.0009
     75  CD2       -3.1010   41.4290  314.6450 C.ar  155  TYR155     -0.0009
     76  CE1       -3.3280   40.8660  311.9640 C.ar  155  TYR155      0.0417
     77  CE2       -4.3290   41.4820  314.0060 C.ar  155  TYR155      0.0417
     78  CZ        -4.4380   41.2060  312.6770 C.ar  155  TYR155      0.1957
     79  OH        -5.6830   41.2840  312.1240 O.3   155  TYR155     -0.2866
     80  N         -2.8730   36.0940  313.7520 N.3   158  MET158     -0.1245
     81  CA        -3.9300   36.8420  313.0670 C.3   158  MET158      0.1570
     82  C         -3.4080   37.2880  311.7370 C.2   158  MET158      0.2261
     83  O         -4.0850   37.1020  310.7270 O.2   158  MET158     -0.2867
     84  CB        -4.3840   38.0730  313.8360 C.3   158  MET158      0.0387
     85  CG        -5.4350   37.8260  314.9020 C.3   158  MET158      0.0595
     86  SD        -6.7910   36.7560  314.4010 S.3   158  MET158     -0.1393
     87  CE        -7.5400   37.7470  313.1050 C.3   158  MET158      0.0692
     88  N         -5.2690   36.8130  308.0570 N.3   162  LYS162     -0.1245
     89  CA        -5.6370   37.9080  307.1850 C.3   162  LYS162      0.1561
     90  C         -4.9300   37.7250  305.8530 C.2   162  LYS162      0.2260
     91  O         -5.4740   38.0350  304.7870 O.2   162  LYS162     -0.2867
     92  CB        -5.2690   39.2510  307.8140 C.3   162  LYS162      0.0271
     93  CG        -6.0100   39.5640  309.0920 C.3   162  LYS162      0.0035
     94  CD        -7.3560   40.1930  308.8120 C.3   162  LYS162      0.0206
     95  CE        -8.1550   40.3140  310.0960 C.3   162  LYS162      0.1093
     96  NZ        -9.4990   40.8850  309.8280 N.3   162  LYS162     -0.1314
     97  N         -5.5050   51.6450  312.1000 N.3   190  PRO190     -0.2116
     98  CA        -5.9430   51.6380  313.4920 C.3   190  PRO190      0.1372
     99  C         -6.9570   52.7520  313.7670 C.2   190  PRO190      0.2244
    100  O         -7.1180   53.6570  312.9320 O.2   190  PRO190     -0.2868
    101  CB        -4.6400   51.8620  314.2710 C.3   190  PRO190      0.0268
    102  CG        -3.5290   51.5890  313.2930 C.3   190  PRO190      0.0207
    103  CD        -4.0780   51.9810  311.9590 C.3   190  PRO190      0.0892
    104  N        -13.7740   46.1590  318.9490 N.3   193  LEU193     -0.1231
    105  CA       -12.3880   46.2860  318.4190 C.3   193  LEU193      0.1693
    106  C        -11.5530   45.2780  319.2210 C.2   193  LEU193      0.2591
    107  O        -12.1240   44.4130  319.8840 O.2   193  LEU193     -0.2718
    108  CB       -12.0520   47.6970  317.8710 C.3   193  LEU193      0.0284
    109  CG       -12.3250   49.0170  318.6070 C.3   193  LEU193      0.0019
    110  CD1      -11.1470   49.4330  319.4820 C.3   193  LEU193      0.0001
    111  CD2      -12.6730   50.1020  317.5930 C.3   193  LEU193      0.0001
    112  N        -10.2220   45.3630  319.1430 N.am  194  ALA194     -0.1980
    113  CA        -9.2490   44.8970  320.1410 C.3   194  ALA194      0.1597
    114  C         -7.7990   45.0510  319.6980 C.2   194  ALA194      0.2287
    115  O         -6.8820   44.9450  320.5150 O.2   194  ALA194     -0.2864
    116  CB        -9.5360   43.4580  320.5460 C.3   194  ALA194      0.0319
@<TRIPOS>BOND
     1    91    90    2
     2    90    89    1
     3    36    35    2
     4    89    92    1
     5    89    88    1
     6    92    93    1
     7    35    34    1
     8    33    34    1
     9    34    37    1
    10    94    93    1
    11    94    95    1
    12    96    95    1
    13    37    38    1
    14    39    38   ar
    15    39    41   ar
    16    83    82    2
    17    38    40   ar
    18    41    43   ar
    19    40    42   ar
    20    52    50    1
    21    82    81    1
    22    43    42   ar
    23    43    44    1
    24   103    97    1
    25   103   102    1
    26    76    74   ar
    27    76    78   ar
    28    50    49    1
    29    97    98    1
    30    79    78    1
    31    45    46    1
    32    74    73   ar
    33    78    77   ar
    34   100    99    2
    35     1     2    1
    36    81    80    1
    37    81    84    1
    38    87    86    1
    39     2     3    1
    40   102   101    1
    41    46    49    1
    42    46    47    1
    43    49    51    1
    44    98    99    1
    45    98   101    1
    46    84    85    1
    47    73    75   ar
    48    73    72    1
    49    77    75   ar
    50    86    85    1
    51     3     5   am
    52     3     4    2
    53     5     6    1
    54    72    69    1
    55    47    48    2
    56    47    53   am
    57     8     7    2
    58    59    53    1
    59    59    58    1
    60    71    70    2
    61    53    54    1
    62    70    69    1
    63     6     7    1
    64     6     9    1
    65    69    68    1
    66     7    16   am
    67     9    10    1
    68    68    62   am
    69    54    55    1
    70    54    57    1
    71    58    57    1
    72    16    17    1
    73    20    17    1
    74   111   109    1
    75    56    55    2
    76    55    60   am
    77    17    18    1
    78   108   105    1
    79   108   109    1
    80    32    30    1
    81    10    12   ar
    82    10    11   ar
    83    62    63    2
    84    62    61    1
    85    60    61    1
    86    12    14   ar
    87   105   104    1
    88   105   106    1
    89   109   110    1
    90    11    13   ar
    91    61    64    1
    92   112   106   am
    93   112   113    1
    94    18    19    2
    95   106   107    2
    96    30    31    1
    97    30    29    1
    98   114   113    1
    99   114   115    2
   100    14    15   ar
   101    64    65    1
   102   113   116    1
   103    13    15   ar
   104    29    26    1
   105    26    25    1
   106    26    27    1
   107    66    65    2
   108    65    67   am
   109    27    28    2
   110    21    22    1
   111    22    23    1
   112    23    24    2
