@<TRIPOS>MOLECULE
tmp/4jx9A00.pdb
 87 83 0 0 0
SMALL
GASTEIGER

@<TRIPOS>ATOM
      1  N          8.0400   13.2630   25.6010 N.3    12  ASN12      -0.1240
      2  CA         8.1620   14.3530   26.5580 C.3    12  ASN12       0.1653
      3  C          9.6290   14.6810   26.7980 C.2    12  ASN12       0.2266
      4  O         10.4720   13.7840   26.7730 O.2    12  ASN12      -0.2867
      5  CB         7.5110   13.9640   27.8870 C.3    12  ASN12       0.1155
      6  CG         6.0000   14.0640   27.8510 C.2    12  ASN12       0.2627
      7  OD1        5.4500   15.1190   27.5490 O.2    12  ASN12      -0.2716
      8  ND2        5.3190   12.9700   28.1740 N.am   12  ASN12      -0.0877
      9  N         11.4710   11.5200   31.7760 N.3    17  TYR17      -0.1241
     10  CA        10.5710   10.9300   30.8310 C.3    17  TYR17       0.1605
     11  C         11.2400   10.1170   29.7320 C.2    17  TYR17       0.2264
     12  O         10.5950    9.4320   29.0130 O.2    17  TYR17      -0.2867
     13  CB         9.7270   12.0330   30.1640 C.3    17  TYR17       0.0534
     14  CG         8.8190   12.7300   31.1360 C.ar   17  TYR17      -0.0201
     15  CD1        7.8400   12.0330   31.8030 C.ar   17  TYR17      -0.0009
     16  CD2        8.9880   14.0330   31.4250 C.ar   17  TYR17      -0.0009
     17  CE1        7.0150   12.6450   32.7110 C.ar   17  TYR17       0.0417
     18  CE2        8.1660   14.6500   32.3410 C.ar   17  TYR17       0.0417
     19  CZ         7.1880   13.9250   32.9530 C.ar   17  TYR17       0.1957
     20  OH         6.3970   14.5040   33.8810 O.3    17  TYR17      -0.2866
     21  N          5.7770    6.4760   26.6470 N.3    22  HIS22      -0.1241
     22  CA         5.2440    7.5930   25.8620 C.3    22  HIS22       0.1621
     23  C          6.3290    8.2580   25.0050 C.2    22  HIS22       0.2264
     24  O          6.0130    9.0600   24.1280 O.2    22  HIS22      -0.2867
     25  CB         4.6010    8.6300   26.8060 C.3    22  HIS22       0.0745
     26  CG         3.3050    9.2170   26.3240 C.ar   22  HIS22       0.0817
     27  ND1        2.4400    8.5700   25.4680 N.ar   22  HIS22      -0.2268
     28  CD2        2.6990   10.3820   26.6520 C.ar   22  HIS22       0.1154
     29  CE1        1.3740    9.3250   25.2640 C.ar   22  HIS22       0.1986
     30  NE2        1.5060   10.4280   25.9740 N.ar   22  HIS22      -0.2212
     31  N          6.2670   19.1860   25.4590 N.3    68  TYR68      -0.1227
     32  CA         5.4650   18.1720   26.1550 C.3    68  TYR68       0.1736
     33  C          4.4270   17.5840   25.1970 C.2    68  TYR68       0.2595
     34  O          3.9560   18.2530   24.2740 O.2    68  TYR68      -0.2718
     35  CB         4.8420   18.6830   27.4640 C.3    68  TYR68       0.0548
     36  CG         5.8860   18.9600   28.5190 C.ar   68  TYR68      -0.0200
     37  CD1        6.3370   17.9460   29.3590 C.ar   68  TYR68      -0.0009
     38  CD2        6.4460   20.2260   28.6590 C.ar   68  TYR68      -0.0009
     39  CE1        7.3070   18.1870   30.3180 C.ar   68  TYR68       0.0417
     40  CE2        7.4160   20.4780   29.6170 C.ar   68  TYR68       0.0417
     41  CZ         7.8410   19.4560   30.4440 C.ar   68  TYR68       0.1957
     42  OH         8.8070   19.7050   31.3930 O.3    68  TYR68      -0.2866
     43  N          4.0960   16.3160   25.4120 N.am   69  MET69      -0.1965
     44  CA         3.3490   15.5320   24.4300 C.3    69  MET69       0.1736
     45  C          2.0580   16.1870   23.9620 C.2    69  MET69       0.2616
     46  O          1.7870   16.2310   22.7660 O.2    69  MET69      -0.2715
     47  CB         3.0050   14.1610   25.0010 C.3    69  MET69       0.0427
     48  CG         2.2810   13.2490   24.0310 C.3    69  MET69       0.0599
     49  SD         3.3380   12.7920   22.6540 S.3    69  MET69      -0.1393
     50  CE         4.0590   11.2890   23.3080 C.3    69  MET69       0.0692
     51  N          1.2570   16.6810   24.9010 N.am   70  ASN70      -0.1972
     52  CA        -0.0790   17.1690   24.5590 C.3    70  ASN70       0.1688
     53  C         -0.0800   18.5040   23.8090 C.2    70  ASN70       0.2292
     54  O         -1.1380   18.9730   23.3920 O.2    70  ASN70      -0.2864
     55  CB        -0.9840   17.2220   25.8010 C.3    70  ASN70       0.1181
     56  CG        -0.6220   18.3410   26.7590 C.2    70  ASN70       0.2629
     57  OD1        0.5180   18.8050   26.7980 O.2    70  ASN70      -0.2716
     58  ND2       -1.5950   18.7680   27.5580 N.am   70  ASN70      -0.0877
     59  N         -2.5920   11.5770   22.9560 N.3   116  ASN116     -0.1240
     60  CA        -2.6430   13.0270   23.1940 C.3   116  ASN116      0.1653
     61  C         -1.6850   13.8650   22.3480 C.2   116  ASN116      0.2266
     62  O         -1.9260   15.0510   22.1460 O.2   116  ASN116     -0.2867
     63  CB        -2.4100   13.3460   24.6740 C.3   116  ASN116      0.1155
     64  CG        -3.6110   13.0190   25.5370 C.2   116  ASN116      0.2627
     65  OD1       -4.7560   13.1610   25.1050 O.2   116  ASN116     -0.2716
     66  ND2       -3.3570   12.5950   26.7690 N.am  116  ASN116     -0.0877
     67  N         -2.3490    6.8810   32.1070 N.3   146  SER146     -0.1217
     68  CA        -1.2600    7.7930   32.4600 C.3   146  SER146      0.1889
     69  C         -0.0960    7.0490   33.1150 C.2   146  SER146      0.2288
     70  O          1.0610    7.2480   32.7440 O.2   146  SER146     -0.2866
     71  CB        -1.7650    8.8970   33.3950 C.3   146  SER146      0.2089
     72  OG        -0.7220    9.7950   33.7300 O.3   146  SER146     -0.2183
     73  N          1.6870    4.8230   30.2120 N.3   149  VAL149     -0.1231
     74  CA         2.4930    5.5280   29.2090 C.3   149  VAL149      0.1692
     75  C          3.6460    6.3050   29.8480 C.2   149  VAL149      0.2591
     76  O          4.7060    6.4410   29.2440 O.2   149  VAL149     -0.2718
     77  CB         1.6550    6.4480   28.2830 C.3   149  VAL149      0.0266
     78  CG1        0.5460    5.6540   27.6010 C.3   149  VAL149      0.0020
     79  CG2        1.0910    7.6480   29.0330 C.3   149  VAL149      0.0020
     80  N          3.4550    6.7880   31.0760 N.am  150  LEU150     -0.1980
     81  CA         4.5300    7.4760   31.7970 C.3   150  LEU150      0.1596
     82  C          5.3450    6.5230   32.6800 C.2   150  LEU150      0.2287
     83  O          6.1010    6.9660   33.5420 O.2   150  LEU150     -0.2864
     84  CB         3.9710    8.6390   32.6270 C.3   150  LEU150      0.0297
     85  CG         3.2070    9.7100   31.8390 C.3   150  LEU150      0.0022
     86  CD1        2.7630   10.8260   32.7710 C.3   150  LEU150      0.0001
     87  CD2        4.0370   10.2770   30.6920 C.3   150  LEU150      0.0001
@<TRIPOS>BOND
     1    62    61    2
     2    61    60    1
     3    49    50    1
     4    49    48    1
     5    46    45    2
     6    59    60    1
     7    60    63    1
     8    54    53    2
     9    53    52    1
    10    45    44    1
    11    45    51   am
    12    48    47    1
    13    24    23    2
    14    34    33    2
    15    44    47    1
    16    44    43    1
    17    52    51    1
    18    52    55    1
    19    63    64    1
    20    23    22    1
    21    65    64    2
    22    33    43   am
    23    33    32    1
    24    29    27   ar
    25    29    30   ar
    26    31    32    1
    27    27    26   ar
    28    64    66   am
    29     1     2    1
    30    55    56    1
    31    22    21    1
    32    22    25    1
    33    30    28   ar
    34    32    35    1
    35    26    28   ar
    36    26    25    1
    37     2     3    1
    38     2     5    1
    39    56    57    2
    40    56    58   am
    41     4     3    2
    42    35    36    1
    43     7     6    2
    44    78    77    1
    45     6     5    1
    46     6     8   am
    47    77    79    1
    48    77    74    1
    49    36    38   ar
    50    36    37   ar
    51    38    40   ar
    52    12    11    2
    53    74    75    1
    54    74    73    1
    55    76    75    2
    56    37    39   ar
    57    40    41   ar
    58    11    10    1
    59    75    80   am
    60    13    10    1
    61    13    14    1
    62    39    41   ar
    63    41    42    1
    64    87    85    1
    65    10     9    1
    66    80    81    1
    67    14    16   ar
    68    14    15   ar
    69    16    18   ar
    70    81    84    1
    71    81    82    1
    72    15    17   ar
    73    85    84    1
    74    85    86    1
    75    67    68    1
    76    18    19   ar
    77    68    69    1
    78    68    71    1
    79    82    83    2
    80    17    19   ar
    81    70    69    2
    82    19    20    1
    83    71    72    1
