@<TRIPOS>MOLECULE
tmp/4jxgA00.pdb
 139 130 0 0 0
SMALL
GASTEIGER

@<TRIPOS>ATOM
      1  N         18.2540   -3.2410   31.0160 N.3    60  GLY60      -0.1210
      2  CA        18.1670   -1.8050   30.8050 C.3    60  GLY60       0.1956
      3  C         16.7440   -1.3770   30.4120 C.2    60  GLY60       0.2612
      4  O         15.7670   -1.8960   30.9860 O.2    60  GLY60      -0.2717
      5  N         16.6620   -0.4770   29.4260 N.am   61  SER61      -0.1952
      6  CA        15.3590    0.1570   29.0750 C.3    61  SER61       0.1924
      7  C         14.4580   -0.8140   28.3200 C.2    61  SER61       0.2314
      8  O         13.2790   -0.5060   28.1790 O.2    61  SER61      -0.2863
      9  CB        15.5450    1.3660   28.2440 C.3    61  SER61       0.2116
     10  OG        16.1320    2.3880   29.0640 O.3    61  SER61      -0.2180
     11  N         15.5110   12.8850   30.4790 N.3   116  LEU116     -0.1231
     12  CA        15.9440   11.5420   30.3530 C.3   116  LEU116      0.1693
     13  C         16.1340   10.8000   31.6290 C.2   116  LEU116      0.2591
     14  O         15.6730    9.7120   31.8130 O.2   116  LEU116     -0.2718
     15  CB        17.2490   11.4310   29.4950 C.3   116  LEU116      0.0284
     16  CG        17.8110   10.0390   29.3590 C.3   116  LEU116      0.0019
     17  CD1       16.8370    9.2100   28.5030 C.3   116  LEU116      0.0001
     18  CD2       19.1430   10.1800   28.6250 C.3   116  LEU116      0.0001
     19  N         16.8950   11.4090   32.5630 N.am  117  GLN117     -0.1979
     20  CA        17.1470   10.8440   33.8340 C.3   117  GLN117      0.1601
     21  C         16.5410   11.6400   34.9610 C.2   117  GLN117      0.2287
     22  O         16.5440   12.8840   34.8990 O.2   117  GLN117     -0.2864
     23  CB        18.6750   10.7860   34.1100 C.3   117  GLN117      0.0394
     24  CG        19.5630   10.1910   33.1000 C.3   117  GLN117      0.0908
     25  CD        19.3130    8.7270   32.9380 C.2   117  GLN117      0.2608
     26  OE1       18.5180    8.0900   33.6650 O.2   117  GLN117     -0.2717
     27  NE2       19.9240    8.1760   31.8700 N.am  117  GLN117     -0.0878
     28  N         12.0900   11.0550   24.7440 N.3   147  TYR147     -0.1241
     29  CA        12.3800    9.8670   25.4790 C.3   147  TYR147      0.1605
     30  C         12.9180   10.0520   26.8380 C.2   147  TYR147      0.2264
     31  O         13.8630   10.8530   27.0380 O.2   147  TYR147     -0.2867
     32  CB        13.2930    8.9560   24.6250 C.3   147  TYR147      0.0534
     33  CG        13.5410    7.6000   25.1870 C.ar  147  TYR147     -0.0201
     34  CD1       14.4990    7.3630   26.1220 C.ar  147  TYR147     -0.0009
     35  CD2       12.7630    6.5450   24.8650 C.ar  147  TYR147     -0.0009
     36  CE1       14.6810    6.1170   26.6620 C.ar  147  TYR147      0.0417
     37  CE2       12.9650    5.2670   25.3910 C.ar  147  TYR147      0.0417
     38  CZ        13.9540    5.0750   26.2820 C.ar  147  TYR147      0.1957
     39  OH        14.1710    3.8300   26.8220 O.3   147  TYR147     -0.2866
     40  N         13.4550    8.2600   30.9810 N.3   149  ASN149     -0.1240
     41  CA        13.1650    7.3920   32.0870 C.3   149  ASN149      0.1653
     42  C         12.2620    7.9990   33.1510 C.2   149  ASN149      0.2266
     43  O         11.5470    7.2770   33.7980 O.2   149  ASN149     -0.2867
     44  CB        14.4920    6.9800   32.7720 C.3   149  ASN149      0.1155
     45  CG        15.4650    6.2790   31.8460 C.2   149  ASN149      0.2627
     46  OD1       15.0900    5.6140   30.8840 O.2   149  ASN149     -0.2716
     47  ND2       16.8080    6.4150   32.1660 N.am  149  ASN149     -0.0877
     48  N         24.3750   -2.3710   37.4430 N.3   208  VAL208     -0.1245
     49  CA        23.6500   -1.1240   37.5350 C.3   208  VAL208      0.1561
     50  C         23.5180   -0.6570   38.9980 C.2   208  VAL208      0.2260
     51  O         23.2770   -1.4290   39.8610 O.2   208  VAL208     -0.2867
     52  CB        22.2620   -1.3130   36.8740 C.3   208  VAL208      0.0252
     53  CG1       21.4340   -2.3360   37.5660 C.3   208  VAL208      0.0019
     54  CG2       21.5660    0.0430   36.7340 C.3   208  VAL208      0.0019
     55  N         14.3590    0.7680   34.0430 N.3   218  TYR218     -0.1241
     56  CA        15.5630    0.1290   33.5500 C.3   218  TYR218      0.1605
     57  C         16.1240   -0.9710   34.4110 C.2   218  TYR218      0.2264
     58  O         17.2450   -1.4750   34.0890 O.2   218  TYR218     -0.2867
     59  CB        16.6930    1.0980   33.2490 C.3   218  TYR218      0.0534
     60  CG        17.1530    1.9430   34.4210 C.ar  218  TYR218     -0.0201
     61  CD1       17.9650    1.4310   35.4210 C.ar  218  TYR218     -0.0009
     62  CD2       16.7150    3.2640   34.5660 C.ar  218  TYR218     -0.0009
     63  CE1       18.4070    2.2270   36.4460 C.ar  218  TYR218      0.0417
     64  CE2       17.1050    4.0640   35.6180 C.ar  218  TYR218      0.0417
     65  CZ        17.9510    3.5550   36.5510 C.ar  218  TYR218      0.1957
     66  OH        18.3380    4.3430   37.6270 O.3   218  TYR218     -0.2866
     67  N         21.6350    7.0830   19.4900 N.3   286  ASN286     -0.1240
     68  CA        21.3030    7.8300   20.7460 C.3   286  ASN286      0.1653
     69  C         21.0330    9.2780   20.3670 C.2   286  ASN286      0.2266
     70  O         20.1560    9.8770   20.9560 O.2   286  ASN286     -0.2867
     71  CB        22.3310    7.6920   21.8770 C.3   286  ASN286      0.1155
     72  CG        22.4060    6.2560   22.4430 C.2   286  ASN286      0.2627
     73  OD1       21.6010    5.3680   22.1070 O.2   286  ASN286     -0.2716
     74  ND2       23.3690    6.0330   23.3170 N.am  286  ASN286     -0.0877
     75  N         17.4200    9.0710   18.7880 N.3   289  ALA289     -0.1231
     76  CA        16.5150    8.4050   19.7310 C.3   289  ALA289      0.1694
     77  C         16.2480    9.2680   20.9650 C.2   289  ALA289      0.2591
     78  O         15.1710    9.2980   21.5140 O.2   289  ALA289     -0.2718
     79  CB        17.1110    7.0620   20.1300 C.3   289  ALA289      0.0304
     80  N         17.2070   10.0900   21.3940 N.am  290  LEU290     -0.1980
     81  CA        16.9820   10.9880   22.5280 C.3   290  LEU290      0.1596
     82  C         16.5320   12.3780   22.1920 C.2   290  LEU290      0.2287
     83  O         16.3290   13.1890   23.1010 O.2   290  LEU290     -0.2864
     84  CB        18.2840   11.0780   23.2670 C.3   290  LEU290      0.0297
     85  CG        18.6850    9.7560   23.8650 C.3   290  LEU290      0.0022
     86  CD1       20.0290    9.9180   24.5900 C.3   290  LEU290      0.0001
     87  CD2       17.6280    9.2460   24.8640 C.3   290  LEU290      0.0001
     88  N         12.4300   -2.6800   21.0340 N.3   312  LYS312     -0.1231
     89  CA        12.9440   -1.8440   22.0990 C.3   312  LYS312      0.1693
     90  C         14.4580   -2.1200   22.2780 C.2   312  LYS312      0.2593
     91  O         14.8740   -3.2320   22.4070 O.2   312  LYS312     -0.2718
     92  CB        12.2120   -2.0510   23.4230 C.3   312  LYS312      0.0285
     93  CG        12.5970   -1.0760   24.4780 C.3   312  LYS312      0.0035
     94  CD        12.0330    0.3410   24.2370 C.3   312  LYS312      0.0206
     95  CE        12.5560    1.3700   25.2460 C.3   312  LYS312      0.1093
     96  NZ        13.8710    1.8900   24.9250 N.3   312  LYS312     -0.1314
     97  N         15.2070   -1.0300   22.3640 N.am  313  THR313     -0.1939
     98  CA        16.6280   -1.0240   22.8080 C.3   313  THR313      0.2028
     99  C         16.7750   -0.7530   24.3040 C.2   313  THR313      0.2643
    100  O         15.9770   -0.1490   24.9900 O.2   313  THR313     -0.2714
    101  CB        17.4370    0.0730   22.0700 C.3   313  THR313      0.1808
    102  OG1       16.7380    1.3020   22.2610 O.3   313  THR313     -0.2208
    103  CG2       17.4780   -0.1450   20.6020 C.3   313  THR313      0.0379
    104  N         17.8740   -1.2770   24.8720 N.am  314  GLY314     -0.1939
    105  CA        18.1560   -1.0230   26.2330 C.3   314  GLY314      0.2014
    106  C         19.6390   -1.0260   26.5320 C.2   314  GLY314      0.2639
    107  O         20.3790   -1.7240   25.8940 O.2   314  GLY314     -0.2714
    108  N         20.0300   -0.1860   27.4420 N.am  315  ALA315     -0.1963
    109  CA        21.4280   -0.2010   27.9420 C.3   315  ALA315      0.1728
    110  C         21.5310    0.1240   29.3860 C.2   315  ALA315      0.2617
    111  O         20.7640    0.8860   29.8950 O.2   315  ALA315     -0.2715
    112  CB        22.3270    0.7230   27.1390 C.3   315  ALA315      0.0334
    113  N         22.5480   -0.4300   30.0430 N.am  316  THR316     -0.1937
    114  CA        22.9860    0.0560   31.2850 C.3   316  THR316      0.2028
    115  C         24.5020    0.3350   31.0850 C.2   316  THR316      0.2642
    116  O         25.0460    0.2650   30.0210 O.2   316  THR316     -0.2714
    117  CB        22.7620   -0.8790   32.4700 C.3   316  THR316      0.1808
    118  OG1       23.6130   -2.0480   32.2680 O.3   316  THR316     -0.2208
    119  CG2       21.3120   -1.2480   32.7360 C.3   316  THR316      0.0379
    120  N         25.1380    0.7840   32.1440 N.am  317  GLY317     -0.1954
    121  CA        26.5310    1.1210   31.9180 C.3   317  GLY317      0.1869
    122  C         27.3390   -0.0340   31.3560 C.2   317  GLY317      0.2309
    123  O         28.2030    0.1500   30.4830 O.2   317  GLY317     -0.2863
    124  N         27.6810   -2.3960   26.7030 N.3   340  ASN340     -0.1240
    125  CA        26.8410   -1.4220   26.0070 C.3   340  ASN340      0.1653
    126  C         27.5100   -0.9580   24.7350 C.2   340  ASN340      0.2266
    127  O         28.4180   -0.1270   24.7840 O.2   340  ASN340     -0.2867
    128  CB        26.5700   -0.2550   26.8800 C.3   340  ASN340      0.1155
    129  CG        25.8510    0.8510   26.1700 C.2   340  ASN340      0.2627
    130  OD1       25.2500    0.6520   25.1000 O.2   340  ASN340     -0.2716
    131  ND2       25.9730    2.0190   26.7090 N.am  340  ASN340     -0.0877
    132  N         23.6880    1.0660   19.5490 N.3   343  ASN343     -0.1240
    133  CA        22.4350    0.6150   19.0450 C.3   343  ASN343      0.1653
    134  C         22.3480    0.3340   17.5690 C.2   343  ASN343      0.2266
    135  O         21.7540   -0.6920   17.1750 O.2   343  ASN343     -0.2867
    136  CB        21.2980    1.6530   19.4180 C.3   343  ASN343      0.1155
    137  CG        20.8300    1.5210   20.8790 C.2   343  ASN343      0.2627
    138  OD1       21.0380    0.5080   21.5300 O.2   343  ASN343     -0.2716
    139  ND2       20.1650    2.5640   21.3710 N.am  343  ASN343     -0.0877
@<TRIPOS>BOND
     1   135   134    2
     2   134   133    1
     3    75    76    1
     4   133   136    1
     5   133   132    1
     6   136   137    1
     7    67    68    1
     8    76    79    1
     9    76    77    1
    10    69    68    1
    11    69    70    2
    12   103   101    1
    13    68    71    1
    14   137   139   am
    15   137   138    2
    16    77    80   am
    17    77    78    2
    18    88    89    1
    19    80    81    1
    20    71    72    1
    21   101   102    1
    22   101    98    1
    23    89    90    1
    24    89    92    1
    25    73    72    2
    26    82    81    1
    27    82    83    2
    28    90    97   am
    29    90    91    2
    30    97    98    1
    31    72    74   am
    32    81    84    1
    33    98    99    1
    34    84    85    1
    35    92    93    1
    36    85    86    1
    37    85    87    1
    38    94    93    1
    39    94    95    1
    40    99   104   am
    41    99   100    2
    42    32    33    1
    43    32    29    1
    44   126   127    2
    45   126   125    1
    46    28    29    1
    47    35    33   ar
    48    35    37   ar
    49   104   105    1
    50    96    95    1
    51   130   129    2
    52    33    34   ar
    53    37    38   ar
    54    29    30    1
    55   107   106    2
    56   125   124    1
    57   125   128    1
    58    34    36   ar
    59   129   131   am
    60   129   128    1
    61   105   106    1
    62    38    36   ar
    63    38    39    1
    64   106   108   am
    65    30    31    2
    66   112   109    1
    67   108   109    1
    68   109   110    1
    69     8     7    2
    70     9    10    1
    71     9     6    1
    72     7     6    1
    73    17    16    1
    74    18    16    1
    75     6     5    1
    76    16    15    1
    77   110   111    2
    78   110   113   am
    79     5     3   am
    80    15    12    1
    81   116   115    2
    82   113   114    1
    83    12    11    1
    84    12    13    1
    85     3     2    1
    86     3     4    2
    87   123   122    2
    88     2     1    1
    89    46    45    2
    90    40    41    1
    91   115   114    1
    92   115   120   am
    93   114   117    1
    94   122   121    1
    95    13    14    2
    96    13    19   am
    97    45    47   am
    98    45    44    1
    99    27    25   am
   100   121   120    1
   101    41    44    1
   102    41    42    1
   103   118   117    1
   104   117   119    1
   105    19    20    1
   106    25    24    1
   107    25    26    2
   108    24    23    1
   109    42    43    2
   110    59    56    1
   111    59    60    1
   112    56    55    1
   113    56    57    1
   114    20    23    1
   115    20    21    1
   116    58    57    2
   117    60    62   ar
   118    60    61   ar
   119    62    64   ar
   120    22    21    2
   121    61    63   ar
   122    64    65   ar
   123    63    65   ar
   124    65    66    1
   125    54    52    1
   126    52    49    1
   127    52    53    1
   128    48    49    1
   129    49    50    1
   130    50    51    2
