@<TRIPOS>MOLECULE
tmp/4jxnA00.pdb
 92 85 0 0 0
SMALL
GASTEIGER

@<TRIPOS>ATOM
      1  N         -8.0940  -30.5540   29.4060 N.3    74  ILE74      -0.1245
      2  CA        -6.8600  -30.0750   28.7880 C.3    74  ILE74       0.1561
      3  C         -7.0680  -28.8980   27.8260 C.2    74  ILE74       0.2260
      4  O         -6.2380  -27.9750   27.7710 O.2    74  ILE74      -0.2867
      5  CB        -6.1410  -31.2220   28.0560 C.3    74  ILE74       0.0252
      6  CG1       -5.5700  -32.2020   29.0840 C.3    74  ILE74       0.0019
      7  CG2       -5.0360  -30.6820   27.1560 C.3    74  ILE74       0.0019
      8  CD1       -5.0730  -33.5030   28.5000 C.3    74  ILE74       0.0001
      9  N         -5.6260  -25.0010   28.7360 N.3    78  THR78      -0.1218
     10  CA        -4.7930  -24.3620   27.7150 C.3    78  THR78       0.1862
     11  C         -5.3470  -22.9860   27.2970 C.2    78  THR78       0.2287
     12  O         -4.5760  -22.0480   27.0460 O.2    78  THR78      -0.2866
     13  CB        -4.6290  -25.2910   26.4760 C.3    78  THR78       0.1770
     14  OG1       -3.6700  -26.3160   26.7740 O.3    78  THR78      -0.2211
     15  CG2       -4.1580  -24.5220   25.2410 C.3    78  THR78       0.0375
     16  N         -5.6980  -29.3080   34.6570 N.3    96  PHE96      -0.1241
     17  CA        -4.6300  -30.2280   34.2680 C.3    96  PHE96       0.1605
     18  C         -4.5080  -31.3530   35.2910 C.2    96  PHE96       0.2264
     19  O         -4.5490  -32.5260   34.9350 O.2    96  PHE96      -0.2867
     20  CB        -3.2610  -29.5360   34.1810 C.3    96  PHE96       0.0534
     21  CG        -3.0720  -28.6350   32.9870 C.ar   96  PHE96      -0.0203
     22  CD1       -3.6450  -28.9180   31.7470 C.ar   96  PHE96      -0.0042
     23  CD2       -2.2370  -27.5160   33.0930 C.ar   96  PHE96      -0.0042
     24  CE1       -3.4250  -28.0790   30.6570 C.ar   96  PHE96      -0.0003
     25  CE2       -2.0160  -26.6790   32.0070 C.ar   96  PHE96      -0.0003
     26  CZ        -2.6120  -26.9600   30.7870 C.ar   96  PHE96      -0.0000
     27  N         -7.4080  -33.5270   34.9560 N.3    99  SER99      -0.1202
     28  CA        -7.3170  -34.3140   33.7230 C.3    99  SER99       0.2020
     29  C         -6.4270  -35.5540   33.9150 C.2    99  SER99       0.2618
     30  O         -6.6950  -36.6180   33.3770 O.2    99  SER99      -0.2717
     31  CB        -6.8040  -33.4420   32.5710 C.3    99  SER99       0.2103
     32  OG        -5.4170  -33.1700   32.6740 O.3    99  SER99      -0.2182
     33  N         -5.3890  -35.3930   34.7260 N.am  100  PHE100     -0.1975
     34  CA        -4.3610  -36.4020   34.9390 C.3   100  PHE100      0.1639
     35  C         -4.8990  -37.5410   35.8080 C.2   100  PHE100      0.2290
     36  O         -4.6820  -38.7340   35.5270 O.2   100  PHE100     -0.2864
     37  CB        -3.1420  -35.6840   35.5580 C.3   100  PHE100      0.0560
     38  CG        -1.9800  -36.5710   35.8860 C.ar  100  PHE100     -0.0200
     39  CD1       -1.7280  -37.7390   35.1800 C.ar  100  PHE100     -0.0042
     40  CD2       -1.1040  -36.1990   36.8980 C.ar  100  PHE100     -0.0042
     41  CE1       -0.6420  -38.5320   35.5010 C.ar  100  PHE100     -0.0003
     42  CE2       -0.0120  -36.9840   37.2160 C.ar  100  PHE100     -0.0003
     43  CZ         0.2170  -38.1540   36.5170 C.ar  100  PHE100     -0.0000
     44  N         -7.1960  -39.8050   33.5430 N.3   103  MET103     -0.1245
     45  CA        -6.4990  -40.7760   32.6740 C.3   103  MET103      0.1570
     46  C         -5.9010  -41.9170   33.4960 C.2   103  MET103      0.2261
     47  O         -5.9070  -43.0730   33.0640 O.2   103  MET103     -0.2867
     48  CB        -5.3750  -40.1510   31.8280 C.3   103  MET103      0.0387
     49  CG        -5.2770  -38.6360   31.8060 C.3   103  MET103      0.0595
     50  SD        -3.8770  -38.0840   30.8010 S.3   103  MET103     -0.1393
     51  CE        -3.7040  -36.3790   31.3450 C.3   103  MET103      0.0692
     52  N         -1.2880  -39.1410   25.7420 N.3   115  LEU115     -0.1231
     53  CA        -1.6580  -37.8260   26.2580 C.3   115  LEU115      0.1693
     54  C         -0.4960  -37.0800   26.9250 C.2   115  LEU115      0.2591
     55  O         -0.5140  -35.8400   26.9880 O.2   115  LEU115     -0.2718
     56  CB        -2.8430  -37.9470   27.2320 C.3   115  LEU115      0.0284
     57  CG        -4.1950  -38.1790   26.5360 C.3   115  LEU115      0.0019
     58  CD1       -5.2340  -38.6380   27.5450 C.3   115  LEU115      0.0001
     59  CD2       -4.6750  -36.9380   25.7810 C.3   115  LEU115      0.0001
     60  N          0.4950  -37.8150   27.4370 N.am  116  ALA116     -0.1980
     61  CA         1.6950  -37.1730   28.0020 C.3   116  ALA116      0.1597
     62  C          2.5190  -36.5640   26.8850 C.2   116  ALA116      0.2287
     63  O          2.9430  -35.4200   26.9850 O.2   116  ALA116     -0.2864
     64  CB         2.5360  -38.1500   28.8100 C.3   116  ALA116      0.0319
     65  N          0.5810  -33.4960   25.3640 N.3   119  SER119     -0.1217
     66  CA         0.7190  -32.3450   26.2510 C.3   119  SER119      0.1889
     67  C          2.0740  -31.7020   26.0520 C.2   119  SER119      0.2288
     68  O          2.2150  -30.4860   26.1480 O.2   119  SER119     -0.2866
     69  CB         0.6150  -32.7870   27.7040 C.3   119  SER119      0.2089
     70  OG         1.7890  -33.5000   28.0760 O.3   119  SER119     -0.2183
     71  N          1.7930  -29.8510   22.7170 N.3   122  ILE122     -0.1231
     72  CA         0.9610  -28.6580   22.8550 C.3   122  ILE122      0.1692
     73  C          1.7550  -27.5190   23.4770 C.2   122  ILE122      0.2591
     74  O          1.8660  -26.4280   22.8940 O.2   122  ILE122     -0.2718
     75  CB        -0.3000  -28.9330   23.6930 C.3   122  ILE122      0.0266
     76  CG1       -1.2310  -29.8840   22.9340 C.3   122  ILE122      0.0019
     77  CG2       -1.0330  -27.6330   24.0230 C.3   122  ILE122      0.0020
     78  CD1       -2.1050  -30.7230   23.8370 C.3   122  ILE122      0.0001
     79  N          2.3150  -27.7850   24.6540 N.am  123  ALA123     -0.1980
     80  CA         3.0910  -26.7800   25.3840 C.3   123  ALA123      0.1597
     81  C          4.3030  -26.2950   24.5760 C.2   123  ALA123      0.2287
     82  O          4.6750  -25.1290   24.6480 O.2   123  ALA123     -0.2864
     83  CB         3.5290  -27.3320   26.7300 C.3   123  ALA123      0.0319
     84  N          3.0160  -23.8040   21.9030 N.3   126  GLU126     -0.1245
     85  CA         2.7180  -22.5290   22.5770 C.3   126  GLU126      0.1567
     86  C          3.9580  -21.6260   22.6890 C.2   126  GLU126      0.2260
     87  O          3.8780  -20.4160   22.4750 O.2   126  GLU126     -0.2867
     88  CB         2.1110  -22.7710   23.9750 C.3   126  GLU126      0.0388
     89  CG         0.6690  -23.2870   23.9970 C.3   126  GLU126      0.1160
     90  CD         0.1230  -23.5130   25.4130 C.2   126  GLU126      0.3649
     91  OE1        0.8050  -24.1440   26.2510 O.co2 126  GLU126     -0.2457
     92  OE2       -1.0090  -23.0710   25.7000 O.co2 126  GLU126     -0.2457
@<TRIPOS>BOND
     1    84    85    1
     2    87    86    2
     3    85    86    1
     4    85    88    1
     5    71    72    1
     6    72    73    1
     7    72    75    1
     8    74    73    2
     9    76    75    1
    10    76    78    1
    11    73    79   am
    12    75    77    1
    13    88    89    1
    14    89    90    1
    15    81    82    2
    16    81    80    1
    17    79    80    1
    18    15    13    1
    19    65    66    1
    20    80    83    1
    21    90    92   ar
    22    90    91   ar
    23    52    53    1
    24    59    57    1
    25    67    68    2
    26    67    66    1
    27    66    69    1
    28    53    54    1
    29    53    56    1
    30    13    14    1
    31    13    10    1
    32    57    56    1
    33    57    58    1
    34    62    63    2
    35    62    61    1
    36    54    55    2
    37    54    60   am
    38    12    11    2
    39     7     5    1
    40    11    10    1
    41    60    61    1
    42    69    70    1
    43    10     9    1
    44     4     3    2
    45     3     2    1
    46    61    64    1
    47     5     2    1
    48     5     6    1
    49     8     6    1
    50     2     1    1
    51    24    26   ar
    52    24    22   ar
    53    26    25   ar
    54    50    51    1
    55    50    49    1
    56    22    21   ar
    57    49    48    1
    58    48    45    1
    59    25    23   ar
    60    31    32    1
    61    31    28    1
    62    45    46    1
    63    45    44    1
    64    21    23   ar
    65    21    20    1
    66    47    46    2
    67    30    29    2
    68    28    29    1
    69    28    27    1
    70    29    33   am
    71    20    17    1
    72    17    16    1
    73    17    18    1
    74    33    34    1
    75    19    18    2
    76    34    37    1
    77    34    35    1
    78    39    41   ar
    79    39    38   ar
    80    41    43   ar
    81    36    35    2
    82    37    38    1
    83    38    40   ar
    84    43    42   ar
    85    40    42   ar
