@<TRIPOS>MOLECULE
tmp/4jxqB01.pdb
 76 72 0 0 0
SMALL
GASTEIGER

@<TRIPOS>ATOM
      1  N         49.2770   21.9520   63.8430 N.3    88  LEU88      -0.1245
      2  CA        50.3700   21.2770   64.5440 C.3    88  LEU88       0.1561
      3  C         51.6050   22.1600   64.5040 C.2    88  LEU88       0.2260
      4  O         51.9490   22.6920   63.4380 O.2    88  LEU88      -0.2867
      5  CB        50.7270   19.9900   63.8210 C.3    88  LEU88       0.0270
      6  CG        49.6140   18.9540   63.7160 C.3    88  LEU88       0.0019
      7  CD1       50.1360   17.7450   62.9550 C.3    88  LEU88       0.0001
      8  CD2       49.1200   18.5460   65.0780 C.3    88  LEU88       0.0001
      9  N         55.4170   18.6030   66.1110 N.3    92  ALA92      -0.1231
     10  CA        54.3620   17.6290   66.3500 C.3    92  ALA92       0.1694
     11  C         54.0630   16.8840   65.0590 C.2    92  ALA92       0.2592
     12  O         53.1960   16.0080   65.0460 O.2    92  ALA92      -0.2718
     13  CB        53.1060   18.3240   66.8590 C.3    92  ALA92       0.0304
     14  N         54.7380   17.2310   63.9600 N.am   93  ARG93      -0.1966
     15  CA        54.3940   16.6770   62.6520 C.3    93  ARG93       0.1729
     16  C         55.0690   15.3250   62.4190 C.2    93  ARG93       0.2617
     17  O         56.0730   15.0190   63.0290 O.2    93  ARG93      -0.2715
     18  CB        54.7160   17.6720   61.5460 C.3    93  ARG93       0.0348
     19  CG        53.8520   18.9260   61.6680 C.3    93  ARG93       0.0492
     20  CD        54.3280   20.0830   60.7970 C.3    93  ARG93       0.2205
     21  NE        53.8130   21.3720   61.2990 N.pl3  93  ARG93      -0.0865
     22  CZ        54.2180   22.5620   60.8650 C.cat  93  ARG93       0.5346
     23  NH1       55.1620   22.6580   59.9310 N.pl3  93  ARG93       0.1354
     24  NH2       53.7140   23.6460   61.3960 N.pl3  93  ARG93       0.1354
     25  N         54.4490   14.4790   61.6030 N.am   94  GLY94      -0.1940
     26  CA        54.9860   13.1550   61.3360 C.3    94  GLY94       0.2014
     27  C         54.7580   12.1340   62.4170 C.2    94  GLY94       0.2639
     28  O         55.4000   11.0830   62.3890 O.2    94  GLY94      -0.2714
     29  N         53.8370   12.3970   63.3430 N.am   95  LYS95      -0.1963
     30  CA        53.6750   11.6070   64.5600 C.3    95  LYS95       0.1728
     31  C         52.2450   11.0490   64.7590 C.2    95  LYS95       0.2617
     32  O         51.9210   10.5660   65.8500 O.2    95  LYS95      -0.2715
     33  CB        54.0350   12.4590   65.7980 C.3    95  LYS95       0.0311
     34  CG        55.5210   12.8210   65.9140 C.3    95  LYS95       0.0038
     35  CD        55.8480   13.6120   67.1880 C.3    95  LYS95       0.0206
     36  CE        57.3430   13.8900   67.3600 C.3    95  LYS95       0.1093
     37  NZ        57.9940   14.2760   66.0810 N.3    95  LYS95      -0.1314
     38  N         51.3890   11.1910   63.7500 N.am   96  GLY96      -0.1940
     39  CA        49.9880   10.7700   63.8680 C.3    96  GLY96       0.2014
     40  C         49.0920   11.6900   64.7250 C.2    96  GLY96       0.2639
     41  O         47.9980   11.3000   65.1240 O.2    96  GLY96      -0.2714
     42  N         49.5970   12.8470   65.0990 N.am   97  ILE97      -0.1963
     43  CA        48.8340   13.7050   66.0240 C.3    97  ILE97       0.1727
     44  C         47.6670   14.3760   65.2850 C.2    97  ILE97       0.2617
     45  O         46.6100   14.6650   65.8320 O.2    97  ILE97      -0.2715
     46  CB        49.7590   14.7250   66.6990 C.3    97  ILE97       0.0290
     47  CG1       50.7580   13.9790   67.6060 C.3    97  ILE97       0.0022
     48  CG2       48.9850   15.7420   67.5120 C.3    97  ILE97       0.0023
     49  CD1       51.8530   14.8180   68.1660 C.3    97  ILE97       0.0001
     50  N         47.9190   14.7230   64.0400 N.am   98  GLY98      -0.1940
     51  CA        46.8760   15.2570   63.2020 C.3    98  GLY98       0.2014
     52  C         45.6400   14.3430   63.1030 C.2    98  GLY98       0.2638
     53  O         44.4890   14.7740   63.2190 O.2    98  GLY98      -0.2714
     54  N         45.9410   13.0740   62.8860 N.am   99  LYS99      -0.1977
     55  CA        44.9110   12.0680   62.8410 C.3    99  LYS99       0.1596
     56  C         44.2310   11.9420   64.1870 C.2    99  LYS99       0.2287
     57  O         42.9810   11.7970   64.2280 O.2    99  LYS99      -0.2864
     58  CB        45.5800   10.7230   62.4130 C.3    99  LYS99       0.0298
     59  CG        44.5020    9.7370   62.1140 C.3    99  LYS99       0.0038
     60  CD        45.1120    8.4230   61.3910 C.3    99  LYS99       0.0206
     61  CE        43.9960    7.5470   60.8260 C.3    99  LYS99       0.1093
     62  NZ        44.4980    6.1800   60.9420 N.3    99  LYS99      -0.1314
     63  N         49.3650   16.6210   52.3380 N.3   126  SER126     -0.1217
     64  CA        49.3210   15.8210   53.5760 C.3   126  SER126      0.1889
     65  C         48.0550   16.0650   54.3670 C.2   126  SER126      0.2288
     66  O         47.5520   15.1730   55.0420 O.2   126  SER126     -0.2866
     67  CB        50.5420   16.0450   54.4500 C.3   126  SER126      0.2089
     68  OG        50.7180   17.4250   54.7630 O.3   126  SER126     -0.2183
     69  N         45.3490   13.1740   55.3020 N.3   130  LEU130     -0.1245
     70  CA        44.8830   13.0000   56.7150 C.3   130  LEU130      0.1561
     71  C         43.3380   12.8460   56.7680 C.2   130  LEU130      0.2260
     72  O         42.7090   11.9970   57.4200 O.2   130  LEU130     -0.2867
     73  CB        45.3100   14.2560   57.4990 C.3   130  LEU130      0.0270
     74  CG        44.7440   14.3780   58.8910 C.3   130  LEU130      0.0019
     75  CD1       45.0720   13.1940   59.7500 C.3   130  LEU130      0.0001
     76  CD2       45.2110   15.6490   59.5490 C.3   130  LEU130      0.0001
@<TRIPOS>BOND
     1    63    64    1
     2    64    65    1
     3    64    67    1
     4    65    66    2
     5    67    68    1
     6    69    70    1
     7    70    71    1
     8    70    73    1
     9    71    72    2
    10    73    74    1
    11    74    76    1
    12    74    75    1
    13    23    22    1
    14    20    21    1
    15    20    19    1
    16    61    62    1
    17    61    60    1
    18    22    21    2
    19    22    24    1
    20    26    25    1
    21    26    27    1
    22    60    59    1
    23    18    19    1
    24    18    15    1
    25    25    16   am
    26    59    58    1
    27    28    27    2
    28    58    55    1
    29    27    29   am
    30    16    15    1
    31    16    17    2
    32    15    14    1
    33    55    54    1
    34    55    56    1
    35    54    52   am
    36     7     6    1
    37    52    51    1
    38    52    53    2
    39    51    50    1
    40    29    30    1
    41     4     3    2
    42     6     5    1
    43     6     8    1
    44    38    39    1
    45    38    31   am
    46     5     2    1
    47     1     2    1
    48    39    40    1
    49    14    11   am
    50    50    44   am
    51    56    57    2
    52     3     2    1
    53    30    31    1
    54    30    33    1
    55    40    42   am
    56    40    41    2
    57    31    32    2
    58    12    11    2
    59    11    10    1
    60    42    43    1
    61    44    45    2
    62    44    43    1
    63    33    34    1
    64    34    35    1
    65    43    46    1
    66    37    36    1
    67     9    10    1
    68    10    13    1
    69    46    48    1
    70    46    47    1
    71    35    36    1
    72    47    49    1
