@<TRIPOS>MOLECULE
tmp/4jxqA00.pdb
 86 80 0 0 0
SMALL
GASTEIGER

@<TRIPOS>ATOM
      1  N         28.9480   -3.0460   80.8730 N.3    86  ILE86      -0.1245
      2  CA        29.9990   -2.5050   81.7500 C.3    86  ILE86       0.1561
      3  C         31.3480   -2.8680   81.2150 C.2    86  ILE86       0.2260
      4  O         31.6070   -4.0390   80.9290 O.2    86  ILE86      -0.2867
      5  CB        29.8570   -3.1130   83.1640 C.3    86  ILE86       0.0252
      6  CG1       28.4910   -2.9410   83.7250 C.3    86  ILE86       0.0019
      7  CG2       30.9460   -2.5280   84.0940 C.3    86  ILE86       0.0019
      8  CD1       28.2910   -3.7190   84.9670 C.3    86  ILE86       0.0001
      9  N         35.4930   -2.0910   82.0640 N.3    88  LEU88      -0.1245
     10  CA        36.5730   -1.5310   82.8820 C.3    88  LEU88       0.1561
     11  C         37.8860   -1.6680   82.1720 C.2    88  LEU88       0.2260
     12  O         38.2030   -2.7700   81.6920 O.2    88  LEU88      -0.2867
     13  CB        36.6700   -2.3040   84.1890 C.3    88  LEU88       0.0270
     14  CG        35.5090   -2.1610   85.0890 C.3    88  LEU88       0.0019
     15  CD1       35.6950   -3.1020   86.2720 C.3    88  LEU88       0.0001
     16  CD2       35.2840   -0.7410   85.5480 C.3    88  LEU88       0.0001
     17  N         40.2290   -2.7640   87.3550 N.3    93  ARG93      -0.1231
     18  CA        39.6270   -3.9770   87.8870 C.3    93  ARG93       0.1694
     19  C         40.1330   -4.2550   89.3030 C.2    93  ARG93       0.2592
     20  O         41.2570   -3.9120   89.6550 O.2    93  ARG93      -0.2718
     21  CB        39.9510   -5.1110   86.9080 C.3    93  ARG93       0.0321
     22  CG        39.3450   -4.9060   85.5230 C.3    93  ARG93       0.0489
     23  CD        39.7670   -5.8800   84.4400 C.3    93  ARG93       0.2205
     24  NE        39.4280   -5.3140   83.0920 N.pl3  93  ARG93      -0.0865
     25  CZ        39.9190   -5.7390   81.9310 C.cat  93  ARG93       0.5346
     26  NH1       40.7840   -6.7670   81.8800 N.pl3  93  ARG93       0.1354
     27  NH2       39.5880   -5.1480   80.8160 N.pl3  93  ARG93       0.1354
     28  N         39.3130   -4.9000   90.1040 N.am   94  GLY94      -0.1957
     29  CA        39.6900   -5.3350   91.4440 C.3    94  GLY94       0.1869
     30  C         39.6230   -4.2280   92.4810 C.2    94  GLY94       0.2309
     31  O         40.3220   -4.2670   93.5140 O.2    94  GLY94      -0.2863
     32  N         36.3490   -2.5760   93.1260 N.3    96  GLY96      -0.1210
     33  CA        34.9500   -2.3010   93.4080 C.3    96  GLY96       0.1956
     34  C         34.2460   -1.4100   92.3900 C.2    96  GLY96       0.2612
     35  O         33.1120   -0.9550   92.6280 O.2    96  GLY96      -0.2717
     36  N         34.9410   -1.0680   91.3020 N.am   97  ILE97      -0.1965
     37  CA        34.3790   -0.0930   90.3560 C.3    97  ILE97       0.1727
     38  C         33.2760   -0.7190   89.5220 C.2    97  ILE97       0.2617
     39  O         32.2710   -0.0440   89.2300 O.2    97  ILE97      -0.2715
     40  CB        35.4640    0.5200   89.5140 C.3    97  ILE97       0.0290
     41  CG1       36.4770    1.2350   90.4000 C.3    97  ILE97       0.0022
     42  CG2       34.8900    1.4560   88.4610 C.3    97  ILE97       0.0023
     43  CD1       37.7310    1.6830   89.6890 C.3    97  ILE97       0.0001
     44  N         33.4180   -1.9940   89.1390 N.am   98  GLY98      -0.1940
     45  CA        32.3150   -2.6790   88.4600 C.3    98  GLY98       0.2014
     46  C         31.0370   -2.6360   89.2970 C.2    98  GLY98       0.2638
     47  O         29.9490   -2.3930   88.7810 O.2    98  GLY98      -0.2714
     48  N         31.1920   -2.9460   90.5840 N.am   99  LYS99      -0.1977
     49  CA        30.0380   -2.9180   91.4790 C.3    99  LYS99       0.1596
     50  C         29.3360   -1.5230   91.5420 C.2    99  LYS99       0.2287
     51  O         28.1270   -1.3560   91.5580 O.2    99  LYS99      -0.2864
     52  CB        30.4030   -3.3820   92.8900 C.3    99  LYS99       0.0298
     53  CG        30.2830   -4.8600   93.1790 C.3    99  LYS99       0.0038
     54  CD        30.4090   -5.0700   94.7150 C.3    99  LYS99       0.0206
     55  CE        29.0570   -4.9610   95.4360 C.3    99  LYS99       0.1093
     56  NZ        29.0040   -5.6450   96.7670 N.3    99  LYS99      -0.1314
     57  N         31.7470  -15.4340   81.6170 N.3   124  HIS124     -0.1241
     58  CA        32.9050  -15.2820   82.4580 C.3   124  HIS124      0.1621
     59  C         32.4710  -15.2920   83.9200 C.2   124  HIS124      0.2264
     60  O         31.6450  -14.5000   84.3350 O.2   124  HIS124     -0.2867
     61  CB        33.6590  -13.9970   82.1060 C.3   124  HIS124      0.0745
     62  CG        35.0270  -13.9390   82.6760 C.ar  124  HIS124      0.0817
     63  ND1       35.3040  -13.9450   84.0320 N.ar  124  HIS124     -0.2268
     64  CD2       36.2180  -13.8750   82.0560 C.ar  124  HIS124      0.1154
     65  CE1       36.5990  -13.8810   84.2310 C.ar  124  HIS124      0.1986
     66  NE2       37.1880  -13.8520   83.0380 N.ar  124  HIS124     -0.2212
     67  N         33.7660  -14.0890   86.6180 N.3   126  SER126     -0.1202
     68  CA        33.9160  -12.8480   87.3670 C.3   126  SER126      0.2020
     69  C         32.7570  -11.8880   87.0740 C.2   126  SER126      0.2619
     70  O         32.2780  -11.1920   87.9630 O.2   126  SER126     -0.2717
     71  CB        35.2390  -12.1630   87.0820 C.3   126  SER126      0.2103
     72  OG        36.2680  -13.0280   87.5960 O.3   126  SER126     -0.2182
     73  N         32.2800  -11.8680   85.8390 N.am  127  SER127     -0.1951
     74  CA        31.1440  -11.0410   85.4650 C.3   127  SER127      0.1924
     75  C         29.8320  -11.5960   86.0270 C.2   127  SER127      0.2314
     76  O         28.9580  -10.8630   86.5300 O.2   127  SER127     -0.2863
     77  CB        31.0620  -10.8780   83.9550 C.3   127  SER127      0.2116
     78  OG        29.9190  -10.1070   83.6350 O.3   127  SER127     -0.2180
     79  N         29.8530  -10.6180   89.6920 N.3   130  LEU130     -0.1245
     80  CA        29.5340   -9.1900   89.8560 C.3   130  LEU130      0.1561
     81  C         28.0440   -8.9480   89.8240 C.2   130  LEU130      0.2260
     82  O         27.4560   -8.2520   90.6600 O.2   130  LEU130     -0.2867
     83  CB        30.2150   -8.3950   88.7770 C.3   130  LEU130      0.0270
     84  CG        29.7410   -6.9300   88.6210 C.3   130  LEU130      0.0019
     85  CD1       30.0230   -6.1180   89.8410 C.3   130  LEU130      0.0001
     86  CD2       30.3990   -6.2880   87.4170 C.3   130  LEU130      0.0001
@<TRIPOS>BOND
     1    27    25    1
     2     1     2    1
     3     4     3    2
     4     3     2    1
     5    57    58    1
     6    12    11    2
     7     2     5    1
     8    26    25    1
     9    25    24    2
    10    64    62   ar
    11    64    66   ar
    12     9    10    1
    13    61    58    1
    14    61    62    1
    15    11    10    1
    16    58    59    1
    17    62    63   ar
    18    10    13    1
    19    66    65   ar
    20    24    23    1
    21     5     6    1
    22     5     7    1
    23    78    77    1
    24     6     8    1
    25    59    60    2
    26    77    74    1
    27    63    65   ar
    28    13    14    1
    29    23    22    1
    30    14    16    1
    31    14    15    1
    32    74    73    1
    33    74    75    1
    34    22    21    1
    35    73    69   am
    36    75    76    2
    37    67    68    1
    38    21    18    1
    39    69    68    1
    40    69    70    2
    41    71    68    1
    42    71    72    1
    43    17    18    1
    44    86    84    1
    45    18    19    1
    46    45    44    1
    47    45    46    1
    48    42    40    1
    49    84    83    1
    50    84    85    1
    51    83    80    1
    52    47    46    2
    53    44    38   am
    54    39    38    2
    55    46    48   am
    56    19    20    2
    57    19    28   am
    58    40    37    1
    59    40    41    1
    60    38    37    1
    61    43    41    1
    62    79    80    1
    63    81    80    1
    64    81    82    2
    65    28    29    1
    66    37    36    1
    67    48    49    1
    68    36    34   am
    69    29    30    1
    70    49    50    1
    71    49    52    1
    72    50    51    2
    73    34    35    2
    74    34    33    1
    75    30    31    2
    76    52    53    1
    77    32    33    1
    78    53    54    1
    79    54    55    1
    80    55    56    1
