@<TRIPOS>MOLECULE
tmp/4jxrB01.pdb
 104 102 0 0 0
SMALL
GASTEIGER

@<TRIPOS>ATOM
      1  N         74.8520  -18.5400   64.6210 N.3    88  LEU88      -0.1245
      2  CA        75.8890  -19.1180   65.4700 C.3    88  LEU88       0.1561
      3  C         77.1750  -18.2790   65.3820 C.2    88  LEU88       0.2260
      4  O         77.5420  -17.8630   64.2970 O.2    88  LEU88      -0.2867
      5  CB        76.2750  -20.5510   65.0580 C.3    88  LEU88       0.0270
      6  CG        75.1530  -21.5450   65.1640 C.3    88  LEU88       0.0019
      7  CD1       75.6430  -22.8660   64.6320 C.3    88  LEU88       0.0001
      8  CD2       74.7380  -21.7940   66.5390 C.3    88  LEU88       0.0001
      9  N         81.0850  -17.7830   64.9060 N.3    90  PRO90      -0.2102
     10  CA        81.8730  -18.5670   63.9490 C.3    90  PRO90       0.1504
     11  C         82.4360  -19.8590   64.5040 C.2    90  PRO90       0.2575
     12  O         82.3820  -20.8850   63.8200 O.2    90  PRO90      -0.2718
     13  CB        82.9700  -17.5900   63.5230 C.3    90  PRO90       0.0282
     14  CG        82.3020  -16.2720   63.5920 C.3    90  PRO90       0.0208
     15  CD        81.3770  -16.3530   64.8090 C.3    90  PRO90       0.0893
     16  N         82.9390  -19.8370   65.7170 N.am   91  GLU91      -0.1980
     17  CA        83.6160  -21.0050   66.2450 C.3    91  GLU91       0.1602
     18  C         82.6360  -22.1160   66.6330 C.2    91  GLU91       0.2287
     19  O         83.0660  -23.2390   66.8470 O.2    91  GLU91      -0.2864
     20  CB        84.5750  -20.6240   67.3850 C.3    91  GLU91       0.0415
     21  CG        83.9240  -20.4310   68.7300 C.3    91  GLU91       0.1163
     22  CD        83.0080  -19.2130   68.8380 C.2    91  GLU91       0.3649
     23  OE1       83.1060  -18.2240   68.0140 O.co2  91  GLU91      -0.2457
     24  OE2       82.1750  -19.2560   69.7930 O.co2  91  GLU91      -0.2457
     25  N         80.1160  -23.0220   64.6060 N.3    93  ARG93      -0.1231
     26  CA        79.6250  -23.5690   63.3860 C.3    93  ARG93       0.1694
     27  C         80.2550  -24.9470   63.0860 C.2    93  ARG93       0.2593
     28  O         81.3320  -25.2730   63.5790 O.2    93  ARG93      -0.2718
     29  CB        79.8160  -22.6230   62.2270 C.3    93  ARG93       0.0321
     30  CG        79.0770  -21.3230   62.4300 C.3    93  ARG93       0.0489
     31  CD        79.4570  -20.2240   61.4600 C.3    93  ARG93       0.2205
     32  NE        78.9620  -18.9270   61.9350 N.pl3  93  ARG93      -0.0865
     33  CZ        79.3300  -17.7400   61.4300 C.cat  93  ARG93       0.5346
     34  NH1       80.1460  -17.6440   60.4120 N.pl3  93  ARG93       0.1354
     35  NH2       78.9240  -16.6390   62.0170 N.pl3  93  ARG93       0.1354
     36  N         79.5280  -25.7650   62.3220 N.am   94  GLY94      -0.1942
     37  CA        80.0440  -27.0680   61.8940 C.3    94  GLY94       0.2014
     38  C         80.0470  -28.1440   62.9520 C.2    94  GLY94       0.2639
     39  O         80.8110  -29.1300   62.8040 O.2    94  GLY94      -0.2714
     40  N         79.1770  -28.0220   63.9570 N.am   95  LYS95      -0.1963
     41  CA        79.1320  -28.8820   65.1430 C.3    95  LYS95       0.1728
     42  C         77.7160  -29.4160   65.4160 C.2    95  LYS95       0.2617
     43  O         77.4220  -29.8750   66.5200 O.2    95  LYS95      -0.2715
     44  CB        79.5780  -28.0980   66.3750 C.3    95  LYS95       0.0311
     45  CG        81.0220  -27.6370   66.2950 C.3    95  LYS95       0.0038
     46  CD        81.4110  -26.8680   67.5300 C.3    95  LYS95       0.0206
     47  CE        82.8570  -26.4280   67.4520 C.3    95  LYS95       0.1093
     48  NZ        83.2530  -25.7460   68.6950 N.3    95  LYS95      -0.1314
     49  N         76.8460  -29.3040   64.4310 N.am   96  GLY96      -0.1940
     50  CA        75.4740  -29.7810   64.5920 C.3    96  GLY96       0.2014
     51  C         74.5380  -28.8580   65.3680 C.2    96  GLY96       0.2639
     52  O         73.3970  -29.2230   65.6170 O.2    96  GLY96      -0.2714
     53  N         75.0050  -27.6980   65.7710 N.am   97  ILE97      -0.1963
     54  CA        74.2100  -26.8320   66.6340 C.3    97  ILE97       0.1727
     55  C         73.0930  -26.1690   65.8440 C.2    97  ILE97       0.2617
     56  O         71.9980  -25.9730   66.3750 O.2    97  ILE97      -0.2715
     57  CB        75.0930  -25.8290   67.3760 C.3    97  ILE97       0.0290
     58  CG1       76.1170  -26.5660   68.2080 C.3    97  ILE97       0.0022
     59  CG2       74.2590  -24.9580   68.2920 C.3    97  ILE97       0.0023
     60  CD1       77.1560  -25.6270   68.7690 C.3    97  ILE97       0.0001
     61  N         73.3120  -25.7920   64.5900 N.am   98  GLY98      -0.1940
     62  CA        72.2770  -25.2250   63.7630 C.3    98  GLY98       0.2014
     63  C         71.1010  -26.1670   63.6210 C.2    98  GLY98       0.2638
     64  O         69.9470  -25.7500   63.7000 O.2    98  GLY98      -0.2714
     65  N         71.3960  -27.4460   63.3980 N.am   99  LYS99      -0.1977
     66  CA        70.3370  -28.4210   63.2770 C.3    99  LYS99       0.1596
     67  C         69.5890  -28.5830   64.6170 C.2    99  LYS99       0.2287
     68  O         68.3720  -28.7100   64.6070 O.2    99  LYS99      -0.2864
     69  CB        70.9340  -29.7520   62.8660 C.3    99  LYS99       0.0298
     70  CG        69.9440  -30.7960   62.5230 C.3    99  LYS99       0.0038
     71  CD        70.6440  -31.9380   61.7820 C.3    99  LYS99       0.0206
     72  CE        69.6660  -33.0910   61.5420 C.3    99  LYS99       0.1093
     73  NZ        69.2760  -33.8060   62.7990 N.3    99  LYS99      -0.1314
     74  N         72.3940  -18.9990   50.6140 N.3   124  HIS124     -0.1227
     75  CA        73.5930  -19.6290   51.1390 C.3   124  HIS124      0.1737
     76  C         73.4440  -21.1490   51.1730 C.2   124  HIS124      0.2438
     77  O         72.5660  -21.6560   51.8540 O.2   124  HIS124     -0.2733
     78  CB        73.7740  -19.0860   52.5790 C.3   124  HIS124      0.0758
     79  CG        75.0440  -19.4790   53.2530 C.ar  124  HIS124      0.0818
     80  ND1       75.0990  -19.8470   54.5870 N.ar  124  HIS124     -0.2268
     81  CD2       76.3200  -19.4790   52.8150 C.ar  124  HIS124      0.1154
     82  CE1       76.3570  -20.0790   54.9250 C.ar  124  HIS124      0.1986
     83  NE2       77.1190  -19.8670   53.8640 N.ar  124  HIS124     -0.2212
     84  N         74.3270  -21.8960   50.4730 N.am  125  PRO125     -0.2718
     85  CA        74.0830  -23.3370   50.3410 C.3   125  PRO125      0.1535
     86  C         74.0430  -24.0750   51.6620 C.2   125  PRO125      0.2599
     87  O         73.1840  -24.9530   51.8370 O.2   125  PRO125     -0.2715
     88  CB        75.2480  -23.7960   49.4690 C.3   125  PRO125      0.0310
     89  CG        75.5180  -22.5930   48.5560 C.3   125  PRO125      0.0237
     90  CD        75.3040  -21.4030   49.4670 C.3   125  PRO125      0.0939
     91  N         74.9060  -23.7440   52.6240 N.am  126  SER126     -0.1950
     92  CA        74.8760  -24.4460   53.9120 C.3   126  SER126      0.1924
     93  C         73.5500  -24.2650   54.6600 C.2   126  SER126      0.2314
     94  O         73.0470  -25.1630   55.3480 O.2   126  SER126     -0.2863
     95  CB        76.0420  -24.0040   54.7930 C.3   126  SER126      0.2116
     96  OG        77.2280  -24.6300   54.3320 O.3   126  SER126     -0.2180
     97  N         70.8520  -27.1950   55.5810 N.3   130  LEU130     -0.1245
     98  CA        70.3370  -27.3510   56.9620 C.3   130  LEU130      0.1561
     99  C         68.8410  -27.4780   56.9970 C.2   130  LEU130      0.2260
    100  O         68.2790  -28.3270   57.6540 O.2   130  LEU130     -0.2867
    101  CB        70.7690  -26.1140   57.7750 C.3   130  LEU130      0.0270
    102  CG        70.0470  -25.9460   59.1400 C.3   130  LEU130      0.0019
    103  CD1       70.2790  -27.0830   60.0740 C.3   130  LEU130      0.0001
    104  CD2       70.4260  -24.6560   59.7910 C.3   130  LEU130      0.0001
@<TRIPOS>BOND
     1    89    90    1
     2    89    88    1
     3    90    84    1
     4    88    85    1
     5    85    84    1
     6    85    86    1
     7    84    76   am
     8    74    75    1
     9    75    76    1
    10    75    78    1
    11    76    77    2
    12    86    87    2
    13    86    91   am
    14    78    79    1
    15    91    92    1
    16    81    79   ar
    17    81    83   ar
    18    79    80   ar
    19    83    82   ar
    20    92    93    1
    21    92    95    1
    22    96    95    1
    23    80    82   ar
    24    93    94    2
    25    97    98    1
    26    98    99    1
    27    98   101    1
    28    99   100    2
    29   101   102    1
    30   102   104    1
    31   102   103    1
    32    34    33    1
    33    33    32    2
    34    33    35    1
    35    31    32    1
    36    31    30    1
    37    72    71    1
    38    72    73    1
    39    71    70    1
    40    37    36    1
    41    37    38    1
    42    29    30    1
    43    29    26    1
    44    36    27   am
    45    70    69    1
    46    39    38    2
    47    69    66    1
    48    38    40   am
    49    27    26    1
    50    27    28    2
    51    66    65    1
    52    66    67    1
    53    26    25    1
    54    65    63   am
    55    13    14    1
    56    13    10    1
    57    14    15    1
    58    63    64    2
    59    63    62    1
    60    62    61    1
    61    12    11    2
    62    10    11    1
    63    10     9    1
    64    40    41    1
    65     4     3    2
    66    49    50    1
    67    49    42   am
    68    11    16   am
    69    61    55   am
    70    50    51    1
    71    68    67    2
    72     1     2    1
    73     7     6    1
    74    15     9    1
    75     5     6    1
    76     5     2    1
    77    41    42    1
    78    41    44    1
    79     6     8    1
    80    51    52    2
    81    51    53   am
    82     3     2    1
    83    42    43    2
    84    16    17    1
    85    53    54    1
    86    55    56    2
    87    55    54    1
    88    17    18    1
    89    17    20    1
    90    45    44    1
    91    45    46    1
    92    18    19    2
    93    54    57    1
    94    57    58    1
    95    57    59    1
    96    20    21    1
    97    47    46    1
    98    47    48    1
    99    23    22   ar
   100    58    60    1
   101    21    22    1
   102    22    24   ar
