@<TRIPOS>MOLECULE
tmp/4jxsB00.pdb
 147 139 0 0 0
SMALL
GASTEIGER

@<TRIPOS>ATOM
      1  N         77.1890    1.1400   29.4460 N.3    61  SER61      -0.1217
      2  CA        75.8560    1.6090   28.9610 C.3    61  SER61       0.1889
      3  C         74.9110    0.5580   28.3720 C.2    61  SER61       0.2288
      4  O         73.7410    0.8440   28.1820 O.2    61  SER61      -0.2866
      5  CB        75.9580    2.7480   27.9280 C.3    61  SER61       0.2089
      6  OG        76.3860    3.9290   28.5850 O.3    61  SER61      -0.2183
      7  N         71.7890    0.1540   30.2860 N.3    64  LYS64      -0.1245
      8  CA        70.5790    0.9550   30.0360 C.3    64  LYS64       0.1561
      9  C         69.4480    0.1500   29.3640 C.2    64  LYS64       0.2260
     10  O         68.2730    0.5280   29.4660 O.2    64  LYS64      -0.2867
     11  CB        70.9060    2.2070   29.1770 C.3    64  LYS64       0.0271
     12  CG        71.7920    3.2680   29.9200 C.3    64  LYS64       0.0035
     13  CD        72.2380    4.3440   28.9330 C.3    64  LYS64       0.0206
     14  CE        72.9970    5.5290   29.6080 C.3    64  LYS64       0.1093
     15  NZ        74.3020    5.0010   30.0950 N.3    64  LYS64      -0.1314
     16  N         75.7010   14.4810   30.8150 N.3   116  LEU116     -0.1231
     17  CA        76.1600   13.1220   30.4980 C.3   116  LEU116      0.1693
     18  C         76.3980   12.3380   31.7760 C.2   116  LEU116      0.2591
     19  O         75.9510   11.1990   31.9170 O.2   116  LEU116     -0.2718
     20  CB        77.4430   13.1830   29.6580 C.3   116  LEU116      0.0284
     21  CG        78.1430   11.8810   29.2840 C.3   116  LEU116      0.0019
     22  CD1       77.2020   10.9580   28.5180 C.3   116  LEU116      0.0001
     23  CD2       79.3490   12.2480   28.4530 C.3   116  LEU116      0.0001
     24  N         77.0630   12.9780   32.7380 N.am  117  GLN117     -0.1979
     25  CA        77.3560   12.3200   34.0010 C.3   117  GLN117      0.1601
     26  C         76.7870   13.1390   35.1480 C.2   117  GLN117      0.2287
     27  O         76.7580   14.3450   35.0850 O.2   117  GLN117     -0.2864
     28  CB        78.8760   12.2280   34.2470 C.3   117  GLN117      0.0394
     29  CG        79.6670   11.4940   33.1790 C.3   117  GLN117      0.0908
     30  CD        79.4030   10.0070   33.1430 C.2   117  GLN117      0.2608
     31  OE1       78.7340    9.4450   34.0240 O.2   117  GLN117     -0.2717
     32  NE2       79.9040    9.3530   32.0860 N.am  117  GLN117     -0.0878
     33  N         72.3100   12.3840   25.0220 N.3   147  TYR147     -0.1241
     34  CA        72.6050   11.1650   25.7830 C.3   147  TYR147      0.1605
     35  C         73.1160   11.4870   27.1760 C.2   147  TYR147      0.2264
     36  O         74.0460   12.3040   27.3280 O.2   147  TYR147     -0.2867
     37  CB        73.6290   10.3730   25.0040 C.3   147  TYR147      0.0534
     38  CG        73.8960    8.9740   25.4500 C.ar  147  TYR147     -0.0201
     39  CD1       74.8940    8.6960   26.3770 C.ar  147  TYR147     -0.0009
     40  CD2       73.2010    7.8990   24.8760 C.ar  147  TYR147     -0.0009
     41  CE1       75.1810    7.3480   26.7680 C.ar  147  TYR147      0.0417
     42  CE2       73.4780    6.5800   25.2440 C.ar  147  TYR147      0.0417
     43  CZ        74.4670    6.3230   26.1870 C.ar  147  TYR147      0.1957
     44  OH        74.7560    5.0300   26.5230 O.3   147  TYR147     -0.2866
     45  N         73.5410    9.8470   31.3920 N.3   149  ASN149     -0.1240
     46  CA        73.3300    8.9930   32.5700 C.3   149  ASN149      0.1653
     47  C         72.4230    9.6120   33.6220 C.2   149  ASN149      0.2266
     48  O         71.6720    8.8740   34.2890 O.2   149  ASN149     -0.2867
     49  CB        74.6460    8.6870   33.2700 C.3   149  ASN149      0.1155
     50  CG        75.5180    7.7590   32.4830 C.2   149  ASN149      0.2627
     51  OD1       75.0530    7.0480   31.5790 O.2   149  ASN149     -0.2716
     52  ND2       76.8070    7.7340   32.8310 N.am  149  ASN149     -0.0877
     53  N         88.2890   -1.9550   37.8750 N.3   207  HIS207     -0.1226
     54  CA        86.8560   -2.1880   37.8930 C.3   207  HIS207      0.1752
     55  C         86.1680   -0.8350   38.0080 C.2   207  HIS207      0.2596
     56  O         86.7680    0.1710   38.4620 O.2   207  HIS207     -0.2718
     57  CB        86.4240   -3.1040   39.0510 C.3   207  HIS207      0.0759
     58  CG        86.7100   -4.5620   38.8310 C.ar  207  HIS207      0.0818
     59  ND1       86.9790   -5.4270   39.8740 N.ar  207  HIS207     -0.2268
     60  CD2       86.7740   -5.3080   37.6990 C.ar  207  HIS207      0.1154
     61  CE1       87.1730   -6.6480   39.3970 C.ar  207  HIS207      0.1986
     62  NE2       87.0460   -6.6060   38.0790 N.ar  207  HIS207     -0.2212
     63  N         84.9160   -0.8110   37.5780 N.am  208  VAL208     -0.1966
     64  CA        84.1010    0.4110   37.5850 C.3   208  VAL208      0.1727
     65  C         84.0150    0.9630   39.0260 C.2   208  VAL208      0.2616
     66  O         83.9200    0.1880   39.9640 O.2   208  VAL208     -0.2715
     67  CB        82.7040    0.0990   36.9950 C.3   208  VAL208      0.0290
     68  CG1       81.9360   -0.8730   37.8790 C.3   208  VAL208      0.0023
     69  CG2       81.8870    1.3640   36.7530 C.3   208  VAL208      0.0023
     70  N         84.0900    2.2840   39.1780 N.am  209  SER209     -0.1950
     71  CA        84.0440    2.9570   40.4940 C.3   209  SER209      0.1924
     72  C         82.5860    3.2290   40.8920 C.2   209  SER209      0.2314
     73  O         81.7640    3.4940   40.0250 O.2   209  SER209     -0.2863
     74  CB        84.8070    4.2810   40.4230 C.3   209  SER209      0.2116
     75  OG        86.2090    4.0450   40.2720 O.3   209  SER209     -0.2180
     76  N         74.8180    2.3260   34.3690 N.3   218  TYR218     -0.1241
     77  CA        75.9720    1.5730   33.8720 C.3   218  TYR218      0.1605
     78  C         76.3610    0.4360   34.8430 C.2   218  TYR218      0.2264
     79  O         77.4970   -0.0050   34.8630 O.2   218  TYR218     -0.2867
     80  CB        77.1830    2.5090   33.5700 C.3   218  TYR218      0.0534
     81  CG        77.5840    3.4150   34.7120 C.ar  218  TYR218     -0.0201
     82  CD1       78.5000    2.9930   35.6780 C.ar  218  TYR218     -0.0009
     83  CD2       77.0800    4.7190   34.8050 C.ar  218  TYR218     -0.0009
     84  CE1       78.8810    3.8280   36.7130 C.ar  218  TYR218      0.0417
     85  CE2       77.4610    5.5720   35.8480 C.ar  218  TYR218      0.0417
     86  CZ        78.3520    5.1110   36.8030 C.ar  218  TYR218      0.1957
     87  OH        78.7300    5.9450   37.8400 O.3   218  TYR218     -0.2866
     88  N         81.6480    8.6480   19.4730 N.3   286  ASN286     -0.1240
     89  CA        81.1360    9.5240   20.5450 C.3   286  ASN286      0.1653
     90  C         81.0040   11.0060   20.1950 C.2   286  ASN286      0.2266
     91  O         80.1760   11.7200   20.7740 O.2   286  ASN286     -0.2867
     92  CB        81.9160    9.3210   21.8420 C.3   286  ASN286      0.1155
     93  CG        81.5340    8.0470   22.5320 C.2   286  ASN286      0.2627
     94  OD1       80.4270    7.5240   22.3370 O.2   286  ASN286     -0.2716
     95  ND2       82.4350    7.5270   23.3270 N.am  286  ASN286     -0.0877
     96  N         77.2340   11.3320   21.3610 N.3   290  LEU290     -0.1245
     97  CA        77.0710   12.1150   22.6120 C.3   290  LEU290      0.1561
     98  C         76.6560   13.5720   22.3770 C.2   290  LEU290      0.2260
     99  O         76.5000   14.3210   23.3370 O.2   290  LEU290     -0.2867
    100  CB        78.3600   12.0790   23.4200 C.3   290  LEU290      0.0270
    101  CG        78.8110   10.6690   23.8230 C.3   290  LEU290      0.0019
    102  CD1       80.1030   10.7430   24.6780 C.3   290  LEU290      0.0001
    103  CD2       77.6700    9.9060   24.5210 C.3   290  LEU290      0.0001
    104  N         72.9240   -1.3710   21.0110 N.3   312  LYS312     -0.1231
    105  CA        73.4370   -0.4970   22.1010 C.3   312  LYS312      0.1693
    106  C         74.9420   -0.7520   22.2610 C.2   312  LYS312      0.2593
    107  O         75.3430   -1.8980   22.4120 O.2   312  LYS312     -0.2718
    108  CB        72.7300   -0.8030   23.4260 C.3   312  LYS312      0.0285
    109  CG        73.0000    0.2490   24.5170 C.3   312  LYS312      0.0035
    110  CD        72.3270    1.6140   24.2200 C.3   312  LYS312      0.0206
    111  CE        72.8170    2.6910   25.2040 C.3   312  LYS312      0.1093
    112  NZ        74.2250    3.1030   24.8700 N.3   312  LYS312     -0.1314
    113  N         75.7390    0.3200   22.2570 N.am  313  THR313     -0.1939
    114  CA        77.1440    0.2740   22.6680 C.3   313  THR313      0.2028
    115  C         77.2510    0.5300   24.1870 C.2   313  THR313      0.2643
    116  O         76.3820    1.1710   24.7790 O.2   313  THR313     -0.2714
    117  CB        77.9700    1.3970   21.9860 C.3   313  THR313      0.1808
    118  OG1       77.3310    2.6650   22.2250 O.3   313  THR313     -0.2208
    119  CG2       78.0190    1.1560   20.4730 C.3   313  THR313      0.0379
    120  N         78.3080    0.0400   24.8140 N.am  314  GLY314     -0.1939
    121  CA        78.5080    0.3210   26.2530 C.3   314  GLY314      0.2014
    122  C         79.9740    0.2240   26.5880 C.2   314  GLY314      0.2639
    123  O         80.6830   -0.5740   25.9610 O.2   314  GLY314     -0.2714
    124  N         80.4390    1.0260   27.5640 N.am  315  ALA315     -0.1963
    125  CA        81.8400    0.9750   27.9670 C.3   315  ALA315      0.1728
    126  C         81.9510    1.3090   29.4400 C.2   315  ALA315      0.2617
    127  O         81.0690    1.9560   29.9980 O.2   315  ALA315     -0.2715
    128  CB        82.6880    1.9910   27.1570 C.3   315  ALA315      0.0334
    129  N         83.0140    0.8500   30.0590 N.am  316  THR316     -0.1937
    130  CA        83.4680    1.4500   31.3090 C.3   316  THR316      0.2028
    131  C         84.9530    1.8010   31.0700 C.2   316  THR316      0.2642
    132  O         85.4350    1.6920   29.9330 O.2   316  THR316     -0.2714
    133  CB        83.2780    0.5250   32.5230 C.3   316  THR316      0.1808
    134  OG1       84.0310   -0.6870   32.3400 O.3   316  THR316     -0.2208
    135  CG2       81.7770    0.1910   32.7860 C.3   316  THR316      0.0379
    136  N         85.6670    2.2390   32.1030 N.am  317  GLY317     -0.1954
    137  CA        87.0840    2.5740   31.9780 C.3   317  GLY317      0.1869
    138  C         87.9000    1.4110   31.4300 C.2   317  GLY317      0.2309
    139  O         88.8260    1.6010   30.6180 O.2   317  GLY317     -0.2863
    140  N         84.1380    2.6920   19.5530 N.3   343  ASN343     -0.1240
    141  CA        82.8010    2.2260   19.1600 C.3   343  ASN343      0.1653
    142  C         82.7280    1.8330   17.6840 C.2   343  ASN343      0.2266
    143  O         82.1690    0.7850   17.3600 O.2   343  ASN343     -0.2867
    144  CB        81.7120    3.2990   19.4190 C.3   343  ASN343      0.1155
    145  CG        81.3520    3.4630   20.8970 C.2   343  ASN343      0.2627
    146  OD1       81.4190    2.5040   21.6970 O.2   343  ASN343     -0.2716
    147  ND2       80.8990    4.6800   21.2550 N.am  343  ASN343     -0.0877
@<TRIPOS>BOND
     1   143   142    2
     2   142   141    1
     3   141   144    1
     4   141   140    1
     5   144   145    1
     6    88    89    1
     7    90    89    1
     8    90    91    2
     9   119   117    1
    10    89    92    1
    11   145   147   am
    12   145   146    2
    13   104   105    1
    14    96    97    1
    15    92    93    1
    16   117   118    1
    17   117   114    1
    18   105   106    1
    19   105   108    1
    20   113   106   am
    21   113   114    1
    22   106   107    2
    23    94    93    2
    24    98    97    1
    25    98    99    2
    26    93    95   am
    27    97   100    1
    28   114   115    1
    29   100   101    1
    30   108   109    1
    31   101   103    1
    32   101   102    1
    33   115   116    2
    34   115   120   am
    35   110   109    1
    36   110   111    1
    37   120   121    1
    38   112   111    1
    39    40    42   ar
    40    40    38   ar
    41    37    38    1
    42    37    34    1
    43    33    34    1
    44    42    43   ar
    45    38    39   ar
    46    34    35    1
    47   123   122    2
    48    43    44    1
    49    43    41   ar
    50   121   122    1
    51    39    41   ar
    52   122   124   am
    53   128   125    1
    54    35    36    2
    55   124   125    1
    56     5     6    1
    57     5     2    1
    58   125   126    1
    59     4     3    2
    60     3     2    1
    61    23    21    1
    62    22    21    1
    63    13    14    1
    64    13    12    1
    65     2     1    1
    66    11    12    1
    67    11     8    1
    68    21    20    1
    69     9    10    2
    70     9     8    1
    71   126   127    2
    72   126   129   am
    73    14    15    1
    74    20    17    1
    75   132   131    2
    76     8     7    1
    77   129   130    1
    78    17    16    1
    79    17    18    1
    80   139   138    2
    81   131   130    1
    82   131   136   am
    83   130   133    1
    84    45    46    1
    85   138   137    1
    86    51    50    2
    87    18    19    2
    88    18    24   am
    89   137   136    1
    90    32    30   am
    91   134   133    1
    92    50    52   am
    93    50    49    1
    94   133   135    1
    95    46    49    1
    96    46    47    1
    97    24    25    1
    98    30    29    1
    99    30    31    2
   100    29    28    1
   101    80    77    1
   102    80    81    1
   103    47    48    2
   104    77    76    1
   105    77    78    1
   106    25    28    1
   107    25    26    1
   108    81    83   ar
   109    81    82   ar
   110    83    85   ar
   111    78    79    2
   112    27    26    2
   113    82    84   ar
   114    85    86   ar
   115    84    86   ar
   116    69    67    1
   117    86    87    1
   118    67    64    1
   119    67    68    1
   120    63    64    1
   121    63    55   am
   122    64    65    1
   123    60    62   ar
   124    60    58   ar
   125    53    54    1
   126    54    55    1
   127    54    57    1
   128    55    56    2
   129    62    61   ar
   130    58    57    1
   131    58    59   ar
   132    65    70   am
   133    65    66    2
   134    70    71    1
   135    61    59   ar
   136    73    72    2
   137    75    74    1
   138    74    71    1
   139    71    72    1
