@<TRIPOS>MOLECULE
tmp/4jxtA00.pdb
 149 142 0 0 0
SMALL
GASTEIGER

@<TRIPOS>ATOM
      1  N         25.1710   13.4970   -9.9160 N.3    17  ASN17      -0.1225
      2  CA        24.2490   13.9970   -8.9310 C.3    17  ASN17       0.1785
      3  C         22.8370   14.3070   -9.4850 C.2    17  ASN17       0.2598
      4  O         22.0130   14.8910   -8.7700 O.2    17  ASN17      -0.2718
      5  CB        24.8290   15.2580   -8.2810 C.3    17  ASN17       0.1169
      6  CG        24.0020   15.7180   -7.0870 C.2    17  ASN17       0.2627
      7  OD1       23.5720   14.9040   -6.2810 O.2    17  ASN17      -0.2716
      8  ND2       23.7470   17.0080   -7.0000 N.am   17  ASN17      -0.0877
      9  N         22.5400   13.9070  -10.7230 N.am   18  SER18      -0.1938
     10  CA        21.2480   14.1880  -11.3160 C.3    18  SER18       0.2055
     11  C         20.2050   13.2250  -10.7390 C.2    18  SER18       0.2643
     12  O         20.5240   12.0740  -10.3300 O.2    18  SER18      -0.2714
     13  CB        21.3010   14.0640  -12.8520 C.3    18  SER18       0.2130
     14  OG        21.2630   12.7090  -13.2690 O.3    18  SER18      -0.2179
     15  N         18.9600   13.6920  -10.7040 N.am   19  GLN19      -0.1963
     16  CA        17.8570   12.8660  -10.2090 C.3    19  GLN19       0.1733
     17  C         17.8050   11.5720  -11.0610 C.2    19  GLN19       0.2616
     18  O         17.6620   10.4620  -10.5170 O.2    19  GLN19      -0.2715
     19  CB        16.5310   13.6360  -10.2920 C.3    19  GLN19       0.0408
     20  CG        15.2950   12.8910   -9.7730 C.3    19  GLN19       0.0908
     21  CD        15.3190   12.6690   -8.2770 C.2    19  GLN19       0.2608
     22  OE1       15.7330   13.5450   -7.5020 O.2    19  GLN19      -0.2717
     23  NE2       14.8810   11.4850   -7.8520 N.am   19  GLN19      -0.0878
     24  N         17.9730   11.7300  -12.3790 N.am   20  GLN20      -0.1977
     25  CA        17.8440   10.5920  -13.3240 C.3    20  GLN20       0.1601
     26  C         18.9790    9.5910  -13.1160 C.2    20  GLN20       0.2287
     27  O         18.7460    8.3930  -13.1060 O.2    20  GLN20      -0.2864
     28  CB        17.8000   11.0890  -14.7900 C.3    20  GLN20       0.0394
     29  CG        18.9520   11.8610  -15.4770 C.3    20  GLN20       0.0908
     30  CD        20.1940   11.0950  -15.9440 C.2    20  GLN20       0.2608
     31  OE1       21.3330   11.3460  -15.5250 O.2    20  GLN20      -0.2717
     32  NE2       20.0740   10.1590  -16.8780 N.am   20  GLN20      -0.0878
     33  N         20.9450    8.9600  -10.2650 N.3    22  VAL22      -0.1231
     34  CA        20.7190    8.2190   -9.0240 C.3    22  VAL22       0.1692
     35  C         19.5130    7.2550   -9.1360 C.2    22  VAL22       0.2591
     36  O         19.6250    6.0880   -8.7480 O.2    22  VAL22      -0.2718
     37  CB        20.5060    9.1520   -7.8060 C.3    22  VAL22       0.0266
     38  CG1       20.2160    8.3070   -6.5540 C.3    22  VAL22       0.0020
     39  CG2       21.7310   10.0480   -7.5930 C.3    22  VAL22       0.0020
     40  N         18.3780    7.7530   -9.6320 N.am   23  GLN23      -0.1979
     41  CA        17.1500    6.9320   -9.7530 C.3    23  GLN23       0.1601
     42  C         17.3270    5.7260  -10.6720 C.2    23  GLN23       0.2287
     43  O         16.8140    4.6240  -10.3860 O.2    23  GLN23      -0.2864
     44  CB        16.0060    7.7280  -10.3340 C.3    23  GLN23       0.0394
     45  CG        15.3000    8.6150   -9.3690 C.3    23  GLN23       0.0908
     46  CD        14.0940    9.2420  -10.0410 C.2    23  GLN23       0.2608
     47  OE1       13.0180    9.1890   -9.5250 O.2    23  GLN23      -0.2717
     48  NE2       14.2850    9.7850  -11.2080 N.am   23  GLN23      -0.0878
     49  N         23.6990    9.4910   -1.5540 N.3    60  TYR60      -0.1241
     50  CA        22.3920    9.6950   -2.1960 C.3    60  TYR60       0.1605
     51  C         21.8070    8.4070   -2.8280 C.2    60  TYR60       0.2264
     52  O         20.6040    8.1130   -2.6930 O.2    60  TYR60      -0.2867
     53  CB        22.4720   10.8530   -3.2420 C.3    60  TYR60       0.0534
     54  CG        22.4610   12.2800   -2.6720 C.ar   60  TYR60      -0.0201
     55  CD1       21.9680   12.5690   -1.3820 C.ar   60  TYR60      -0.0009
     56  CD2       22.8880   13.3610   -3.4570 C.ar   60  TYR60      -0.0009
     57  CE1       21.9390   13.8650   -0.8990 C.ar   60  TYR60       0.0417
     58  CE2       22.8510   14.6640   -2.9810 C.ar   60  TYR60       0.0417
     59  CZ        22.3740   14.9180   -1.7060 C.ar   60  TYR60       0.1957
     60  OH        22.3390   16.2080   -1.2120 O.3    60  TYR60      -0.2866
     61  N         20.7270    6.2840   -0.0520 N.3    63  ASN63      -0.1225
     62  CA        19.4130    6.8020    0.3630 C.3    63  ASN63       0.1785
     63  C         18.2720    6.2820   -0.5130 C.2    63  ASN63       0.2597
     64  O         17.2550    5.8190   -0.0050 O.2    63  ASN63      -0.2718
     65  CB        19.4010    8.2960    0.2840 C.3    63  ASN63       0.1169
     66  CG        18.0500    8.8890    0.6260 C.2    63  ASN63       0.2627
     67  OD1       17.6070    8.8190    1.7920 O.2    63  ASN63      -0.2716
     68  ND2       17.3790    9.4880   -0.3780 N.am   63  ASN63      -0.0877
     69  N         18.4520    6.3960   -1.8220 N.am   64  ASP64      -0.1974
     70  CA        17.4340    5.9920   -2.7780 C.3    64  ASP64       0.1709
     71  C         17.1360    4.5020   -2.7380 C.2    64  ASP64       0.2293
     72  O         15.9750    4.1190   -2.7050 O.2    64  ASP64      -0.2864
     73  CB        17.7610    6.4400   -4.2060 C.3    64  ASP64       0.1436
     74  CG        16.5070    6.6950   -5.0050 C.2    64  ASP64       0.3671
     75  OD1       15.8650    7.7520   -4.8150 O.co2  64  ASP64      -0.2456
     76  OD2       16.1000    5.7840   -5.7310 O.co2  64  ASP64      -0.2456
     77  N         15.5530    3.5170    0.7970 N.3    67  GLN67      -0.1231
     78  CA        14.1680    3.9810    0.9310 C.3    67  GLN67       0.1698
     79  C         13.2120    3.2410   -0.0370 C.2    67  GLN67       0.2592
     80  O         12.1190    2.7830    0.3440 O.2    67  GLN67      -0.2718
     81  CB        14.0400    5.4830    0.6970 C.3    67  GLN67       0.0381
     82  CG        14.6200    6.3280    1.8110 C.3    67  GLN67       0.0905
     83  CD        13.9190    7.6670    1.9340 C.2    67  GLN67       0.2608
     84  OE1       12.7270    7.7290    2.0810 O.2    67  GLN67      -0.2717
     85  NE2       14.6850    8.7430    1.8780 N.am   67  GLN67      -0.0878
     86  N         13.6210    3.1350   -1.2770 N.am   68  ASN68      -0.1974
     87  CA        12.7810    2.4350   -2.2710 C.3    68  ASN68       0.1688
     88  C         12.6820    0.9180   -2.0170 C.2    68  ASN68       0.2292
     89  O         11.7330    0.2680   -2.4730 O.2    68  ASN68      -0.2864
     90  CB        13.2450    2.7620   -3.6820 C.3    68  ASN68       0.1181
     91  CG        12.7000    4.0800   -4.1540 C.2    68  ASN68       0.2629
     92  OD1       11.4930    4.3290   -4.0540 O.2    68  ASN68      -0.2716
     93  ND2       13.5560    4.9490   -4.6210 N.am   68  ASN68      -0.0877
     94  N         24.4100   18.8640    3.6760 N.3   102  HIS102     -0.1241
     95  CA        23.6540   17.8680    2.8450 C.3   102  HIS102      0.1621
     96  C         23.5210   16.5260    3.5180 C.2   102  HIS102      0.2264
     97  O         22.4490   15.9260    3.5180 O.2   102  HIS102     -0.2867
     98  CB        24.2510   17.7160    1.4520 C.3   102  HIS102      0.0745
     99  CG        24.1870   18.9680    0.6260 C.ar  102  HIS102      0.0817
    100  ND1       23.0800   19.7300    0.5500 N.ar  102  HIS102     -0.2268
    101  CD2       25.1430   19.5810   -0.1880 C.ar  102  HIS102      0.1154
    102  CE1       23.3210   20.8030   -0.2420 C.ar  102  HIS102      0.1986
    103  NE2       24.5840   20.7050   -0.6930 N.ar  102  HIS102     -0.2212
    104  N         20.9790   16.6360    6.3160 N.3   105  ARG105     -0.1231
    105  CA        19.6190   16.6040    5.8050 C.3   105  ARG105      0.1694
    106  C         19.1780   15.1770    5.5110 C.2   105  ARG105      0.2591
    107  O         18.0590   14.8020    5.8380 O.2   105  ARG105     -0.2718
    108  CB        19.5060   17.4300    4.5250 C.3   105  ARG105      0.0321
    109  CG        18.1220   17.3890    3.8860 C.3   105  ARG105      0.0489
    110  CD        17.2540   18.5730    4.2970 C.3   105  ARG105      0.2205
    111  NE        15.8690   18.4750    3.8080 N.pl3 105  ARG105     -0.0865
    112  CZ        15.4910   18.4420    2.5230 C.cat 105  ARG105      0.5346
    113  NH1       16.3750   18.4660    1.5260 N.pl3 105  ARG105      0.1354
    114  NH2       14.1970   18.3700    2.2260 N.pl3 105  ARG105      0.1354
    115  N         20.0540   14.3760    4.8970 N.am  106  VAL106     -0.1980
    116  CA        19.7330   12.9780    4.7010 C.3   106  VAL106      0.1595
    117  C         19.4210   12.3030    6.0470 C.2   106  VAL106      0.2287
    118  O         18.4080   11.5960    6.2020 O.2   106  VAL106     -0.2864
    119  CB        20.8770   12.2210    3.9980 C.3   106  VAL106      0.0276
    120  CG1       20.6070   10.7170    4.0160 C.3   106  VAL106      0.0022
    121  CG2       21.0710   12.7610    2.5840 C.3   106  VAL106      0.0022
    122  N         16.0160   13.3220    7.2570 N.3   109  ILE109     -0.1245
    123  CA        14.9950   12.5880    6.4520 C.3   109  ILE109      0.1561
    124  C         14.8520   11.1520    6.9910 C.2   109  ILE109      0.2260
    125  O         13.7350   10.6650    7.2400 O.2   109  ILE109     -0.2867
    126  CB        15.3700   12.5970    4.9550 C.3   109  ILE109      0.0252
    127  CG1       15.2660   14.0390    4.4260 C.3   109  ILE109      0.0019
    128  CG2       14.4620   11.6390    4.1460 C.3   109  ILE109      0.0019
    129  CD1       15.9770   14.2940    3.1180 C.3   109  ILE109      0.0001
    130  N         12.9880   11.2140   10.3450 N.3   112  GLU112     -0.1231
    131  CA        11.5570   11.4590   10.2080 C.3   112  GLU112      0.1699
    132  C         10.7750   10.3420    9.4880 C.2   112  GLU112      0.2592
    133  O          9.6190   10.1350    9.7850 O.2   112  GLU112     -0.2718
    134  CB        11.2880   12.8490    9.6120 C.3   112  GLU112      0.0402
    135  CG        11.5380   13.0400    8.1310 C.3   112  GLU112      0.1161
    136  CD        11.3700   14.5110    7.7270 C.2   112  GLU112      0.3649
    137  OE1       10.4800   15.1760    8.2970 O.co2 112  GLU112     -0.2457
    138  OE2       12.1360   15.0080    6.8610 O.co2 112  GLU112     -0.2457
    139  N         11.4330    9.6070    8.5940 N.am  113  ARG113     -0.1980
    140  CA        10.8180    8.4750    7.8800 C.3   113  ARG113      0.1597
    141  C         11.1480    7.1020    8.5100 C.2   113  ARG113      0.2287
    142  O         10.7880    6.0580    7.9250 O.2   113  ARG113     -0.2864
    143  CB        11.2890    8.4800    6.4130 C.3   113  ARG113      0.0334
    144  CG        10.8370    9.7150    5.6530 C.3   113  ARG113      0.0492
    145  CD        11.3430    9.6970    4.2390 C.3   113  ARG113      0.2205
    146  NE        10.8370   10.8610    3.5110 N.pl3 113  ARG113     -0.0865
    147  CZ        10.6900   10.9330    2.1770 C.cat 113  ARG113      0.5346
    148  NH1       11.0530    9.9160    1.3820 N.pl3 113  ARG113      0.1354
    149  NH2       10.2090   12.0520    1.6290 N.pl3 113  ARG113      0.1354
@<TRIPOS>BOND
     1    32    30   am
     2    30    31    2
     3    30    29    1
     4    29    28    1
     5    28    25    1
     6    25    26    1
     7    25    24    1
     8    14    13    1
     9    26    27    2
    10    13    10    1
    11    24    17   am
    12    10    11    1
    13    10     9    1
    14    48    46   am
    15    17    18    2
    16    17    16    1
    17    11    15   am
    18    11    12    2
    19     9     3   am
    20    15    16    1
    21    42    43    2
    22    42    41    1
    23    44    41    1
    24    44    45    1
    25    19    16    1
    26    19    20    1
    27    33    34    1
    28    46    47    2
    29    46    45    1
    30     1     2    1
    31    20    21    1
    32    41    40    1
    33    40    35   am
    34     3     2    1
    35     3     4    2
    36    35    34    1
    37    35    36    2
    38    34    37    1
    39     2     5    1
    40     5     6    1
    41    21    23   am
    42    21    22    2
    43    37    39    1
    44    37    38    1
    45     6     8   am
    46     6     7    2
    47    76    74   ar
    48    74    75   ar
    49    74    73    1
    50    93    91   am
    51    73    70    1
    52    91    92    2
    53    91    90    1
    54    90    87    1
    55    56    58   ar
    56    56    54   ar
    57    53    54    1
    58    53    50    1
    59    58    59   ar
    60    51    52    2
    61    51    50    1
    62    70    71    1
    63    70    69    1
    64    71    72    2
    65    54    55   ar
    66    89    88    2
    67    87    88    1
    68    87    86    1
    69    50    49    1
    70    69    63   am
    71    59    60    1
    72    59    57   ar
    73    55    57   ar
    74    86    79   am
    75   103   102   ar
    76   103   101   ar
    77    63    64    2
    78    63    62    1
    79    68    66   am
    80   102   100   ar
    81   101    99   ar
    82    61    62    1
    83    79    80    2
    84    79    78    1
    85    65    62    1
    86    65    66    1
    87   100    99   ar
    88    99    98    1
    89    66    67    2
    90    81    78    1
    91    81    82    1
    92    77    78    1
    93   148   147    1
    94    98    95    1
    95   113   112    1
    96   149   147    1
    97    82    83    1
    98    85    83   am
    99    83    84    2
   100   147   146    2
   101   114   112    1
   102   112   111    2
   103   121   119    1
   104    95    96    1
   105    95    94    1
   106   129   127    1
   107   146   145    1
   108    97    96    2
   109   111   110    1
   110   109   110    1
   111   109   108    1
   112   119   120    1
   113   119   116    1
   114   128   126    1
   115   145   144    1
   116   127   126    1
   117   108   105    1
   118   116   115    1
   119   116   117    1
   120   115   106   am
   121   126   123    1
   122   106   105    1
   123   106   107    2
   124   144   143    1
   125   105   104    1
   126   117   118    2
   127   143   140    1
   128   123   124    1
   129   123   122    1
   130   138   136   ar
   131   124   125    2
   132   136   135    1
   133   136   137   ar
   134   140   141    1
   135   140   139    1
   136   142   141    2
   137   135   134    1
   138   139   132   am
   139   132   133    2
   140   132   131    1
   141   134   131    1
   142   131   130    1
