@<TRIPOS>MOLECULE
tmp/4jxvB00.pdb
 134 124 0 0 0
SMALL
GASTEIGER

@<TRIPOS>ATOM
      1  N         77.3280    1.2000   29.5220 N.3    61  SER61      -0.1217
      2  CA        75.9750    1.6740   29.0230 C.3    61  SER61       0.1889
      3  C         75.0780    0.6270   28.4530 C.2    61  SER61       0.2288
      4  O         73.8510    0.9070   28.2710 O.2    61  SER61      -0.2866
      5  CB        76.0470    2.7800   27.9760 C.3    61  SER61       0.2089
      6  OG        76.4570    3.9520   28.6110 O.3    61  SER61      -0.2183
      7  N         71.8950    0.2320   30.3350 N.3    64  LYS64      -0.1245
      8  CA        70.7090    1.0360   30.0740 C.3    64  LYS64       0.1561
      9  C         69.6070    0.2330   29.4030 C.2    64  LYS64       0.2260
     10  O         68.4130    0.6260   29.5170 O.2    64  LYS64      -0.2867
     11  CB        71.0800    2.2970   29.2310 C.3    64  LYS64       0.0271
     12  CG        72.0120    3.2950   29.9400 C.3    64  LYS64       0.0035
     13  CD        72.3770    4.4410   29.0060 C.3    64  LYS64       0.0206
     14  CE        73.2270    5.5530   29.7120 C.3    64  LYS64       0.1093
     15  NZ        74.5090    5.0860   30.3930 N.3    64  LYS64      -0.1314
     16  N         75.6510   14.6270   30.7110 N.3   116  LEU116     -0.1231
     17  CA        76.2190   13.2790   30.4740 C.3   116  LEU116      0.1693
     18  C         76.4970   12.5070   31.8030 C.2   116  LEU116      0.2591
     19  O         76.0360   11.3480   31.9830 O.2   116  LEU116     -0.2718
     20  CB        77.5130   13.4110   29.6240 C.3   116  LEU116      0.0284
     21  CG        78.1760   12.0610   29.3130 C.3   116  LEU116      0.0019
     22  CD1       77.1970   11.1530   28.5490 C.3   116  LEU116      0.0001
     23  CD2       79.3930   12.3890   28.4490 C.3   116  LEU116      0.0001
     24  N         77.2260   13.1450   32.7490 N.am  117  GLN117     -0.1979
     25  CA        77.4820   12.5000   34.0300 C.3   117  GLN117      0.1601
     26  C         76.8450   13.2690   35.1430 C.2   117  GLN117      0.2287
     27  O         76.8240   14.5150   35.1440 O.2   117  GLN117     -0.2864
     28  CB        78.9870   12.4150   34.3800 C.3   117  GLN117      0.0394
     29  CG        79.8150   11.7920   33.2590 C.3   117  GLN117      0.0908
     30  CD        79.6360   10.3100   33.0680 C.2   117  GLN117      0.2608
     31  OE1       79.0260    9.5800   33.9180 O.2   117  GLN117     -0.2717
     32  NE2       80.1100    9.8310   31.8990 N.am  117  GLN117     -0.0878
     33  N         72.4770   12.5110   25.1140 N.3   147  TYR147     -0.1241
     34  CA        72.6670   11.2330   25.8000 C.3   147  TYR147      0.1605
     35  C         73.2170   11.5030   27.2010 C.2   147  TYR147      0.2264
     36  O         74.1470   12.2760   27.3310 O.2   147  TYR147     -0.2867
     37  CB        73.6910   10.4090   24.9960 C.3   147  TYR147      0.0534
     38  CG        73.9620    9.0460   25.5080 C.ar  147  TYR147     -0.0201
     39  CD1       75.0660    8.8000   26.3740 C.ar  147  TYR147     -0.0009
     40  CD2       73.2060    7.9830   25.0970 C.ar  147  TYR147     -0.0009
     41  CE1       75.3440    7.5080   26.8270 C.ar  147  TYR147      0.0417
     42  CE2       73.4800    6.7100   25.5290 C.ar  147  TYR147      0.0417
     43  CZ        74.5880    6.4960   26.3680 C.ar  147  TYR147      0.1957
     44  OH        74.8980    5.2710   26.7490 O.3   147  TYR147     -0.2866
     45  N         73.5990   10.0320   31.4960 N.3   149  ASN149     -0.1240
     46  CA        73.3780    9.1190   32.6090 C.3   149  ASN149      0.1653
     47  C         72.4560    9.7740   33.6480 C.2   149  ASN149      0.2266
     48  O         71.7710    9.0670   34.3650 O.2   149  ASN149     -0.2867
     49  CB        74.7210    8.8740   33.2990 C.3   149  ASN149      0.1155
     50  CG        75.6150    7.8630   32.5540 C.2   149  ASN149      0.2627
     51  OD1       75.2200    7.1880   31.5980 O.2   149  ASN149     -0.2716
     52  ND2       76.8830    7.8370   32.9540 N.am  149  ASN149     -0.0877
     53  N         93.0550   -0.4180   31.5340 N.3   201  ARG201     -0.1245
     54  CA        93.0420    0.9700   31.0940 C.3   201  ARG201      0.1563
     55  C         94.4590    1.5220   31.1570 C.2   201  ARG201      0.2260
     56  O         95.0130    1.6880   32.2260 O.2   201  ARG201     -0.2867
     57  CB        92.1920    1.8150   31.9990 C.3   201  ARG201      0.0307
     58  CG        92.0170    3.2320   31.5210 C.3   201  ARG201      0.0489
     59  CD        91.2050    3.9830   32.5470 C.3   201  ARG201      0.2205
     60  NE        90.9670    5.3400   32.0930 N.pl3 201  ARG201     -0.0865
     61  CZ        91.5490    6.4130   32.6200 C.cat 201  ARG201      0.5346
     62  NH1       92.3950    6.2800   33.6220 N.pl3 201  ARG201      0.1354
     63  NH2       91.2800    7.6210   32.1530 N.pl3 201  ARG201      0.1354
     64  N         74.9900    2.5140   34.4070 N.3   218  TYR218     -0.1241
     65  CA        76.1180    1.7580   33.8630 C.3   218  TYR218      0.1605
     66  C         76.5630    0.5750   34.7920 C.2   218  TYR218      0.2264
     67  O         77.6970    0.0820   34.7150 O.2   218  TYR218     -0.2867
     68  CB        77.2480    2.7260   33.5030 C.3   218  TYR218      0.0534
     69  CG        77.7010    3.5800   34.6990 C.ar  218  TYR218     -0.0201
     70  CD1       78.6140    3.0940   35.6260 C.ar  218  TYR218     -0.0009
     71  CD2       77.2070    4.8930   34.8690 C.ar  218  TYR218     -0.0009
     72  CE1       79.0110    3.8850   36.6970 C.ar  218  TYR218      0.0417
     73  CE2       77.6100    5.7160   35.9220 C.ar  218  TYR218      0.0417
     74  CZ        78.5090    5.1910   36.8410 C.ar  218  TYR218      0.1957
     75  OH        78.9330    5.9620   37.9210 O.3   218  TYR218     -0.2866
     76  N         81.7270    8.8460   19.5400 N.3   286  ASN286     -0.1240
     77  CA        81.1920    9.7890   20.5730 C.3   286  ASN286      0.1653
     78  C         80.9900   11.2580   20.1610 C.2   286  ASN286      0.2266
     79  O         80.1400   11.9310   20.7340 O.2   286  ASN286     -0.2867
     80  CB        81.9840    9.6610   21.9070 C.3   286  ASN286      0.1155
     81  CG        81.6850    8.3590   22.5980 C.2   286  ASN286      0.2627
     82  OD1       80.6220    7.7950   22.4540 O.2   286  ASN286     -0.2716
     83  ND2       82.6330    7.8590   23.2920 N.am  286  ASN286     -0.0877
     84  N         77.3460   11.4370   21.5070 N.3   290  LEU290     -0.1245
     85  CA        77.1160   12.2710   22.6920 C.3   290  LEU290      0.1561
     86  C         76.6570   13.7000   22.4320 C.2   290  LEU290      0.2260
     87  O         76.4380   14.4610   23.3990 O.2   290  LEU290     -0.2867
     88  CB        78.3860   12.2680   23.5810 C.3   290  LEU290      0.0270
     89  CG        78.8270   10.8660   23.9570 C.3   290  LEU290      0.0019
     90  CD1       80.0700   10.9590   24.8530 C.3   290  LEU290      0.0001
     91  CD2       77.7260   10.0130   24.5780 C.3   290  LEU290      0.0001
     92  N         75.9370    0.4490   22.2980 N.3   313  THR313     -0.1203
     93  CA        77.3660    0.4370   22.7890 C.3   313  THR313      0.1994
     94  C         77.4340    0.6640   24.3180 C.2   313  THR313      0.2618
     95  O         76.5280    1.2620   24.9200 O.2   313  THR313     -0.2717
     96  CB        78.1720    1.5560   22.1320 C.3   313  THR313      0.1784
     97  OG1       77.5040    2.8140   22.3570 O.3   313  THR313     -0.2211
     98  CG2       78.2820    1.2400   20.6600 C.3   313  THR313      0.0376
     99  N         78.5350    0.2020   24.9360 N.am  314  GLY314     -0.1942
    100  CA        78.6880    0.4740   26.3550 C.3   314  GLY314      0.2014
    101  C         80.1540    0.3790   26.7530 C.2   314  GLY314      0.2639
    102  O         80.8670   -0.5010   26.3010 O.2   314  GLY314     -0.2714
    103  N         80.5880    1.2590   27.6380 N.am  315  ALA315     -0.1963
    104  CA        81.9930    1.2130   28.0290 C.3   315  ALA315      0.1728
    105  C         82.1500    1.4640   29.5130 C.2   315  ALA315      0.2617
    106  O         81.3240    2.0740   30.1370 O.2   315  ALA315     -0.2715
    107  CB        82.7960    2.2620   27.2380 C.3   315  ALA315      0.0334
    108  N         83.2400    1.0140   30.0800 N.am  316  THR316     -0.1937
    109  CA        83.6370    1.6510   31.3550 C.3   316  THR316      0.2028
    110  C         85.1010    1.9170   31.1960 C.2   316  THR316      0.2642
    111  O         85.6380    1.6970   30.0990 O.2   316  THR316     -0.2714
    112  CB        83.4420    0.7560   32.5800 C.3   316  THR316      0.1808
    113  OG1       84.1710   -0.4510   32.3640 O.3   316  THR316     -0.2208
    114  CG2       81.9190    0.4930   32.8490 C.3   316  THR316      0.0379
    115  N         85.7750    2.4210   32.2350 N.am  317  GLY317     -0.1954
    116  CA        87.2040    2.6530   32.1100 C.3   317  GLY317      0.1869
    117  C         88.0190    1.4640   31.6120 C.2   317  GLY317      0.2309
    118  O         88.9500    1.6220   30.8160 O.2   317  GLY317     -0.2863
    119  N         88.4770   -0.7720   26.8280 N.3   340  ASN340     -0.1240
    120  CA        87.6160    0.2140   26.1840 C.3   340  ASN340      0.1653
    121  C         88.1970    0.7030   24.8660 C.2   340  ASN340      0.2266
    122  O         89.0090    1.6420   24.8390 O.2   340  ASN340     -0.2867
    123  CB        87.4050    1.4500   27.0690 C.3   340  ASN340      0.1155
    124  CG        86.5360    2.5080   26.3900 C.2   340  ASN340      0.2627
    125  OD1       85.8580    2.2430   25.4060 O.2   340  ASN340     -0.2716
    126  ND2       86.4940    3.6850   26.9660 N.am  340  ASN340     -0.0877
    127  N         84.1270    2.9270   19.7540 N.3   343  ASN343     -0.1240
    128  CA        82.8730    2.3680   19.3040 C.3   343  ASN343      0.1653
    129  C         82.8480    1.9450   17.8140 C.2   343  ASN343      0.2266
    130  O         82.2870    0.8810   17.4970 O.2   343  ASN343     -0.2867
    131  CB        81.7220    3.3130   19.5610 C.3   343  ASN343      0.1155
    132  CG        81.4670    3.5370   21.0400 C.2   343  ASN343      0.2627
    133  OD1       81.5730    2.6160   21.8540 O.2   343  ASN343     -0.2716
    134  ND2       81.0320    4.7470   21.3810 N.am  343  ASN343     -0.0877
@<TRIPOS>BOND
     1   130   129    2
     2   129   128    1
     3   128   131    1
     4   128   127    1
     5    76    77    1
     6   131   132    1
     7    78    77    1
     8    78    79    2
     9    77    80    1
    10    98    96    1
    11   132   134   am
    12   132   133    2
    13    84    85    1
    14    80    81    1
    15    96    97    1
    16    96    93    1
    17    92    93    1
    18    86    85    1
    19    86    87    2
    20    82    81    2
    21    81    83   am
    22    85    88    1
    23    93    94    1
    24    88    89    1
    25    89    91    1
    26    89    90    1
    27    94    95    2
    28    94    99   am
    29   122   121    2
    30   121   120    1
    31    99   100    1
    32    37    38    1
    33    37    34    1
    34    40    38   ar
    35    40    42   ar
    36    33    34    1
    37   125   124    2
    38    38    39   ar
    39    42    43   ar
    40    34    35    1
    41   120   119    1
    42   120   123    1
    43   102   101    2
    44   100   101    1
    45    43    44    1
    46    43    41   ar
    47    39    41   ar
    48   124   126   am
    49   124   123    1
    50   101   103   am
    51    35    36    2
    52   107   104    1
    53   103   104    1
    54     5     6    1
    55     5     2    1
    56   104   105    1
    57     4     3    2
    58    23    21    1
    59     3     2    1
    60    22    21    1
    61    13    14    1
    62    13    12    1
    63     2     1    1
    64    11    12    1
    65    11     8    1
    66    21    20    1
    67     9    10    2
    68     9     8    1
    69   105   108   am
    70   105   106    2
    71    20    17    1
    72    14    15    1
    73     8     7    1
    74   108   109    1
    75   111   110    2
    76    17    16    1
    77    17    18    1
    78   118   117    2
    79    54    55    1
    80    54    53    1
    81    54    57    1
    82    55    56    2
    83   110   109    1
    84   110   115   am
    85   109   112    1
    86    45    46    1
    87    58    57    1
    88    58    59    1
    89    51    50    2
    90   117   116    1
    91    18    19    2
    92    18    24   am
    93    32    30   am
    94    60    59    1
    95    60    61    2
    96   116   115    1
    97    63    61    1
    98   113   112    1
    99    50    52   am
   100    50    49    1
   101   112   114    1
   102    46    49    1
   103    46    47    1
   104    61    62    1
   105    24    25    1
   106    30    29    1
   107    30    31    2
   108    29    28    1
   109    68    65    1
   110    68    69    1
   111    47    48    2
   112    65    64    1
   113    65    66    1
   114    25    28    1
   115    25    26    1
   116    69    71   ar
   117    69    70   ar
   118    67    66    2
   119    71    73   ar
   120    26    27    2
   121    70    72   ar
   122    73    74   ar
   123    72    74   ar
   124    74    75    1
