@<TRIPOS>MOLECULE
tmp/4jxwB00.pdb
 150 142 0 0 0
SMALL
GASTEIGER

@<TRIPOS>ATOM
      1  N         77.4040    1.4690   29.9110 N.3    61  SER61      -0.1217
      2  CA        76.1020    1.8290   29.3160 C.3    61  SER61       0.1889
      3  C         75.2140    0.6560   28.7950 C.2    61  SER61       0.2288
      4  O         74.0080    0.8100   28.6470 O.2    61  SER61      -0.2866
      5  CB        76.2360    2.8510   28.1930 C.3    61  SER61       0.2089
      6  OG        76.6080    4.1240   28.7310 O.3    61  SER61      -0.2183
      7  N         71.8180    0.3410   30.6530 N.3    64  LYS64      -0.1245
      8  CA        70.6280    1.1390   30.3200 C.3    64  LYS64       0.1561
      9  C         69.5190    0.3310   29.6430 C.2    64  LYS64       0.2260
     10  O         68.3150    0.7080   29.6910 O.2    64  LYS64      -0.2867
     11  CB        71.0960    2.3100   29.3920 C.3    64  LYS64       0.0271
     12  CG        72.0120    3.3610   30.1170 C.3    64  LYS64       0.0035
     13  CD        72.3190    4.5290   29.2000 C.3    64  LYS64       0.0206
     14  CE        73.2020    5.5660   29.8470 C.3    64  LYS64       0.1093
     15  NZ        74.5580    5.0280   30.4230 N.3    64  LYS64      -0.1314
     16  N         75.4650   14.8410   31.1940 N.3   116  LEU116     -0.1231
     17  CA        76.0490   13.5020   30.9210 C.3   116  LEU116      0.1693
     18  C         76.3120   12.6420   32.1750 C.2   116  LEU116      0.2592
     19  O         75.9190   11.4560   32.2310 O.2   116  LEU116     -0.2718
     20  CB        77.3460   13.6070   30.1030 C.3   116  LEU116      0.0284
     21  CG        78.0240   12.2470   29.7150 C.3   116  LEU116      0.0019
     22  CD1       77.1010   11.3190   28.9890 C.3   116  LEU116      0.0001
     23  CD2       79.3180   12.4690   28.8240 C.3   116  LEU116      0.0001
     24  N         76.9570   13.2310   33.1780 N.am  117  GLN117     -0.1966
     25  CA        77.1420   12.5230   34.4320 C.3   117  GLN117      0.1733
     26  C         76.5430   13.3250   35.5250 C.2   117  GLN117      0.2616
     27  O         76.5050   14.5480   35.4830 O.2   117  GLN117     -0.2715
     28  CB        78.6300   12.3320   34.8430 C.3   117  GLN117      0.0408
     29  CG        79.5520   11.8420   33.7850 C.3   117  GLN117      0.0908
     30  CD        79.4390   10.3610   33.4850 C.2   117  GLN117      0.2608
     31  OE1       78.7360    9.5940   34.1860 O.2   117  GLN117     -0.2717
     32  NE2       80.1570    9.9310   32.4240 N.am  117  GLN117     -0.0878
     33  N         76.1890   12.5890   36.5660 N.am  118  VAL118     -0.1964
     34  CA        75.9520   13.1580   37.8980 C.3   118  VAL118      0.1715
     35  C         77.3200   13.5040   38.4250 C.2   118  VAL118      0.2496
     36  O         78.2370   12.6420   38.4920 O.2   118  VAL118     -0.2727
     37  CB        75.2760   12.1670   38.8200 C.3   118  VAL118      0.0289
     38  CG1       74.8510   12.8430   40.0670 C.3   118  VAL118      0.0023
     39  CG2       74.0130   11.5300   38.0980 C.3   118  VAL118      0.0023
     40  N         77.5000   14.7820   38.7790 N.am  119  PRO119     -0.2490
     41  CA        78.8500   15.1400   39.2410 C.3   119  PRO119      0.1619
     42  C         79.2850   14.1600   40.3730 C.2   119  PRO119      0.2605
     43  O         78.4640   13.7670   41.2300 O.2   119  PRO119     -0.2715
     44  CB        78.6890   16.5700   39.7870 C.3   119  PRO119      0.0570
     45  CG        77.2570   16.9640   39.5730 C.2   119  PRO119     -0.0077
     46  CD        76.5180   15.8910   38.8310 C.2   119  PRO119      0.0634
     47  N         80.5630   13.7730   40.3640 N.am  120  ASP120     -0.1972
     48  CA        81.1110   12.8190   41.3080 C.3   120  ASP120      0.1709
     49  C         81.1420   13.3400   42.7640 C.2   120  ASP120      0.2293
     50  O         81.3030   12.5440   43.6890 O.2   120  ASP120     -0.2864
     51  CB        82.5200   12.4000   40.8840 C.3   120  ASP120      0.1436
     52  CG        83.2370   11.6500   41.9830 C.2   120  ASP120      0.3671
     53  OD1       82.7480   10.5330   42.3000 O.co2 120  ASP120     -0.2456
     54  OD2       84.2290   12.1710   42.5610 O.co2 120  ASP120     -0.2456
     55  N         72.4370   12.5310   25.3480 N.3   147  TYR147     -0.1241
     56  CA        72.6760   11.2760   26.0810 C.3   147  TYR147      0.1605
     57  C         73.1180   11.6170   27.5160 C.2   147  TYR147      0.2264
     58  O         73.9750   12.4440   27.7080 O.2   147  TYR147     -0.2867
     59  CB        73.7100   10.4160   25.3400 C.3   147  TYR147      0.0534
     60  CG        73.9940    9.0340   25.8920 C.ar  147  TYR147     -0.0201
     61  CD1       75.0670    8.8150   26.7690 C.ar  147  TYR147     -0.0009
     62  CD2       73.2740    7.9230   25.4810 C.ar  147  TYR147     -0.0009
     63  CE1       75.3700    7.5520   27.2680 C.ar  147  TYR147      0.0417
     64  CE2       73.5900    6.6200   25.9700 C.ar  147  TYR147      0.0417
     65  CZ        74.6670    6.4560   26.8680 C.ar  147  TYR147      0.1957
     66  OH        75.0040    5.1860   27.3930 O.3   147  TYR147     -0.2866
     67  N         73.4430   10.0030   31.7440 N.3   149  ASN149     -0.1240
     68  CA        73.2620    9.1020   32.9280 C.3   149  ASN149      0.1653
     69  C         72.3340    9.7810   33.9790 C.2   149  ASN149      0.2266
     70  O         71.5380    9.1440   34.6800 O.2   149  ASN149     -0.2867
     71  CB        74.6070    8.8300   33.6210 C.3   149  ASN149      0.1155
     72  CG        75.5060    7.8850   32.8380 C.2   149  ASN149      0.2627
     73  OD1       75.0630    7.1240   31.9420 O.2   149  ASN149     -0.2716
     74  ND2       76.8110    7.9510   33.1550 N.am  149  ASN149     -0.0877
     75  N         85.0340   -0.5160   37.6330 N.3   208  VAL208     -0.1231
     76  CA        84.2260    0.7220   37.8260 C.3   208  VAL208      0.1692
     77  C         84.1710    1.1250   39.2950 C.2   208  VAL208      0.2592
     78  O         84.1160    0.2590   40.1640 O.2   208  VAL208     -0.2718
     79  CB        82.7690    0.6030   37.2890 C.3   208  VAL208      0.0266
     80  CG1       82.0410   -0.5540   37.9440 C.3   208  VAL208      0.0020
     81  CG2       82.0080    1.8950   37.5360 C.3   208  VAL208      0.0020
     82  N         84.2110    2.4350   39.5350 N.am  209  SER209     -0.1952
     83  CA        84.0750    3.0780   40.8560 C.3   209  SER209      0.1924
     84  C         82.6150    3.2910   41.2100 C.2   209  SER209      0.2314
     85  O         81.8430    3.6900   40.3390 O.2   209  SER209     -0.2863
     86  CB        84.7210    4.4720   40.8160 C.3   209  SER209      0.2116
     87  OG        86.0600    4.3780   41.2670 O.3   209  SER209     -0.2180
     88  N         74.9560    2.3930   34.5640 N.3   218  TYR218     -0.1241
     89  CA        76.1650    1.7700   34.0060 C.3   218  TYR218      0.1605
     90  C         76.7310    0.7060   34.9950 C.2   218  TYR218      0.2264
     91  O         77.8850    0.2730   34.8720 O.2   218  TYR218     -0.2867
     92  CB        77.2310    2.8290   33.6560 C.3   218  TYR218      0.0534
     93  CG        77.6650    3.6780   34.8730 C.ar  218  TYR218     -0.0201
     94  CD1       78.5760    3.1760   35.8320 C.ar  218  TYR218     -0.0009
     95  CD2       77.1660    4.9640   35.0800 C.ar  218  TYR218     -0.0009
     96  CE1       78.9600    3.9650   36.9810 C.ar  218  TYR218      0.0417
     97  CE2       77.5320    5.7420   36.1890 C.ar  218  TYR218      0.0417
     98  CZ        78.4480    5.2210   37.1290 C.ar  218  TYR218      0.1957
     99  OH        78.8310    5.9630   38.2270 O.3   218  TYR218     -0.2866
    100  N         81.7240    9.1690   19.8580 N.3   286  ASN286     -0.1240
    101  CA        81.2180    9.9810   20.9840 C.3   286  ASN286      0.1653
    102  C         81.0140   11.4060   20.6010 C.2   286  ASN286      0.2266
    103  O         80.0610   12.0310   21.0760 O.2   286  ASN286     -0.2867
    104  CB        82.0600    9.7980   22.2740 C.3   286  ASN286      0.1155
    105  CG        81.8120    8.4050   22.9540 C.2   286  ASN286      0.2627
    106  OD1       80.8080    7.7570   22.7310 O.2   286  ASN286     -0.2716
    107  ND2       82.7410    7.9630   23.7250 N.am  286  ASN286     -0.0877
    108  N         77.2330   11.6020   21.8160 N.3   290  LEU290     -0.1245
    109  CA        77.0260   12.4230   22.9890 C.3   290  LEU290      0.1561
    110  C         76.6530   13.9250   22.7290 C.2   290  LEU290      0.2260
    111  O         76.4450   14.6760   23.6770 O.2   290  LEU290     -0.2867
    112  CB        78.2800   12.3470   23.8330 C.3   290  LEU290      0.0270
    113  CG        78.9160   11.0010   24.1610 C.3   290  LEU290      0.0019
    114  CD1       80.0730   11.2480   25.1780 C.3   290  LEU290      0.0001
    115  CD2       77.9130   10.0290   24.7080 C.3   290  LEU290      0.0001
    116  N         75.8480    0.5760   22.5230 N.3   313  THR313     -0.1203
    117  CA        77.2240    0.6200   23.1010 C.3   313  THR313      0.1994
    118  C         77.2710    0.9330   24.6050 C.2   313  THR313      0.2618
    119  O         76.2970    1.4990   25.2230 O.2   313  THR313     -0.2717
    120  CB        78.0400    1.7000   22.4180 C.3   313  THR313      0.1784
    121  OG1       77.2980    2.8950   22.5290 O.3   313  THR313     -0.2211
    122  CG2       78.2130    1.3900   20.9230 C.3   313  THR313      0.0376
    123  N         78.3930    0.5530   25.2160 N.am  314  GLY314     -0.1942
    124  CA        78.5580    0.7860   26.6340 C.3   314  GLY314      0.2014
    125  C         79.9580    0.5170   27.1110 C.2   314  GLY314      0.2639
    126  O         80.5230   -0.5290   26.8130 O.2   314  GLY314     -0.2714
    127  N         80.5140    1.4510   27.8830 N.am  315  ALA315     -0.1963
    128  CA        81.8900    1.3300   28.3650 C.3   315  ALA315      0.1728
    129  C         81.9890    1.6570   29.8950 C.2   315  ALA315      0.2617
    130  O         81.0610    2.2250   30.4970 O.2   315  ALA315     -0.2715
    131  CB        82.7920    2.2660   27.5520 C.3   315  ALA315      0.0334
    132  N         83.0760    1.2250   30.5050 N.am  316  THR316     -0.1937
    133  CA        83.5310    1.8130   31.7400 C.3   316  THR316      0.2028
    134  C         85.0270    2.0910   31.5090 C.2   316  THR316      0.2642
    135  O         85.5760    1.6620   30.4910 O.2   316  THR316     -0.2714
    136  CB        83.3550    0.8790   32.9550 C.3   316  THR316      0.1808
    137  OG1       84.1860   -0.2840   32.7780 O.3   316  THR316     -0.2208
    138  CG2       81.8770    0.4820   33.1380 C.3   316  THR316      0.0379
    139  N         85.6810    2.8110   32.4210 N.am  317  GLY317     -0.1954
    140  CA        87.1270    3.0080   32.3390 C.3   317  GLY317      0.1869
    141  C         87.9520    1.8310   31.8390 C.2   317  GLY317      0.2309
    142  O         88.8590    2.0230   31.0200 O.2   317  GLY317     -0.2863
    143  N         84.1570    2.9960   20.0030 N.3   343  ASN343     -0.1240
    144  CA        82.8680    2.4490   19.5770 C.3   343  ASN343      0.1653
    145  C         82.7450    1.9990   18.1040 C.2   343  ASN343      0.2266
    146  O         82.1960    0.8980   17.8320 O.2   343  ASN343     -0.2867
    147  CB        81.6860    3.4010   19.9160 C.3   343  ASN343      0.1155
    148  CG        81.5080    3.6390   21.4220 C.2   343  ASN343      0.2627
    149  OD1       81.6310    2.7160   22.2040 O.2   343  ASN343     -0.2716
    150  ND2       81.1710    4.8730   21.8090 N.am  343  ASN343     -0.0877
@<TRIPOS>BOND
     1   146   145    2
     2   145   144    1
     3   144   147    1
     4   144   143    1
     5   100   101    1
     6   147   148    1
     7   102   101    1
     8   102   103    2
     9   122   120    1
    10   101   104    1
    11   148   150   am
    12   148   149    2
    13   108   109    1
    14   104   105    1
    15   120   121    1
    16   120   117    1
    17   116   117    1
    18   110   109    1
    19   110   111    2
    20   106   105    2
    21   105   107   am
    22   109   112    1
    23   117   118    1
    24   112   113    1
    25   113   115    1
    26   113   114    1
    27   118   123   am
    28   118   119    2
    29   123   124    1
    30    59    60    1
    31    59    56    1
    32    55    56    1
    33    62    60   ar
    34    62    64   ar
    35    60    61   ar
    36    64    65   ar
    37    56    57    1
    38   124   125    1
    39    61    63   ar
    40   126   125    2
    41    65    63   ar
    42    65    66    1
    43   125   127   am
    44    57    58    2
    45   131   128    1
    46   127   128    1
    47     5     6    1
    48     5     2    1
    49   128   129    1
    50     4     3    2
    51     3     2    1
    52    23    21    1
    53    22    21    1
    54    13    14    1
    55    13    12    1
    56     2     1    1
    57    11    12    1
    58    11     8    1
    59     9    10    2
    60     9     8    1
    61    21    20    1
    62    14    15    1
    63   129   130    2
    64   129   132   am
    65    20    17    1
    66     8     7    1
    67   135   134    2
    68   132   133    1
    69    17    16    1
    70    17    18    1
    71   142   141    2
    72   134   133    1
    73   134   139   am
    74   133   136    1
    75    67    68    1
    76   141   140    1
    77    73    72    2
    78    18    19    2
    79    18    24   am
    80   140   139    1
    81    32    30   am
    82   137   136    1
    83    72    74   am
    84    72    71    1
    85    68    71    1
    86    68    69    1
    87   136   138    1
    88    24    25    1
    89    30    29    1
    90    30    31    2
    91    92    89    1
    92    92    93    1
    93    29    28    1
    94    69    70    2
    95    89    88    1
    96    89    90    1
    97    25    28    1
    98    25    26    1
    99    91    90    2
   100    93    95   ar
   101    93    94   ar
   102    95    97   ar
   103    27    26    2
   104    26    33   am
   105    94    96   ar
   106    97    98   ar
   107    33    34    1
   108    96    98   ar
   109    98    99    1
   110    79    81    1
   111    79    76    1
   112    79    80    1
   113    75    76    1
   114    76    77    1
   115    34    35    1
   116    34    37    1
   117    39    37    1
   118    35    36    2
   119    35    40   am
   120    40    46    1
   121    40    41    1
   122    37    38    1
   123    46    45    2
   124    41    44    1
   125    41    42    1
   126    77    82   am
   127    77    78    2
   128    82    83    1
   129    45    44    1
   130    85    84    2
   131    47    42   am
   132    47    48    1
   133    42    43    2
   134    86    83    1
   135    86    87    1
   136    83    84    1
   137    51    48    1
   138    51    52    1
   139    48    49    1
   140    52    53   ar
   141    52    54   ar
   142    49    50    2
