@<TRIPOS>MOLECULE
tmp/4jy0B00.pdb
 215 203 0 0 0
SMALL
GASTEIGER

@<TRIPOS>ATOM
      1  N        -34.5490    3.4710  -23.5920 N.3   143  GLU143     -0.1245
      2  CA       -34.0830    2.3030  -22.8480 C.3   143  GLU143      0.1567
      3  C        -34.5830    0.9780  -23.4530 C.2   143  GLU143      0.2260
      4  O        -35.6940    0.8990  -23.9830 O.2   143  GLU143     -0.2867
      5  CB       -34.5100    2.4090  -21.3840 C.3   143  GLU143      0.0388
      6  CG       -33.8760    3.5660  -20.6390 C.3   143  GLU143      0.1160
      7  CD       -34.3710    3.6620  -19.2140 C.2   143  GLU143      0.3649
      8  OE1      -35.5770    3.9280  -19.0100 O.co2 143  GLU143     -0.2457
      9  OE2      -33.5520    3.4590  -18.2950 O.co2 143  GLU143     -0.2457
     10  N        -35.6420   -3.0480  -23.1420 N.3   145  PHE145     -0.1241
     11  CA       -36.2310   -4.0370  -22.2500 C.3   145  PHE145      0.1605
     12  C        -36.7410   -5.2310  -23.0500 C.2   145  PHE145      0.2264
     13  O        -36.6650   -5.2580  -24.2790 O.2   145  PHE145     -0.2867
     14  CB       -37.4180   -3.4440  -21.4980 C.3   145  PHE145      0.0534
     15  CG       -37.0600   -2.3240  -20.5790 C.ar  145  PHE145     -0.0203
     16  CD1      -36.3580   -2.5700  -19.4070 C.ar  145  PHE145     -0.0042
     17  CD2      -37.4270   -1.0190  -20.8820 C.ar  145  PHE145     -0.0042
     18  CE1      -36.0270   -1.5370  -18.5490 C.ar  145  PHE145     -0.0003
     19  CE2      -37.0980    0.0240  -20.0260 C.ar  145  PHE145     -0.0003
     20  CZ       -36.3960   -0.2370  -18.8570 C.ar  145  PHE145     -0.0000
     21  N        -39.0830    6.7290  -19.9830 N.3   153  ARG153     -0.1245
     22  CA       -38.9470    7.6170  -18.8480 C.3   153  ARG153      0.1563
     23  C        -38.7290    8.9980  -19.4460 C.2   153  ARG153      0.2260
     24  O        -38.3660    9.1270  -20.6210 O.2   153  ARG153     -0.2867
     25  CB       -37.7430    7.2290  -17.9830 C.3   153  ARG153      0.0307
     26  CG       -37.9500    5.9740  -17.1450 C.3   153  ARG153      0.0489
     27  CD       -36.9250    5.8990  -16.0260 C.3   153  ARG153      0.2205
     28  NE       -37.3400    4.9960  -14.9500 N.pl3 153  ARG153     -0.0865
     29  CZ       -37.2000    3.6710  -14.9720 C.cat 153  ARG153      0.5346
     30  NH1      -36.6490    3.0720  -16.0230 N.pl3 153  ARG153      0.1354
     31  NH2      -37.6030    2.9420  -13.9350 N.pl3 153  ARG153      0.1354
     32  N        -24.2370    4.4190   -2.1640 N.3   188  PHE188     -0.1241
     33  CA       -23.2270    4.6540   -3.1880 C.3   188  PHE188      0.1605
     34  C        -21.7640    4.6070   -2.7550 C.2   188  PHE188      0.2264
     35  O        -20.8670    4.6770   -3.5940 O.2   188  PHE188     -0.2867
     36  CB       -23.5270    5.9810   -3.8980 C.3   188  PHE188      0.0534
     37  CG       -24.8500    5.9910   -4.6280 C.ar  188  PHE188     -0.0203
     38  CD1      -25.0540    5.1800   -5.7350 C.ar  188  PHE188     -0.0042
     39  CD2      -25.8940    6.7950   -4.1960 C.ar  188  PHE188     -0.0042
     40  CE1      -26.2760    5.1730   -6.3940 C.ar  188  PHE188     -0.0003
     41  CE2      -27.1150    6.7910   -4.8500 C.ar  188  PHE188     -0.0003
     42  CZ       -27.3070    5.9800   -5.9490 C.ar  188  PHE188     -0.0000
     43  N        -19.6310   -3.5420   -5.0130 N.3   192  PRO192     -0.2116
     44  CA       -20.5440   -4.6860   -4.9310 C.3   192  PRO192      0.1372
     45  C        -20.2830   -5.5660   -3.7090 C.2   192  PRO192      0.2244
     46  O        -21.2170   -5.9620   -3.0090 O.2   192  PRO192     -0.2868
     47  CB       -20.2950   -5.4150   -6.2450 C.3   192  PRO192      0.0268
     48  CG       -19.9780   -4.2760   -7.1880 C.3   192  PRO192      0.0207
     49  CD       -19.0400   -3.4280   -6.3590 C.3   192  PRO192      0.0892
     50  N        -21.1750   -3.6610   -0.4090 N.3   195  ARG195     -0.1245
     51  CA       -22.6200   -3.5720   -0.2430 C.3   195  ARG195      0.1563
     52  C        -23.1680   -4.8760    0.3220 C.2   195  ARG195      0.2260
     53  O        -23.9780   -4.8630    1.2460 O.2   195  ARG195     -0.2867
     54  CB       -23.3190   -3.2710   -1.5710 C.3   195  ARG195      0.0307
     55  CG       -24.8300   -3.0810   -1.4100 C.3   195  ARG195      0.0489
     56  CD       -25.5810   -3.0700   -2.7460 C.3   195  ARG195      0.2205
     57  NE       -27.0280   -2.9640   -2.5440 N.pl3 195  ARG195     -0.0865
     58  CZ       -27.6840   -1.8180   -2.3700 C.cat 195  ARG195      0.5346
     59  NH1      -27.0280   -0.6650   -2.3830 N.pl3 195  ARG195      0.1354
     60  NH2      -28.9950   -1.8290   -2.1640 N.pl3 195  ARG195      0.1354
     61  N        -30.0450    4.3520   -2.1090 N.3   311  ASN311     -0.1240
     62  CA       -29.3310    4.7240   -3.3250 C.3   311  ASN311      0.1653
     63  C        -30.3790    5.5090   -4.1140 C.2   311  ASN311      0.2266
     64  O        -31.2020    4.9160   -4.8130 O.2   311  ASN311     -0.2867
     65  CB       -28.9150    3.4960   -4.1510 C.3   311  ASN311      0.1155
     66  CG       -27.8280    2.6600   -3.4830 C.2   311  ASN311      0.2627
     67  OD1      -28.0210    2.1110   -2.3980 O.2   311  ASN311     -0.2716
     68  ND2      -26.6820    2.5490   -4.1450 N.am  311  ASN311     -0.0877
     69  N        -34.1050    4.3730   -4.5470 N.3   314  ASP314     -0.1239
     70  CA       -34.1400    2.9590   -4.1710 C.3   314  ASP314      0.1674
     71  C        -33.9590    2.7950   -2.6610 C.2   314  ASP314      0.2266
     72  O        -32.9510    3.2200   -2.0890 O.2   314  ASP314     -0.2867
     73  CB       -33.0490    2.1980   -4.9320 C.3   314  ASP314      0.1410
     74  CG       -33.1920    0.6940   -4.8140 C.2   314  ASP314      0.3668
     75  OD1      -32.9110    0.1410   -3.7290 O.co2 314  ASP314     -0.2456
     76  OD2      -33.5960    0.0640   -5.8110 O.co2 314  ASP314     -0.2456
     77  N        -32.0450   -2.1830   -5.2180 N.3   361  CYS361     -0.1221
     78  CA       -31.2150   -1.7890   -6.3560 C.3   361  CYS361      0.1808
     79  C        -31.3310   -2.8170   -7.4810 C.2   361  CYS361      0.2602
     80  O        -30.3420   -3.1730   -8.1320 O.2   361  CYS361     -0.2717
     81  CB       -29.7490   -1.6250   -5.9430 C.3   361  CYS361      0.0970
     82  SG       -29.3040    0.0580   -5.4280 S.3   361  CYS361     -0.0800
     83  N        -32.5560   -3.2890   -7.6960 N.am  362  SER362     -0.1938
     84  CA       -32.8400   -4.2600   -8.7430 C.3   362  SER362      0.2055
     85  C        -32.0800   -5.5570   -8.5320 C.2   362  SER362      0.2643
     86  O        -31.9990   -6.3860   -9.4380 O.2   362  SER362     -0.2714
     87  CB       -32.4600   -3.6790  -10.1050 C.3   362  SER362      0.2130
     88  OG       -33.0880   -2.4290  -10.3130 O.3   362  SER362     -0.2179
     89  N        -31.5250   -5.7330   -7.3390 N.am  363  SER363     -0.1949
     90  CA       -30.7530   -6.9260   -7.0490 C.3   363  SER363      0.1924
     91  C        -31.1640   -7.6120   -5.7590 C.2   363  SER363      0.2314
     92  O        -31.9120   -7.0590   -4.9540 O.2   363  SER363     -0.2863
     93  CB       -29.2720   -6.5700   -6.9640 C.3   363  SER363      0.2116
     94  OG       -28.8580   -5.8310   -8.0950 O.3   363  SER363     -0.2180
     95  N        -24.0760  -10.4300   -5.1130 N.3   379  LEU379     -0.1245
     96  CA       -25.2960   -9.7960   -5.5940 C.3   379  LEU379      0.1561
     97  C        -25.6190  -10.2470   -7.0170 C.2   379  LEU379      0.2260
     98  O        -24.7350  -10.3210   -7.8710 O.2   379  LEU379     -0.2867
     99  CB       -25.1310   -8.2730   -5.5540 C.3   379  LEU379      0.0270
    100  CG       -25.9590   -7.4900   -4.5300 C.3   379  LEU379      0.0019
    101  CD1      -26.3200   -8.3600   -3.3420 C.3   379  LEU379      0.0001
    102  CD2      -25.1650   -6.2570   -4.0970 C.3   379  LEU379      0.0001
    103  N        -29.2670  -10.7800  -10.0340 N.3   381  ARG381     -0.1245
    104  CA       -30.5780  -10.3000  -10.4530 C.3   381  ARG381      0.1563
    105  C        -31.0240  -11.0350  -11.7050 C.2   381  ARG381      0.2260
    106  O        -30.2120  -11.6650  -12.3850 O.2   381  ARG381     -0.2867
    107  CB       -30.5390   -8.7940  -10.7520 C.3   381  ARG381      0.0307
    108  CG       -29.5240   -8.3920  -11.8190 C.3   381  ARG381      0.0489
    109  CD       -29.8040   -6.9900  -12.3510 C.3   381  ARG381      0.2205
    110  NE       -30.9070   -6.9750  -13.3090 N.pl3 381  ARG381     -0.0865
    111  CZ       -31.5870   -5.8850  -13.6490 C.cat 381  ARG381      0.5346
    112  NH1      -31.2830   -4.7150  -13.1060 N.pl3 381  ARG381      0.1354
    113  NH2      -32.5690   -5.9590  -14.5370 N.pl3 381  ARG381      0.1354
    114  N        -33.2510   -8.1190  -18.5500 N.3   385  THR385     -0.1204
    115  CA       -32.9320   -6.7800  -19.0230 C.3   385  THR385      0.1979
    116  C        -31.4600   -6.6680  -19.4100 C.2   385  THR385      0.2459
    117  O        -31.1300   -6.1760  -20.4880 O.2   385  THR385     -0.2732
    118  CB       -33.3020   -5.7280  -17.9660 C.3   385  THR385      0.1783
    119  OG1      -34.7110   -5.7990  -17.7160 O.3   385  THR385     -0.2211
    120  CG2      -32.9550   -4.3250  -18.4500 C.3   385  THR385      0.0376
    121  N        -30.5490   -7.1380  -18.5480 N.am  386  PRO386     -0.2728
    122  CA       -29.1360   -7.0360  -18.9230 C.3   386  PRO386      0.1401
    123  C        -28.8350   -7.7320  -20.2540 C.2   386  PRO386      0.2269
    124  O        -28.1510   -7.1750  -21.1150 O.2   386  PRO386     -0.2865
    125  CB       -28.4250   -7.6960  -17.7470 C.3   386  PRO386      0.0296
    126  CG       -29.2900   -7.3290  -16.6080 C.3   386  PRO386      0.0237
    127  CD       -30.6830   -7.5760  -17.1480 C.3   386  PRO386      0.0939
    128  N        -30.2380   -5.9400  -23.3300 N.3   389  ARG389     -0.1245
    129  CA       -29.4200   -4.7800  -23.6530 C.3   389  ARG389      0.1563
    130  C        -28.1030   -5.2130  -24.2680 C.2   389  ARG389      0.2260
    131  O        -27.5440   -4.5100  -25.1060 O.2   389  ARG389     -0.2867
    132  CB       -29.2000   -3.9260  -22.3990 C.3   389  ARG389      0.0307
    133  CG       -30.4740   -3.2300  -21.9730 C.3   389  ARG389      0.0489
    134  CD       -30.3610   -2.4790  -20.6630 C.3   389  ARG389      0.2205
    135  NE       -31.6640   -1.9270  -20.3110 N.pl3 389  ARG389     -0.0865
    136  CZ       -31.9180   -1.2090  -19.2230 C.cat 389  ARG389      0.5346
    137  NH1      -30.9520   -0.9420  -18.3520 N.pl3 389  ARG389      0.1354
    138  NH2      -33.1460   -0.7560  -19.0110 N.pl3 389  ARG389      0.1354
    139  N        -23.6460   -0.9620  -21.5440 N.3   402  SER402     -0.1217
    140  CA       -24.1360   -1.5400  -20.3010 C.3   402  SER402      0.1889
    141  C        -23.5820   -2.9410  -20.0810 C.2   402  SER402      0.2288
    142  O        -23.3970   -3.3600  -18.9400 O.2   402  SER402     -0.2866
    143  CB       -25.6670   -1.5910  -20.2870 C.3   402  SER402      0.2089
    144  OG       -26.1630   -2.5870  -21.1670 O.3   402  SER402     -0.2183
    145  N        -20.4920   -2.6160  -18.1000 N.3   405  GLY405     -0.1210
    146  CA       -20.7990   -2.2560  -16.7270 C.3   405  GLY405      0.1956
    147  C        -21.3580   -3.4270  -15.9290 C.2   405  GLY405      0.2611
    148  O        -21.0330   -3.6060  -14.7500 O.2   405  GLY405     -0.2717
    149  N        -22.2090   -4.2260  -16.5680 N.am  406  ASN406     -0.1974
    150  CA       -22.8010   -5.3820  -15.9040 C.3   406  ASN406      0.1688
    151  C        -21.7640   -6.4510  -15.5840 C.2   406  ASN406      0.2292
    152  O        -21.8420   -7.1070  -14.5520 O.2   406  ASN406     -0.2864
    153  CB       -23.9200   -5.9840  -16.7610 C.3   406  ASN406      0.1181
    154  CG       -25.2050   -5.1980  -16.6620 C.2   406  ASN406      0.2629
    155  OD1      -25.6540   -4.8680  -15.5630 O.2   406  ASN406     -0.2716
    156  ND2      -25.8130   -4.8970  -17.8090 N.am  406  ASN406     -0.0877
    157  N        -19.9540   -5.0340  -12.4440 N.3   409  MET409     -0.1230
    158  CA       -20.7640   -5.0680  -11.2320 C.3   409  MET409      0.1702
    159  C        -21.3280   -6.4410  -10.8850 C.2   409  MET409      0.2592
    160  O        -21.5910   -6.7380   -9.7150 O.2   409  MET409     -0.2718
    161  CB       -21.9070   -4.0640  -11.3630 C.3   409  MET409      0.0401
    162  CG       -21.4430   -2.6170  -11.5200 C.3   409  MET409      0.0596
    163  SD       -20.5640   -1.9930  -10.0660 S.3   409  MET409     -0.1393
    164  CE       -21.9250   -1.4660   -9.0460 C.3   409  MET409      0.0692
    165  N        -21.5110   -7.2800  -11.8990 N.am  410  TYR410     -0.1976
    166  CA       -22.0610   -8.6110  -11.6860 C.3   410  TYR410      0.1639
    167  C        -21.0910   -9.7370  -12.0310 C.2   410  TYR410      0.2290
    168  O        -21.5050  -10.8630  -12.3020 O.2   410  TYR410     -0.2864
    169  CB       -23.3490   -8.7590  -12.4930 C.3   410  TYR410      0.0560
    170  CG       -24.4920   -7.9500  -11.9260 C.ar  410  TYR410     -0.0198
    171  CD1      -25.0380   -8.2690  -10.6920 C.ar  410  TYR410     -0.0009
    172  CD2      -25.0210   -6.8650  -12.6210 C.ar  410  TYR410     -0.0009
    173  CE1      -26.0840   -7.5360  -10.1580 C.ar  410  TYR410      0.0417
    174  CE2      -26.0700   -6.1190  -12.0960 C.ar  410  TYR410      0.0417
    175  CZ       -26.5980   -6.4640  -10.8630 C.ar  410  TYR410      0.1957
    176  OH       -27.6480   -5.7560  -10.3320 O.3   410  TYR410     -0.2866
    177  N        -21.3570    2.9170  -17.7270 N.3   441  GLN441     -0.1231
    178  CA       -21.7520    3.6570  -16.5430 C.3   441  GLN441      0.1698
    179  C        -21.8030    2.8080  -15.2850 C.2   441  GLN441      0.2592
    180  O        -22.1650    1.6310  -15.3180 O.2   441  GLN441     -0.2718
    181  CB       -23.1150    4.3190  -16.7510 C.3   441  GLN441      0.0381
    182  CG       -23.1630    5.3010  -17.9070 C.3   441  GLN441      0.0905
    183  CD       -24.4580    6.0960  -17.9360 C.2   441  GLN441      0.2608
    184  OE1      -25.5500    5.5280  -17.8480 O.2   441  GLN441     -0.2717
    185  NE2      -24.3420    7.4170  -18.0680 N.am  441  GLN441     -0.0878
    186  N        -21.4210    3.4340  -14.1760 N.am  442  ILE442     -0.1966
    187  CA       -21.4380    2.8190  -12.8580 C.3   442  ILE442      0.1727
    188  C        -21.9720    3.9000  -11.9280 C.2   442  ILE442      0.2616
    189  O        -21.3250    4.9250  -11.7240 O.2   442  ILE442     -0.2715
    190  CB       -20.0300    2.4010  -12.3950 C.3   442  ILE442      0.0290
    191  CG1      -19.5180    1.2530  -13.2660 C.3   442  ILE442      0.0022
    192  CG2      -20.0710    1.9780  -10.9310 C.3   442  ILE442      0.0023
    193  CD1      -18.1670    0.7180  -12.8410 C.3   442  ILE442      0.0001
    194  N        -23.1620    3.6740  -11.3840 N.am  443  TYR443     -0.1960
    195  CA       -23.7970    4.6410  -10.4980 C.3   443  TYR443      0.1771
    196  C        -24.0490    5.9770  -11.1800 C.2   443  TYR443      0.2620
    197  O        -23.9860    7.0310  -10.5420 O.2   443  TYR443     -0.2715
    198  CB       -22.9560    4.8660   -9.2420 C.3   443  TYR443      0.0574
    199  CG       -23.0050    3.7050   -8.2780 C.ar  443  TYR443     -0.0198
    200  CD1      -24.1680    2.9560   -8.1310 C.ar  443  TYR443     -0.0009
    201  CD2      -21.9030    3.3690   -7.5010 C.ar  443  TYR443     -0.0009
    202  CE1      -24.2340    1.9080   -7.2430 C.ar  443  TYR443      0.0417
    203  CE2      -21.9620    2.3160   -6.6050 C.ar  443  TYR443      0.0417
    204  CZ       -23.1340    1.5900   -6.4840 C.ar  443  TYR443      0.1957
    205  OH       -23.2090    0.5350   -5.6050 O.3   443  TYR443     -0.2866
    206  N        -24.3330    5.9330  -12.4770 N.am  444  GLY444     -0.1954
    207  CA       -24.6120    7.1560  -13.2050 C.3   444  GLY444      0.1869
    208  C        -23.4010    7.8510  -13.7990 C.2   444  GLY444      0.2309
    209  O        -23.5270    8.5810  -14.7810 O.2   444  GLY444     -0.2863
    210  N        -26.3740    9.7010  -11.1270 N.3   551  SER551     -0.1217
    211  CA       -27.3880    9.4470  -12.1450 C.3   551  SER551      0.1889
    212  C        -28.0320   10.7570  -12.5970 C.2   551  SER551      0.2288
    213  O        -28.6260   11.4810  -11.7930 O.2   551  SER551     -0.2866
    214  CB       -28.4610    8.4950  -11.5900 C.3   551  SER551      0.2089
    215  OG       -29.5170    8.3020  -12.5180 O.3   551  SER551     -0.2183
@<TRIPOS>BOND
     1   131   130    2
     2    13    12    2
     3   130   129    1
     4     4     3    2
     5   129   128    1
     6   129   132    1
     7     1     2    1
     8     3     2    1
     9    10    11    1
    10    12    11    1
    11     2     5    1
    12   132   133    1
    13    11    14    1
    14   133   134    1
    15   139   140    1
    16    14    15    1
    17     5     6    1
    18   144   143    1
    19   124   123    2
    20    17    15   ar
    21    17    19   ar
    22   134   135    1
    23     6     7    1
    24    24    23    2
    25    15    16   ar
    26   117   116    2
    27   135   136    2
    28   140   143    1
    29   140   141    1
    30   123   122    1
    31   141   142    2
    32    19    20   ar
    33    21    22    1
    34    23    22    1
    35   116   115    1
    36   116   121   am
    37    16    18   ar
    38   136   138    1
    39   136   137    1
    40     7     8   ar
    41     7     9   ar
    42   115   114    1
    43   115   118    1
    44   122   121    1
    45   122   125    1
    46    20    18   ar
    47    22    25    1
    48   121   127    1
    49   120   118    1
    50   145   146    1
    51   185   183   am
    52    25    26    1
    53   118   119    1
    54   183   182    1
    55   183   184    2
    56   182   181    1
    57   156   154   am
    58   125   126    1
    59   177   178    1
    60   127   126    1
    61    26    27    1
    62   153   154    1
    63   153   150    1
    64   181   178    1
    65   146   147    1
    66   154   155    2
    67   149   147   am
    68   149   150    1
    69   178   179    1
    70    27    28    1
    71    30    29    1
    72   147   148    2
    73   150   151    1
    74   151   152    2
    75   180   179    2
    76   179   186   am
    77    29    28    2
    78    29    31    1
    79   209   208    2
    80   113   111    1
    81   186   187    1
    82   208   207    1
    83   111   110    2
    84   111   112    1
    85   110   109    1
    86   191   193    1
    87   191   190    1
    88   207   206    1
    89   187   190    1
    90   187   188    1
    91   172   174   ar
    92   172   170   ar
    93   212   211    1
    94   212   213    2
    95   215   214    1
    96   169   170    1
    97   169   166    1
    98   206   196   am
    99   157   158    1
   100   190   192    1
   101   106   105    2
   102   109   108    1
   103   168   167    2
   104   211   214    1
   105   211   210    1
   106   174   175   ar
   107   167   166    1
   108   188   189    2
   109   188   194   am
   110   170   171   ar
   111   165   166    1
   112   165   159   am
   113   108   107    1
   114   105   104    1
   115   162   161    1
   116   162   163    1
   117   194   195    1
   118   161   158    1
   119   158   159    1
   120   196   197    2
   121   196   195    1
   122   159   160    2
   123   175   176    1
   124   175   173   ar
   125   107   104    1
   126   171   173   ar
   127   195   198    1
   128   104   103    1
   129    88    87    1
   130    87    84    1
   131   163   164    1
   132    86    85    2
   133   198   199    1
   134    84    85    1
   135    84    83    1
   136    85    89   am
   137   199   200   ar
   138   199   201   ar
   139    80    79    2
   140   200   202   ar
   141    94    93    1
   142    98    97    2
   143    83    79   am
   144   201   203   ar
   145    79    78    1
   146    89    90    1
   147   202   204   ar
   148    48    49    1
   149    48    47    1
   150    90    93    1
   151    90    91    1
   152    97    96    1
   153   203   204   ar
   154   204   205    1
   155    40    42   ar
   156    40    38   ar
   157    49    43    1
   158    78    81    1
   159    78    77    1
   160    47    44    1
   161    42    41   ar
   162    81    82    1
   163    76    74   ar
   164    91    92    2
   165    38    37   ar
   166    96    99    1
   167    96    95    1
   168    99   100    1
   169    43    44    1
   170    73    74    1
   171    73    70    1
   172    44    45    1
   173    41    39   ar
   174    74    75   ar
   175    64    63    2
   176    37    39   ar
   177    37    36    1
   178    69    70    1
   179   100   102    1
   180   100   101    1
   181    70    71    1
   182    65    66    1
   183    65    62    1
   184    68    66   am
   185    63    62    1
   186    36    33    1
   187    45    46    2
   188    35    34    2
   189    66    67    2
   190    62    61    1
   191    33    34    1
   192    33    32    1
   193    56    57    1
   194    56    55    1
   195    71    72    2
   196    57    58    2
   197    59    58    1
   198    58    60    1
   199    54    55    1
   200    54    51    1
   201    50    51    1
   202    51    52    1
   203    52    53    2
