@<TRIPOS>MOLECULE
tmp/4jy3B01.pdb
 138 131 0 0 0
SMALL
GASTEIGER

@<TRIPOS>ATOM
      1  N        -22.5330   -7.4070  -25.2440 N.3    45  TYR45      -0.1241
      2  CA       -23.6790   -7.3990  -26.1550 C.3    45  TYR45       0.1605
      3  C        -24.2890   -6.0000  -26.1730 C.2    45  TYR45       0.2264
      4  O        -24.4760   -5.3980  -25.1150 O.2    45  TYR45      -0.2867
      5  CB       -24.7750   -8.3510  -25.6470 C.3    45  TYR45       0.0534
      6  CG       -24.5270   -9.8280  -25.8550 C.ar   45  TYR45      -0.0201
      7  CD1      -25.4300  -10.6020  -26.5820 C.ar   45  TYR45      -0.0009
      8  CD2      -23.4140  -10.4620  -25.3050 C.ar   45  TYR45      -0.0009
      9  CE1      -25.2240  -11.9640  -26.7770 C.ar   45  TYR45       0.0417
     10  CE2      -23.2000  -11.8180  -25.4950 C.ar   45  TYR45       0.0417
     11  CZ       -24.1090  -12.5630  -26.2340 C.ar   45  TYR45       0.1957
     12  OH       -23.8970  -13.9120  -26.4280 O.3    45  TYR45      -0.2866
     13  N        -29.9050  -16.3200  -31.3970 N.3    73  TYR73      -0.1241
     14  CA       -29.5360  -16.4290  -29.9870 C.3    73  TYR73       0.1605
     15  C        -30.1380  -17.7470  -29.4960 C.2    73  TYR73       0.2264
     16  O        -31.3660  -17.8750  -29.3580 O.2    73  TYR73      -0.2867
     17  CB       -30.1040  -15.2220  -29.2350 C.3    73  TYR73       0.0534
     18  CG       -29.6770  -15.0460  -27.7740 C.ar   73  TYR73      -0.0201
     19  CD1      -29.9010  -16.0470  -26.8190 C.ar   73  TYR73      -0.0009
     20  CD2      -29.0990  -13.8600  -27.3490 C.ar   73  TYR73      -0.0009
     21  CE1      -29.5330  -15.8670  -25.4960 C.ar   73  TYR73       0.0417
     22  CE2      -28.7300  -13.6720  -26.0170 C.ar   73  TYR73       0.0417
     23  CZ       -28.9570  -14.6740  -25.1040 C.ar   73  TYR73       0.1957
     24  OH       -28.5980  -14.4840  -23.7890 O.3    73  TYR73      -0.2866
     25  N        -18.2700  -15.1080  -12.4890 N.3   170  LEU170     -0.1245
     26  CA       -17.8970  -15.7990  -13.7180 C.3   170  LEU170      0.1561
     27  C        -16.5490  -15.3290  -14.2320 C.2   170  LEU170      0.2260
     28  O        -16.0160  -14.3150  -13.7830 O.2   170  LEU170     -0.2867
     29  CB       -18.9540  -15.5890  -14.8070 C.3   170  LEU170      0.0270
     30  CG       -18.9290  -14.2460  -15.5470 C.3   170  LEU170      0.0019
     31  CD1      -19.8530  -14.3130  -16.7640 C.3   170  LEU170      0.0001
     32  CD2      -19.3120  -13.0760  -14.6390 C.3   170  LEU170      0.0001
     33  N        -14.6960  -14.2080  -17.6690 N.3   172  ARG172     -0.1245
     34  CA       -14.9640  -13.7240  -19.0190 C.3   172  ARG172      0.1563
     35  C        -13.6550  -13.5830  -19.7750 C.2   172  ARG172      0.2260
     36  O        -12.7000  -13.0050  -19.2520 O.2   172  ARG172     -0.2867
     37  CB       -15.6850  -12.3770  -18.9520 C.3   172  ARG172      0.0307
     38  CG       -17.1190  -12.4910  -18.4790 C.3   172  ARG172      0.0489
     39  CD       -17.7090  -11.1010  -18.2310 C.3   172  ARG172      0.2205
     40  NE       -17.0400  -10.4410  -17.1080 N.pl3 172  ARG172     -0.0865
     41  CZ       -17.1850   -9.1550  -16.7940 C.cat 172  ARG172      0.5346
     42  NH1      -17.9700   -8.3720  -17.5240 N.pl3 172  ARG172      0.1354
     43  NH2      -16.5380   -8.6470  -15.7510 N.pl3 172  ARG172      0.1354
     44  N        -26.4190  -23.9610  -20.5690 N.3   194  TRP194     -0.1241
     45  CA       -26.7190  -24.1730  -19.1530 C.3   194  TRP194      0.1605
     46  C        -26.5530  -25.6280  -18.7290 C.2   194  TRP194      0.2264
     47  O        -26.8760  -26.5320  -19.4880 O.2   194  TRP194     -0.2867
     48  CB       -28.1710  -23.7990  -18.8920 C.3   194  TRP194      0.0550
     49  CG       -28.4360  -22.3370  -18.8110 C.ar  194  TRP194      0.0003
     50  CD1      -28.5930  -21.4690  -19.8480 C.ar  194  TRP194      0.0946
     51  CD2      -28.5930  -21.5710  -17.6140 C.ar  194  TRP194      0.0152
     52  NE1      -28.8360  -20.2010  -19.3710 N.ar  194  TRP194     -0.2442
     53  CE2      -28.8450  -20.2410  -18.0000 C.ar  194  TRP194      0.0810
     54  CE3      -28.5460  -21.8850  -16.2470 C.ar  194  TRP194      0.0012
     55  CZ2      -29.0390  -19.2200  -17.0780 C.ar  194  TRP194      0.0191
     56  CZ3      -28.7410  -20.8650  -15.3290 C.ar  194  TRP194      0.0001
     57  CH2      -28.9890  -19.5500  -15.7490 C.ar  194  TRP194      0.0015
     58  N        -21.9750  -23.2500  -16.4640 N.3   202  ARG202     -0.1245
     59  CA       -22.6190  -22.6520  -17.6190 C.3   202  ARG202      0.1563
     60  C        -21.5590  -21.9400  -18.4540 C.2   202  ARG202      0.2260
     61  O        -20.6340  -21.3310  -17.9040 O.2   202  ARG202     -0.2867
     62  CB       -23.6800  -21.6450  -17.1280 C.3   202  ARG202      0.0307
     63  CG       -24.3340  -20.7810  -18.2010 C.3   202  ARG202      0.0489
     64  CD       -25.2290  -19.7280  -17.5190 C.3   202  ARG202      0.2205
     65  NE       -25.8410  -18.7610  -18.4380 N.pl3 202  ARG202     -0.0865
     66  CZ       -26.3190  -17.5760  -18.0550 C.cat 202  ARG202      0.5346
     67  NH1      -26.8700  -16.7530  -18.9410 N.pl3 202  ARG202      0.1354
     68  NH2      -26.2350  -17.1970  -16.7800 N.pl3 202  ARG202      0.1354
     69  N        -21.6290  -19.0410  -21.5410 N.3   204  LEU204     -0.1245
     70  CA       -22.2280  -18.2290  -22.6080 C.3   204  LEU204      0.1561
     71  C        -21.1980  -18.0670  -23.7260 C.2   204  LEU204      0.2260
     72  O        -20.1110  -17.5050  -23.5190 O.2   204  LEU204     -0.2867
     73  CB       -22.6770  -16.8660  -22.0720 C.3   204  LEU204      0.0270
     74  CG       -23.3230  -15.9470  -23.1140 C.3   204  LEU204      0.0019
     75  CD1      -24.5630  -16.5850  -23.7300 C.3   204  LEU204      0.0001
     76  CD2      -23.6700  -14.6180  -22.4570 C.3   204  LEU204      0.0001
     77  N        -15.9300  -14.5670  -27.5000 N.3   214  TYR214     -0.1241
     78  CA       -16.1210  -14.1660  -26.1150 C.3   214  TYR214      0.1605
     79  C        -16.7850  -15.3200  -25.3640 C.2   214  TYR214      0.2264
     80  O        -17.8150  -15.8400  -25.7800 O.2   214  TYR214     -0.2867
     81  CB       -16.9590  -12.8730  -26.1230 C.3   214  TYR214      0.0534
     82  CG       -17.6150  -12.4430  -24.8270 C.ar  214  TYR214     -0.0201
     83  CD1      -16.9800  -12.5970  -23.5990 C.ar  214  TYR214     -0.0009
     84  CD2      -18.8690  -11.8310  -24.8500 C.ar  214  TYR214     -0.0009
     85  CE1      -17.6010  -12.1770  -22.4150 C.ar  214  TYR214      0.0417
     86  CE2      -19.4830  -11.3990  -23.6880 C.ar  214  TYR214      0.0417
     87  CZ       -18.8440  -11.5860  -22.4710 C.ar  214  TYR214      0.1957
     88  OH       -19.4620  -11.1680  -21.3190 O.3   214  TYR214     -0.2866
     89  N        -19.2260  -19.7320  -16.1440 N.3   218  MET218     -0.1245
     90  CA       -19.9110  -19.4190  -14.8970 C.3   218  MET218      0.1570
     91  C        -20.0440  -20.6370  -13.9820 C.2   218  MET218      0.2261
     92  O        -20.5970  -21.6590  -14.3710 O.2   218  MET218     -0.2867
     93  CB       -21.2850  -18.8560  -15.2240 C.3   218  MET218      0.0387
     94  CG       -21.2860  -18.0160  -16.5150 C.3   218  MET218      0.0595
     95  SD       -22.8450  -17.1650  -16.6750 S.3   218  MET218     -0.1393
     96  CE       -22.7830  -16.7040  -18.4070 C.3   218  MET218      0.0692
     97  N        -20.5690   -9.5320   -9.1560 N.3   261  TYR261     -0.1241
     98  CA       -21.2010   -8.2670   -9.5220 C.3   261  TYR261      0.1605
     99  C        -22.0200   -7.7330   -8.3740 C.2   261  TYR261      0.2264
    100  O        -22.3610   -8.4690   -7.4440 O.2   261  TYR261     -0.2867
    101  CB       -22.0920   -8.4510  -10.7510 C.3   261  TYR261      0.0534
    102  CG       -22.3840   -9.9000  -10.9960 C.ar  261  TYR261     -0.0201
    103  CD1      -23.5270  -10.4930  -10.4870 C.ar  261  TYR261     -0.0009
    104  CD2      -21.4890  -10.6940  -11.7020 C.ar  261  TYR261     -0.0009
    105  CE1      -23.7750  -11.8380  -10.6860 C.ar  261  TYR261      0.0417
    106  CE2      -21.7290  -12.0270  -11.8940 C.ar  261  TYR261      0.0417
    107  CZ       -22.8720  -12.5960  -11.3850 C.ar  261  TYR261      0.1957
    108  OH       -23.1150  -13.9340  -11.6000 O.3   261  TYR261     -0.2866
    109  N        -26.7940   -8.9020  -15.0090 N.3   286  PRO286     -0.2102
    110  CA       -26.5180   -8.9180  -16.4530 C.3   286  PRO286      0.1504
    111  C        -27.4550   -9.7730  -17.3170 C.2   286  PRO286      0.2575
    112  O        -27.2120   -9.8500  -18.5180 O.2   286  PRO286     -0.2718
    113  CB       -25.0740   -9.4430  -16.5330 C.3   286  PRO286      0.0282
    114  CG       -24.8660  -10.1960  -15.2560 C.3   286  PRO286      0.0208
    115  CD       -25.7330   -9.5530  -14.2150 C.3   286  PRO286      0.0893
    116  N        -28.5020  -10.3660  -16.7480 N.am  287  ALA287     -0.1980
    117  CA       -29.3790  -11.2740  -17.5120 C.3   287  ALA287      0.1597
    118  C        -29.9160  -10.7120  -18.8400 C.2   287  ALA287      0.2287
    119  O        -29.9650  -11.4110  -19.8530 O.2   287  ALA287     -0.2864
    120  CB       -30.5340  -11.7520  -16.6360 C.3   287  ALA287      0.0319
    121  N        -28.5890   -8.2270  -20.4970 N.3   289  ALA289     -0.1245
    122  CA       -27.4770   -7.6320  -21.2480 C.3   289  ALA289      0.1562
    123  C        -27.7870   -6.1810  -21.6080 C.2   289  ALA289      0.2260
    124  O        -27.7000   -5.7730  -22.7760 O.2   289  ALA289     -0.2867
    125  CB       -27.1640   -8.4560  -22.5160 C.3   289  ALA289      0.0290
    126  N        -32.4440  -13.2420  -13.0690 N.3   338  ALA338     -0.1245
    127  CA       -31.2300  -13.7680  -12.4720 C.3   338  ALA338      0.1562
    128  C        -31.5650  -14.6470  -11.2610 C.2   338  ALA338      0.2260
    129  O        -31.0570  -15.7640  -11.1280 O.2   338  ALA338     -0.2867
    130  CB       -30.3220  -12.6220  -12.0670 C.3   338  ALA338      0.0290
    131  N        -33.4220  -17.4920  -17.7190 N.3   343  LEU343     -0.1245
    132  CA       -32.8200  -17.6820  -19.0460 C.3   343  LEU343      0.1561
    133  C        -32.5680  -19.1580  -19.3520 C.2   343  LEU343      0.2260
    134  O        -32.4980  -19.5540  -20.5150 O.2   343  LEU343     -0.2867
    135  CB       -31.5160  -16.8860  -19.1730 C.3   343  LEU343      0.0270
    136  CG       -31.6840  -15.3630  -19.1980 C.3   343  LEU343      0.0019
    137  CD1      -30.3160  -14.6830  -19.1520 C.3   343  LEU343      0.0001
    138  CD2      -32.4690  -14.9340  -20.4380 C.3   343  LEU343      0.0001
@<TRIPOS>BOND
     1    13    14    1
     2    14    15    1
     3    14    17    1
     4    15    16    2
     5    17    18    1
     6    18    20   ar
     7    18    19   ar
     8    77    78    1
     9    20    22   ar
    10    19    21   ar
    11     9     7   ar
    12     9    11   ar
    13     7     6   ar
    14    12    11    1
    15    11    10   ar
    16     3     2    1
    17     3     4    2
    18     2     5    1
    19     2     1    1
    20    81    78    1
    21    81    82    1
    22    78    79    1
    23    22    23   ar
    24     6     5    1
    25     6     8   ar
    26    80    79    2
    27    21    23   ar
    28    10     8   ar
    29    23    24    1
    30    84    82   ar
    31    84    86   ar
    32    82    83   ar
    33    75    74    1
    34    71    72    2
    35    71    70    1
    36    86    87   ar
    37    83    85   ar
    38    74    76    1
    39    74    73    1
    40   124   123    2
    41    70    73    1
    42    70    69    1
    43   125   122    1
    44    87    85   ar
    45    87    88    1
    46   123   122    1
    47   122   121    1
    48    44    45    1
    49   134   133    2
    50   138   136    1
    51   119   118    2
    52    50    52   ar
    53    50    49   ar
    54    35    36    2
    55    35    34    1
    56    47    46    2
    57    52    53   ar
    58   133   132    1
    59   136   135    1
    60   136   137    1
    61   135   132    1
    62    45    48    1
    63    45    46    1
    64   132   131    1
    65    34    37    1
    66    34    33    1
    67    37    38    1
    68    67    66    1
    69    48    49    1
    70   118   117    1
    71    49    51   ar
    72   112   111    2
    73    38    39    1
    74    60    61    2
    75    60    59    1
    76    65    66    2
    77    65    64    1
    78    96    95    1
    79    39    40    1
    80    63    64    1
    81    63    62    1
    82    66    68    1
    83    53    51   ar
    84    53    55   ar
    85    59    62    1
    86    59    58    1
    87    51    54   ar
    88    42    41    1
    89   117   116    1
    90   117   120    1
    91   111   116   am
    92   111   110    1
    93    40    41    2
    94    55    57   ar
    95    41    43    1
    96    31    30    1
    97    95    94    1
    98   113   110    1
    99   113   114    1
   100    94    93    1
   101   110   109    1
   102    54    56   ar
   103    89    90    1
   104    57    56   ar
   105    30    29    1
   106    30    32    1
   107   114   115    1
   108    93    90    1
   109   109   115    1
   110    90    91    1
   111    29    26    1
   112    92    91    2
   113    27    28    2
   114    27    26    1
   115    26    25    1
   116   126   127    1
   117   127   130    1
   118   127   128    1
   119   106   104   ar
   120   106   107   ar
   121   104   102   ar
   122   108   107    1
   123   107   105   ar
   124   128   129    2
   125   102   101    1
   126   102   103   ar
   127   101    98    1
   128   105   103   ar
   129    98    97    1
   130    98    99    1
   131    99   100    2
