@<TRIPOS>MOLECULE
tmp/4jy9A03.pdb
 87 83 0 0 0
SMALL
GASTEIGER

@<TRIPOS>ATOM
      1  N         67.7540   -3.9740   -2.6520 N.3    28  ARG28      -0.1245
      2  CA        67.1500   -2.7300   -3.0720 C.3    28  ARG28       0.1563
      3  C         66.3610   -2.8720   -4.3750 C.2    28  ARG28       0.2260
      4  O         65.2500   -2.3730   -4.5110 O.2    28  ARG28      -0.2867
      5  CB        68.2460   -1.6470   -3.1670 C.3    28  ARG28       0.0307
      6  CG        67.7420   -0.2630   -3.6000 C.3    28  ARG28       0.0489
      7  CD        68.8320    0.7760   -3.4740 C.3    28  ARG28       0.2205
      8  NE        70.0060    0.4760   -4.2730 N.pl3  28  ARG28      -0.0865
      9  CZ        70.1840    0.7680   -5.5210 C.cat  28  ARG28       0.5346
     10  NH1       69.2170    1.3370   -6.2830 N.pl3  28  ARG28       0.1354
     11  NH2       71.2700    0.4520   -6.1610 N.pl3  28  ARG28       0.1354
     12  N         63.1050   -4.7050   -3.6260 N.3    31  ASN31      -0.1225
     13  CA        62.1830   -3.8460   -2.9300 C.3    31  ASN31       0.1785
     14  C         61.5320   -2.7960   -3.8340 C.2    31  ASN31       0.2597
     15  O         60.3250   -2.5760   -3.8100 O.2    31  ASN31      -0.2718
     16  CB        62.8440   -3.1260   -1.7590 C.3    31  ASN31       0.1169
     17  CG        63.1510   -4.0300   -0.5960 C.2    31  ASN31       0.2627
     18  OD1       62.6240   -5.1570   -0.5020 O.2    31  ASN31      -0.2716
     19  ND2       63.9950   -3.5330    0.3150 N.am   31  ASN31      -0.0877
     20  N         62.3510   -2.1850   -4.6860 N.am   32  GLU32      -0.1979
     21  CA        61.8340   -1.1660   -5.6140 C.3    32  GLU32       0.1602
     22  C         60.8140   -1.7560   -6.5710 C.2    32  GLU32       0.2287
     23  O         59.8090   -1.1030   -6.9460 O.2    32  GLU32      -0.2864
     24  CB        62.9960   -0.4640   -6.2860 C.3    32  GLU32       0.0415
     25  CG        63.7870    0.4180   -5.2900 C.3    32  GLU32       0.1163
     26  CD        64.9310    1.2140   -5.8710 C.2    32  GLU32       0.3649
     27  OE1       65.1690    1.1610   -7.0970 O.co2  32  GLU32      -0.2457
     28  OE2       65.6070    1.8720   -5.0590 O.co2  32  GLU32      -0.2457
     29  N         57.5480   -2.3220   -4.7650 N.3    35  PHE35      -0.1241
     30  CA        56.8560   -1.0350   -4.5770 C.3    35  PHE35       0.1605
     31  C         56.1920   -0.5920   -5.8970 C.2    35  PHE35       0.2264
     32  O         55.0900   -0.1240   -5.8920 O.2    35  PHE35      -0.2867
     33  CB        57.8200    0.0070   -4.0700 C.3    35  PHE35       0.0534
     34  CG        58.4210   -0.2820   -2.7030 C.ar   35  PHE35      -0.0203
     35  CD1       57.7040   -0.9670   -1.7130 C.ar   35  PHE35      -0.0042
     36  CD2       59.6780    0.1910   -2.4220 C.ar   35  PHE35      -0.0042
     37  CE1       58.2890   -1.1890   -0.4470 C.ar   35  PHE35      -0.0003
     38  CE2       60.2750   -0.0550   -1.1850 C.ar   35  PHE35      -0.0003
     39  CZ        59.5850   -0.7490   -0.2220 C.ar   35  PHE35      -0.0000
     40  N         60.8490    1.5660    8.9050 N.3   245  PHE245     -0.1227
     41  CA        59.9870    2.1730    7.8650 C.3   245  PHE245      0.1736
     42  C         59.8890    1.2710    6.6000 C.2   245  PHE245      0.2596
     43  O         58.8220    1.0570    6.0870 O.2   245  PHE245     -0.2718
     44  CB        60.5230    3.5580    7.5210 C.3   245  PHE245      0.0547
     45  CG        59.7610    4.2100    6.3860 C.ar  245  PHE245     -0.0202
     46  CD1       58.5740    4.8420    6.6270 C.ar  245  PHE245     -0.0042
     47  CD2       60.2320    4.1910    5.0820 C.ar  245  PHE245     -0.0042
     48  CE1       57.8670    5.4760    5.5880 C.ar  245  PHE245     -0.0003
     49  CE2       59.4910    4.7910    4.0340 C.ar  245  PHE245     -0.0003
     50  CZ        58.3180    5.4290    4.3140 C.ar  245  PHE245     -0.0000
     51  N         61.0110    0.8020    6.0690 N.am  246  THR246     -0.1953
     52  CA        61.0060    0.0380    4.7990 C.3   246  THR246      0.1897
     53  C         60.2580   -1.2830    4.9160 C.2   246  THR246      0.2313
     54  O         59.4910   -1.6310    4.0560 O.2   246  THR246     -0.2863
     55  CB        62.4410   -0.2130    4.3180 C.3   246  THR246      0.1794
     56  OG1       63.1780    1.0500    4.2370 O.3   246  THR246     -0.2208
     57  CG2       62.4640   -0.9030    2.9430 C.3   246  THR246      0.0378
     58  N         56.6400   -0.3910    4.9370 N.3   249  LEU249     -0.1245
     59  CA        56.2380    0.0000    3.5920 C.3   249  LEU249      0.1561
     60  C         55.9960   -1.2680    2.7520 C.2   249  LEU249      0.2260
     61  O         55.0980   -1.3010    1.9430 O.2   249  LEU249     -0.2867
     62  CB        57.3270    0.8590    2.9380 C.3   249  LEU249      0.0270
     63  CG        57.0220    1.5540    1.6360 C.3   249  LEU249      0.0019
     64  CD1       55.8250    2.5530    1.8050 C.3   249  LEU249      0.0001
     65  CD2       58.2690    2.2590    1.1870 C.3   249  LEU249      0.0001
     66  N         59.5520    8.8990    9.3760 N.3   274  VAL274     -0.1231
     67  CA        60.3820    9.3850    8.2600 C.3   274  VAL274      0.1678
     68  C         59.7280   10.6380    7.6790 C.2   274  VAL274      0.2434
     69  O         58.5520   10.5930    7.3310 O.2   274  VAL274     -0.2733
     70  CB        60.5030    8.3040    7.1430 C.3   274  VAL274      0.0265
     71  CG1       61.1040    8.8800    5.8430 C.3   274  VAL274      0.0020
     72  CG2       61.3670    7.1010    7.6300 C.3   274  VAL274      0.0020
     73  N         60.4860   11.7440    7.5350 N.am  275  PRO275     -0.2729
     74  CA        59.9620   12.9140    6.8760 C.3   275  PRO275      0.1401
     75  C         59.5650   12.5750    5.4560 C.2   275  PRO275      0.2269
     76  O         60.3400   12.0360    4.7100 O.2   275  PRO275     -0.2865
     77  CB        61.1200   13.9330    6.9650 C.3   275  PRO275      0.0296
     78  CG        61.9110   13.4580    8.1490 C.3   275  PRO275      0.0237
     79  CD        61.8260   11.9840    8.1300 C.3   275  PRO275      0.0939
     80  N         55.5840    8.8520    0.4090 N.3   280  ILE280     -0.1245
     81  CA        56.1920    7.5810   -0.0930 C.3   280  ILE280      0.1561
     82  C         55.1500    6.4790   -0.0860 C.2   280  ILE280      0.2260
     83  O         55.0070    5.7250   -1.0680 O.2   280  ILE280     -0.2867
     84  CB        57.4100    7.1960    0.7900 C.3   280  ILE280      0.0252
     85  CG1       58.5870    8.2150    0.5510 C.3   280  ILE280      0.0019
     86  CG2       57.8990    5.7740    0.4970 C.3   280  ILE280      0.0019
     87  CD1       59.6670    8.2530    1.6640 C.3   280  ILE280      0.0001
@<TRIPOS>BOND
     1    27    26   ar
     2    23    22    2
     3    22    21    1
     4    24    21    1
     5    24    25    1
     6    10     9    1
     7    11     9    1
     8    31    32    2
     9    31    30    1
    10    26    25    1
    11    26    28   ar
    12    21    20    1
    13     9     8    2
    14    29    30    1
    15    20    14   am
    16    30    33    1
    17     4     3    2
    18     3     2    1
    19     8     7    1
    20    33    34    1
    21    14    15    2
    22    14    13    1
    23    12    13    1
    24     6     7    1
    25     6     5    1
    26     5     2    1
    27     2     1    1
    28    13    16    1
    29    34    36   ar
    30    34    35   ar
    31    36    38   ar
    32    16    17    1
    33    35    37   ar
    34    38    39   ar
    35    83    82    2
    36    17    18    2
    37    17    19   am
    38    37    39   ar
    39    81    82    1
    40    81    80    1
    41    81    84    1
    42    86    84    1
    43    85    84    1
    44    85    87    1
    45    65    63    1
    46    63    64    1
    47    63    62    1
    48    61    60    2
    49    60    59    1
    50    62    59    1
    51    57    55    1
    52    59    58    1
    53    49    50   ar
    54    49    47   ar
    55    54    53    2
    56    56    55    1
    57    50    48   ar
    58    55    52    1
    59    76    75    2
    60    52    53    1
    61    52    51    1
    62    47    45   ar
    63    75    74    1
    64    48    46   ar
    65    71    70    1
    66    51    42   am
    67    43    42    2
    68    45    46   ar
    69    45    44    1
    70    42    41    1
    71    74    77    1
    72    74    73    1
    73    77    78    1
    74    70    72    1
    75    70    67    1
    76    69    68    2
    77    44    41    1
    78    73    68   am
    79    73    79    1
    80    68    67    1
    81    41    40    1
    82    79    78    1
    83    67    66    1
