@<TRIPOS>MOLECULE
tmp/4jybA00.pdb
 116 111 0 0 0
SMALL
GASTEIGER

@<TRIPOS>ATOM
      1  N         61.0340    4.6340   38.1010 N.3    58  PRO58      -0.2102
      2  CA        60.5870    3.8290   39.2290 C.3    58  PRO58       0.1504
      3  C         61.7740    3.2360   39.9840 C.2    58  PRO58       0.2576
      4  O         62.6760    2.6920   39.3650 O.2    58  PRO58      -0.2718
      5  CB        59.7560    2.7160   38.5660 C.3    58  PRO58       0.0282
      6  CG        59.2920    3.3180   37.2730 C.3    58  PRO58       0.0208
      7  CD        60.4520    4.1680   36.8270 C.3    58  PRO58       0.0893
      8  N         61.7830    3.3800   41.3040 N.am   59  GLY59      -0.1943
      9  CA        62.8390    2.8210   42.1400 C.3    59  GLY59       0.2014
     10  C         63.8500    3.8680   42.5670 C.2    59  GLY59       0.2639
     11  O         64.6820    3.6070   43.4230 O.2    59  GLY59      -0.2714
     12  N         63.7650    5.0670   42.0000 N.am   60  VAL60      -0.1963
     13  CA        64.7150    6.1370   42.3160 C.3    60  VAL60       0.1727
     14  C         64.5100    6.7380   43.6990 C.2    60  VAL60       0.2617
     15  O         65.4130    7.3740   44.2350 O.2    60  VAL60      -0.2715
     16  CB        64.6240    7.2710   41.2780 C.3    60  VAL60       0.0290
     17  CG1       63.3220    8.0630   41.4450 C.3    60  VAL60       0.0023
     18  CG2       65.8280    8.2030   41.3680 C.3    60  VAL60       0.0023
     19  N         63.3100    6.6090   44.2590 N.am   61  GLY61      -0.1940
     20  CA        63.0460    7.1180   45.6200 C.3    61  GLY61       0.2014
     21  C         62.1470    8.3290   45.6900 C.2    61  GLY61       0.2639
     22  O         62.2110    9.1140   46.6320 O.2    61  GLY61      -0.2714
     23  N         61.3010    8.4500   44.6800 N.am   62  LYS62      -0.1963
     24  CA        60.2960    9.4950   44.5500 C.3    62  LYS62       0.1728
     25  C         59.2640    9.5390   45.7140 C.2    62  LYS62       0.2617
     26  O         59.0590   10.5650   46.3210 O.2    62  LYS62      -0.2715
     27  CB        59.6170    9.2690   43.1850 C.3    62  LYS62       0.0311
     28  CG        58.9810   10.4540   42.5140 C.3    62  LYS62       0.0038
     29  CD        58.7730   10.2020   41.0100 C.3    62  LYS62       0.0206
     30  CE        58.2400    8.8060   40.6500 C.3    62  LYS62       0.1093
     31  NZ        59.2770    7.7010   40.5530 N.3    62  LYS62      -0.1314
     32  N         58.5880    8.4420   46.0050 N.am   63  SER63      -0.1936
     33  CA        57.6020    8.4580   47.1070 C.3    63  SER63       0.2055
     34  C         58.2480    8.7110   48.4630 C.2    63  SER63       0.2643
     35  O         57.7310    9.4590   49.2910 O.2    63  SER63      -0.2714
     36  CB        56.8640    7.1460   47.1430 C.3    63  SER63       0.2130
     37  OG        56.1410    6.9820   45.9410 O.3    63  SER63      -0.2179
     38  N         59.4040    8.0990   48.6730 N.am   64  THR64      -0.1950
     39  CA        60.1870    8.3280   49.8890 C.3    64  THR64       0.1897
     40  C         60.5870    9.7890   50.0180 C.2    64  THR64       0.2313
     41  O         60.4730   10.3640   51.0830 O.2    64  THR64      -0.2863
     42  CB        61.4620    7.4570   49.8950 C.3    64  THR64       0.1794
     43  OG1       61.0780    6.1030   49.7000 O.3    64  THR64      -0.2208
     44  CG2       62.2110    7.5720   51.2040 C.3    64  THR64       0.0378
     45  N         53.8310    3.8550   50.5270 N.3   102  ARG102     -0.1245
     46  CA        55.0270    4.5720   50.1460 C.3   102  ARG102      0.1563
     47  C         55.1880    5.9250   50.8460 C.2   102  ARG102      0.2260
     48  O         56.3080    6.3880   51.0530 O.2   102  ARG102     -0.2867
     49  CB        54.9660    4.7670   48.6450 C.3   102  ARG102      0.0307
     50  CG        53.7780    5.6120   48.2010 C.3   102  ARG102      0.0489
     51  CD        53.0730    5.0480   46.9930 C.3   102  ARG102      0.2205
     52  NE        52.4300    6.1350   46.2540 N.pl3 102  ARG102     -0.0865
     53  CZ        52.8920    6.6820   45.1280 C.cat 102  ARG102      0.5346
     54  NH1       52.2170    7.6840   44.5750 N.pl3 102  ARG102      0.1354
     55  NH2       54.0080    6.2390   44.5440 N.pl3 102  ARG102      0.1354
     56  N         54.8350   12.1420   38.3310 N.3   149  THR149     -0.1203
     57  CA        54.6220   11.2020   37.2660 C.3   149  THR149      0.1994
     58  C         54.5390    9.8140   37.8920 C.2   149  THR149      0.2618
     59  O         55.2370    9.5490   38.8750 O.2   149  THR149     -0.2717
     60  CB        55.7770   11.2160   36.2520 C.3   149  THR149      0.1784
     61  OG1       57.0270   10.9970   36.9230 O.3   149  THR149     -0.2211
     62  CG2       55.8200   12.5180   35.5230 C.3   149  THR149      0.0376
     63  N         53.6750    8.9600   37.3340 N.am  150  VAL150     -0.1965
     64  CA        53.5140    7.5700   37.7650 C.3   150  VAL150      0.1727
     65  C         53.9030    6.6660   36.6080 C.2   150  VAL150      0.2616
     66  O         53.5730    6.9680   35.4680 O.2   150  VAL150     -0.2715
     67  CB        52.0460    7.2340   38.1190 C.3   150  VAL150      0.0290
     68  CG1       51.9200    5.7830   38.6130 C.3   150  VAL150      0.0023
     69  CG2       51.5110    8.2020   39.1500 C.3   150  VAL150      0.0023
     70  N         54.5990    5.5660   36.9000 N.am  151  GLY151     -0.1955
     71  CA        55.0180    4.6080   35.8640 C.3   151  GLY151      0.1869
     72  C         56.0820    5.1370   34.9150 C.2   151  GLY151      0.2309
     73  O         56.7120    6.1700   35.1760 O.2   151  GLY151     -0.2863
     74  N         69.5500   11.2240   44.1370 N.3   195  ASN195     -0.1225
     75  CA        69.0140   10.7360   45.3930 C.3   195  ASN195      0.1785
     76  C         69.8410    9.5420   45.8290 C.2   195  ASN195      0.2597
     77  O         70.6890    9.0700   45.0790 O.2   195  ASN195     -0.2718
     78  CB        67.5350   10.3490   45.2280 C.3   195  ASN195      0.1169
     79  CG        66.8630    9.9850   46.5610 C.2   195  ASN195      0.2627
     80  OD1       67.0710   10.6480   47.5830 O.2   195  ASN195     -0.2716
     81  ND2       66.0840    8.9100   46.5580 N.am  195  ASN195     -0.0877
     82  N         69.5850    9.0590   47.0370 N.am  196  LYS196     -0.1980
     83  CA        70.2460    7.8780   47.6030 C.3   196  LYS196      0.1596
     84  C         71.7000    8.2160   47.9090 C.2   196  LYS196      0.2287
     85  O         72.5710    7.3670   47.8180 O.2   196  LYS196     -0.2864
     86  CB        70.1110    6.6420   46.7020 C.3   196  LYS196      0.0298
     87  CG        68.6740    6.2960   46.3270 C.3   196  LYS196      0.0038
     88  CD        68.4880    4.8230   45.9530 C.3   196  LYS196      0.0206
     89  CE        67.0770    4.5850   45.4260 C.3   196  LYS196      0.1093
     90  NZ        66.7160    3.1460   45.3580 N.3   196  LYS196     -0.1314
     91  N         73.4140    8.4850   50.5470 N.3   198  ASP198     -0.1239
     92  CA        73.4280    8.1250   51.9660 C.3   198  ASP198      0.1674
     93  C         74.8390    8.3240   52.5250 C.2   198  ASP198      0.2266
     94  O         75.8240    8.1450   51.8070 O.2   198  ASP198     -0.2867
     95  CB        72.9640    6.6710   52.1530 C.3   198  ASP198      0.1410
     96  CG        71.5600    6.4070   51.5570 C.2   198  ASP198      0.3668
     97  OD1       70.9930    7.2820   50.8800 O.co2 198  ASP198     -0.2456
     98  OD2       71.0050    5.3160   51.7570 O.co2 198  ASP198     -0.2456
     99  N         69.2560   12.5450   50.1670 N.3   235  SER235     -0.1202
    100  CA        68.7950   11.2220   50.5390 C.3   235  SER235      0.2020
    101  C         67.3690   11.3690   51.0460 C.2   235  SER235      0.2619
    102  O         67.1570   11.8980   52.1340 O.2   235  SER235     -0.2717
    103  CB        69.6540   10.6000   51.6310 C.3   235  SER235      0.2103
    104  OG        69.0400    9.3910   52.0690 O.3   235  SER235     -0.2182
    105  N         66.4030   10.9060   50.2490 N.am  236  GLY236     -0.1942
    106  CA        65.0100   10.9420   50.6330 C.3   236  GLY236      0.2014
    107  C         64.7750   10.1570   51.9020 C.2   236  GLY236      0.2638
    108  O         64.1050   10.6280   52.8040 O.2   236  GLY236     -0.2714
    109  N         65.3470    8.9620   51.9630 N.am  237  LEU237     -0.1977
    110  CA        65.1940    8.0560   53.1050 C.3   237  LEU237      0.1596
    111  C         65.7400    8.6340   54.4220 C.2   237  LEU237      0.2287
    112  O         65.0680    8.5920   55.4510 O.2   237  LEU237     -0.2864
    113  CB        65.8800    6.7280   52.7740 C.3   237  LEU237      0.0297
    114  CG        65.7490    5.5630   53.7530 C.3   237  LEU237      0.0022
    115  CD1       64.2930    5.1840   53.9560 C.3   237  LEU237      0.0001
    116  CD2       66.5470    4.3820   53.2090 C.3   237  LEU237      0.0001
@<TRIPOS>BOND
     1    72    73    2
     2    72    71    1
     3    66    65    2
     4    62    60    1
     5    71    70    1
     6    60    61    1
     7    60    57    1
     8    65    70   am
     9    65    64    1
    10     7     6    1
    11     7     1    1
    12    57    58    1
    13    57    56    1
    14     6     5    1
    15    63    64    1
    16    63    58   am
    17    64    67    1
    18    58    59    2
    19     1     2    1
    20    67    68    1
    21    67    69    1
    22     5     2    1
    23     2     3    1
    24     4     3    2
    25     3     8   am
    26    31    30    1
    27    30    29    1
    28    29    28    1
    29    16    18    1
    30    16    17    1
    31    16    13    1
    32     8     9    1
    33    12    13    1
    34    12    10   am
    35     9    10    1
    36    13    14    1
    37    28    27    1
    38    10    11    2
    39    27    24    1
    40    14    15    2
    41    14    19   am
    42    74    75    1
    43    19    20    1
    44    55    53    1
    45    24    23    1
    46    24    25    1
    47    54    53    1
    48    23    21   am
    49    77    76    2
    50    53    52    2
    51    78    75    1
    52    78    79    1
    53    90    89    1
    54    75    76    1
    55    89    88    1
    56    20    21    1
    57    21    22    2
    58    25    32   am
    59    25    26    2
    60    76    82   am
    61    37    36    1
    62    88    87    1
    63    32    33    1
    64    52    51    1
    65    87    86    1
    66    81    79   am
    67    79    80    2
    68    86    83    1
    69    51    50    1
    70    82    83    1
    71    33    36    1
    72    33    34    1
    73    83    84    1
    74    85    84    2
    75    50    49    1
    76    34    38   am
    77    34    35    2
    78    49    46    1
    79    38    39    1
    80    43    42    1
    81    39    42    1
    82    39    40    1
    83    42    44    1
    84    40    41    2
    85    46    45    1
    86    46    47    1
    87    99   100    1
    88   105   106    1
    89   105   101   am
    90   100   101    1
    91   100   103    1
    92    91    92    1
    93   106   107    1
    94    47    48    2
    95    97    96   ar
    96   101   102    2
    97    96    98   ar
    98    96    95    1
    99   103   104    1
   100    94    93    2
   101   107   109   am
   102   107   108    2
   103   109   110    1
   104    92    95    1
   105    92    93    1
   106   113   110    1
   107   113   114    1
   108   110   111    1
   109   116   114    1
   110   114   115    1
   111   111   112    2
