@<TRIPOS>MOLECULE
tmp/4jycD00.pdb
 115 112 0 0 0
SMALL
GASTEIGER

@<TRIPOS>ATOM
      1  N        -33.7060    3.9830   38.2090 N.3    58  VAL58      -0.1231
      2  CA       -33.8900    2.6260   37.7210 C.3    58  VAL58       0.1678
      3  C        -34.5470    1.8230   38.8300 C.2    58  VAL58       0.2434
      4  O        -34.2590    2.0640   40.0020 O.2    58  VAL58      -0.2733
      5  CB       -32.5200    2.0170   37.2590 C.3    58  VAL58       0.0265
      6  CG1      -31.5890    1.7500   38.4370 C.3    58  VAL58       0.0020
      7  CG2      -32.6980    0.7440   36.4460 C.3    58  VAL58       0.0020
      8  N        -35.4390    0.8710   38.4820 N.am   59  PRO59      -0.2718
      9  CA       -35.9730   -0.0620   39.4890 C.3    59  PRO59       0.1535
     10  C        -34.8870   -0.7610   40.3240 C.2    59  PRO59       0.2599
     11  O        -33.9160   -1.2610   39.7780 O.2    59  PRO59      -0.2715
     12  CB       -36.7370   -1.0780   38.6420 C.3    59  PRO59       0.0310
     13  CG       -37.1640   -0.3020   37.4480 C.3    59  PRO59       0.0237
     14  CD       -36.0030    0.5950   37.1440 C.3    59  PRO59       0.0939
     15  N        -35.0640   -0.7770   41.6390 N.am   60  GLY60      -0.1941
     16  CA       -34.0540   -1.2850   42.5650 C.3    60  GLY60       0.2014
     17  C        -33.0550   -0.2690   43.1050 C.2    60  GLY60       0.2639
     18  O        -32.2830   -0.5930   43.9910 O.2    60  GLY60      -0.2714
     19  N        -33.0610    0.9610   42.5890 N.am   61  VAL61      -0.1963
     20  CA       -32.1150    1.9970   43.0650 C.3    61  VAL61       0.1727
     21  C        -32.4360    2.4370   44.5070 C.2    61  VAL61       0.2617
     22  O        -31.5490    2.9580   45.2250 O.2    61  VAL61      -0.2715
     23  CB       -32.1170    3.2360   42.1260 C.3    61  VAL61       0.0290
     24  CG1      -33.3650    4.0850   42.3300 C.3    61  VAL61       0.0023
     25  CG2      -30.8710    4.0670   42.3140 C.3    61  VAL61       0.0023
     26  N        -33.6940    2.2250   44.9120 N.am   62  GLY62      -0.1940
     27  CA       -34.1850    2.5920   46.2510 C.3    62  GLY62       0.2014
     28  C        -35.1490    3.7800   46.2710 C.2    62  GLY62       0.2639
     29  O        -35.2460    4.4980   47.2640 O.2    62  GLY62      -0.2714
     30  N        -35.8610    4.0080   45.1720 N.am   63  LYS63      -0.1963
     31  CA       -36.7190    5.1920   45.0830 C.3    63  LYS63       0.1728
     32  C        -37.8540    5.1500   46.1080 C.2    63  LYS63       0.2617
     33  O        -38.0760    6.1150   46.8470 O.2    63  LYS63      -0.2715
     34  CB       -37.2700    5.3500   43.6680 C.3    63  LYS63       0.0311
     35  CG       -38.2500    6.5120   43.5110 C.3    63  LYS63       0.0038
     36  CD       -38.3730    6.9420   42.0560 C.3    63  LYS63       0.0206
     37  CE       -38.8230    5.8260   41.1180 C.3    63  LYS63       0.1093
     38  NZ       -40.1470    5.2130   41.4810 N.3    63  LYS63      -0.1314
     39  N        -38.5450    4.0250   46.1960 N.am   64  SER64      -0.1936
     40  CA       -39.6970    3.9780   47.0780 C.3    64  SER64       0.2055
     41  C        -39.2670    4.0900   48.5280 C.2    64  SER64       0.2643
     42  O        -39.9360    4.7400   49.3290 O.2    64  SER64      -0.2714
     43  CB       -40.5510    2.7410   46.8320 C.3    64  SER64       0.2130
     44  OG       -40.1190    1.6780   47.6240 O.3    64  SER64      -0.2179
     45  N        -38.1170    3.5160   48.8610 N.am   65  THR65      -0.1950
     46  CA       -37.5550    3.6800   50.1980 C.3    65  THR65       0.1897
     47  C        -37.1250    5.1350   50.4590 C.2    65  THR65       0.2313
     48  O        -37.3110    5.6520   51.5440 O.2    65  THR65      -0.2863
     49  CB       -36.3390    2.7830   50.3960 C.3    65  THR65       0.1794
     50  OG1      -36.6830    1.4530   50.0010 O.3    65  THR65      -0.2208
     51  CG2      -35.9070    2.7700   51.8660 C.3    65  THR65       0.0378
     52  N        -46.1700    0.2330   49.5710 N.3    95  ARG95      -0.1245
     53  CA       -44.7410   -0.0710   49.5650 C.3    95  ARG95       0.1563
     54  C        -43.9550    0.9950   50.3420 C.2    95  ARG95       0.2260
     55  O        -42.8500    0.7310   50.8280 O.2    95  ARG95      -0.2867
     56  CB       -44.2170   -0.1760   48.1310 C.3    95  ARG95       0.0307
     57  CG       -44.5970    0.9970   47.2430 C.3    95  ARG95       0.0489
     58  CD       -43.9800    0.9230   45.8560 C.3    95  ARG95       0.2205
     59  NE       -44.5990    1.9500   45.0240 N.pl3  95  ARG95      -0.0865
     60  CZ       -43.9740    2.9440   44.3850 C.cat  95  ARG95       0.5346
     61  NH1      -42.6470    3.0740   44.4000 N.pl3  95  ARG95       0.1354
     62  NH2      -44.7070    3.8090   43.6890 N.pl3  95  ARG95       0.1354
     63  N        -27.6180    6.9640   45.7340 N.3   188  ASN188     -0.1225
     64  CA       -28.2170    6.3390   46.8920 C.3   188  ASN188      0.1785
     65  C        -27.4030    5.1130   47.3240 C.2   188  ASN188      0.2597
     66  O        -26.4660    4.7220   46.6520 O.2   188  ASN188     -0.2718
     67  CB       -29.6730    5.9360   46.5770 C.3   188  ASN188      0.1169
     68  CG       -30.4670    5.5240   47.8070 C.2   188  ASN188      0.2627
     69  OD1      -30.2780    6.0390   48.9060 O.2   188  ASN188     -0.2716
     70  ND2      -31.3580    4.5880   47.6200 N.am  188  ASN188     -0.0877
     71  N        -27.7680    4.5400   48.4630 N.am  189  LYS189     -0.1980
     72  CA       -27.0140    3.4410   49.1000 C.3   189  LYS189      0.1596
     73  C        -25.6280    3.8700   49.5930 C.2   189  LYS189      0.2287
     74  O        -24.7060    3.0640   49.7190 O.2   189  LYS189     -0.2864
     75  CB       -26.9730    2.1960   48.2080 C.3   189  LYS189      0.0298
     76  CG       -28.3410    1.8860   47.6190 C.3   189  LYS189      0.0038
     77  CD       -28.4630    0.4970   47.0110 C.3   189  LYS189      0.0206
     78  CE       -29.8460    0.3350   46.4110 C.3   189  LYS189      0.1093
     79  NZ       -30.1670   -1.0540   45.9580 N.3   189  LYS189     -0.1314
     80  N        -24.3600    3.9620   52.3490 N.3   191  ASP191     -0.1239
     81  CA       -24.4560    3.4990   53.7330 C.3   191  ASP191      0.1674
     82  C        -23.1390    3.6460   54.4980 C.2   191  ASP191      0.2266
     83  O        -22.0890    3.9030   53.9110 O.2   191  ASP191     -0.2867
     84  CB       -24.8490    2.0210   53.7740 C.3   191  ASP191      0.1410
     85  CG       -26.2080    1.7470   53.1500 C.2   191  ASP191      0.3668
     86  OD1      -26.9400    2.6950   52.7610 O.co2 191  ASP191     -0.2456
     87  OD2      -26.5420    0.5450   53.0510 O.co2 191  ASP191     -0.2456
     88  N        -28.6430    7.9910   51.7480 N.3   228  SER228     -0.1202
     89  CA       -29.1200    6.6470   52.0100 C.3   228  SER228      0.2020
     90  C        -30.5760    6.7330   52.3980 C.2   228  SER228      0.2619
     91  O        -30.8960    7.1270   53.5210 O.2   228  SER228     -0.2717
     92  CB       -28.3380    5.9780   53.1330 C.3   228  SER228      0.2103
     93  OG       -28.9430    4.7490   53.4120 O.3   228  SER228     -0.2182
     94  N        -31.4480    6.3690   51.4600 N.am  229  GLY229     -0.1942
     95  CA       -32.8510    6.3660   51.7190 C.3   229  GLY229      0.2014
     96  C        -33.1890    5.4260   52.8290 C.2   229  GLY229      0.2639
     97  O        -34.0550    5.7230   53.6430 O.2   229  GLY229     -0.2714
     98  N        -32.5130    4.2780   52.8560 N.am  230  LEU230     -0.1963
     99  CA       -32.7910    3.2720   53.8690 C.3   230  LEU230      0.1728
    100  C        -32.4220    3.7630   55.2760 C.2   230  LEU230      0.2616
    101  O        -33.2020    3.5960   56.2050 O.2   230  LEU230     -0.2715
    102  CB       -32.0450    1.9760   53.5580 C.3   230  LEU230      0.0311
    103  CG       -32.2640    0.7770   54.4830 C.3   230  LEU230      0.0022
    104  CD1      -33.7370    0.4030   54.6070 C.3   230  LEU230      0.0001
    105  CD2      -31.4650   -0.4110   53.9440 C.3   230  LEU230      0.0001
    106  N        -31.2540    4.3670   55.4390 N.am  231  HIS231     -0.1973
    107  CA       -30.7890    4.7180   56.7870 C.3   231  HIS231      0.1656
    108  C        -31.0140    6.1460   57.1870 C.2   231  HIS231      0.2291
    109  O        -30.5690    6.5560   58.2490 O.2   231  HIS231     -0.2864
    110  CB       -29.3300    4.3100   56.9570 C.3   231  HIS231      0.0771
    111  CG       -29.1250    2.8230   56.7970 C.ar  231  HIS231      0.0820
    112  ND1      -29.6340    1.9250   57.6700 N.ar  231  HIS231     -0.2267
    113  CD2      -28.5020    2.0910   55.7960 C.ar  231  HIS231      0.1154
    114  CE1      -29.3320    0.6780   57.2590 C.ar  231  HIS231      0.1986
    115  NE2      -28.6380    0.7770   56.1120 N.ar  231  HIS231     -0.2212
@<TRIPOS>BOND
     1     7     5    1
     2    14    13    1
     3    14     8    1
     4     5     2    1
     5     5     6    1
     6    13    12    1
     7     2     1    1
     8     2     3    1
     9     8     3   am
    10     8     9    1
    11    12     9    1
    12     3     4    2
    13     9    10    1
    14    11    10    2
    15    10    15   am
    16    37    38    1
    17    37    36    1
    18    15    16    1
    19    36    35    1
    20    23    25    1
    21    23    24    1
    22    23    20    1
    23    16    17    1
    24    19    20    1
    25    19    17   am
    26    20    21    1
    27    17    18    2
    28    35    34    1
    29    34    31    1
    30    62    60    1
    31    60    61    1
    32    60    59    2
    33    21    26   am
    34    21    22    2
    35    26    27    1
    36    59    58    1
    37    31    30    1
    38    31    32    1
    39    30    28   am
    40    63    64    1
    41    58    57    1
    42    79    78    1
    43    32    39   am
    44    32    33    2
    45    39    40    1
    46    27    28    1
    47    28    29    2
    48    78    77    1
    49    67    64    1
    50    67    68    1
    51    66    65    2
    52    43    40    1
    53    43    44    1
    54    64    65    1
    55    77    76    1
    56    40    41    1
    57    57    56    1
    58    65    71   am
    59    76    75    1
    60    70    68   am
    61    68    69    2
    62    56    53    1
    63    75    72    1
    64    71    72    1
    65    41    45   am
    66    41    42    2
    67    45    46    1
    68    72    73    1
    69    53    52    1
    70    53    54    1
    71    73    74    2
    72    50    49    1
    73    46    49    1
    74    46    47    1
    75    54    55    2
    76    49    51    1
    77    47    48    2
    78    94    95    1
    79    94    90   am
    80    95    96    1
    81    88    89    1
    82    89    90    1
    83    89    92    1
    84    80    81    1
    85    90    91    2
    86    86    85   ar
    87    96    98   am
    88    96    97    2
    89    98    99    1
    90    87    85   ar
    91    92    93    1
    92    85    84    1
    93   102    99    1
    94   102   103    1
    95    81    84    1
    96    81    82    1
    97    99   100    1
    98    83    82    2
    99   105   103    1
   100   103   104    1
   101   100   106   am
   102   100   101    2
   103   106   107    1
   104   113   115   ar
   105   113   111   ar
   106   115   114   ar
   107   107   110    1
   108   107   108    1
   109   111   110    1
   110   111   112   ar
   111   108   109    2
   112   114   112   ar
