@<TRIPOS>MOLECULE
tmp/4jygB01.pdb
 84 81 0 0 0
SMALL
GASTEIGER

@<TRIPOS>ATOM
      1  N         25.5870   24.0960  -35.6040 N.3    35  THR35      -0.1203
      2  CA        24.9890   25.1830  -36.3640 C.3    35  THR35       0.1994
      3  C         24.9020   26.4170  -35.4730 C.2    35  THR35       0.2618
      4  O         24.8340   26.3040  -34.2500 O.2    35  THR35      -0.2717
      5  CB        23.5800   24.8180  -36.8660 C.3    35  THR35       0.1784
      6  OG1       23.0840   25.8640  -37.7090 O.3    35  THR35      -0.2211
      7  CG2       22.6290   24.6250  -35.6950 C.3    35  THR35       0.0376
      8  N         24.9110   27.5960  -36.0850 N.am   36  ASN36      -0.1960
      9  CA        24.8520   28.8360  -35.3250 C.3    36  ASN36       0.1819
     10  C         23.4190   29.3080  -35.1030 C.2    36  ASN36       0.2622
     11  O         23.1860   30.3090  -34.4260 O.2    36  ASN36      -0.2715
     12  CB        25.6540   29.9300  -36.0290 C.3    36  ASN36       0.1195
     13  CG        25.1430   30.3030  -37.3870 C.2    36  ASN36       0.2630
     14  OD1       24.0300   29.9410  -37.7520 O.2    36  ASN36      -0.2716
     15  ND2       25.9350   31.0910  -38.1050 N.am   36  ASN36      -0.0877
     16  N         22.4610   28.5820  -35.6720 N.am   37  SER37      -0.1950
     17  CA        21.0660   29.0030  -35.6260 C.3    37  SER37       0.1924
     18  C         20.5120   29.0150  -34.2000 C.2    37  SER37       0.2314
     19  O         20.5450   28.0010  -33.5020 O.2    37  SER37      -0.2863
     20  CB        20.2070   28.1200  -36.5330 C.3    37  SER37       0.2116
     21  OG        18.9760   28.7570  -36.8390 O.3    37  SER37      -0.2180
     22  N         13.8530   30.3990  -27.8550 N.3    43  VAL43      -0.1231
     23  CA        12.7910   31.0410  -28.6240 C.3    43  VAL43       0.1692
     24  C         11.5560   30.1480  -28.6740 C.2    43  VAL43       0.2592
     25  O         11.6150   28.9670  -28.3280 O.2    43  VAL43      -0.2718
     26  CB        13.2270   31.3560  -30.0700 C.3    43  VAL43       0.0266
     27  CG1       14.3620   32.3740  -30.0830 C.3    43  VAL43       0.0020
     28  CG2       13.6200   30.0790  -30.7990 C.3    43  VAL43       0.0020
     29  N         10.4370   30.7180  -29.1070 N.am   44  ARG44      -0.1966
     30  CA         9.1970   29.9660  -29.2380 C.3    44  ARG44       0.1729
     31  C          9.4140   28.7430  -30.1230 C.2    44  ARG44       0.2616
     32  O          9.1470   27.6120  -29.7160 O.2    44  ARG44      -0.2715
     33  CB         8.0960   30.8560  -29.8150 C.3    44  ARG44       0.0348
     34  CG         6.7510   30.1740  -29.9780 C.3    44  ARG44       0.0492
     35  CD         5.7270   31.1500  -30.5310 C.3    44  ARG44       0.2205
     36  NE         4.4450   30.5090  -30.8030 N.pl3  44  ARG44      -0.0865
     37  CZ         3.3490   31.1630  -31.1730 C.cat  44  ARG44       0.5346
     38  NH1        3.3750   32.4820  -31.3140 N.pl3  44  ARG44       0.1354
     39  NH2        2.2260   30.4990  -31.4010 N.pl3  44  ARG44       0.1354
     40  N          9.9070   28.9790  -31.3340 N.am   45  LEU45      -0.1963
     41  CA        10.2270   27.8960  -32.2550 C.3    45  LEU45       0.1728
     42  C         11.1100   28.3990  -33.3870 C.2    45  LEU45       0.2616
     43  O         10.7730   29.3730  -34.0610 O.2    45  LEU45      -0.2715
     44  CB         8.9520   27.2750  -32.8310 C.3    45  LEU45       0.0311
     45  CG         9.1420   26.1170  -33.8160 C.3    45  LEU45       0.0022
     46  CD1        9.8420   24.9470  -33.1430 C.3    45  LEU45       0.0001
     47  CD2        7.8110   25.6740  -34.4070 C.3    45  LEU45       0.0001
     48  N         12.2410   27.7350  -33.5920 N.am   46  ASP46      -0.1957
     49  CA        13.1150   28.0560  -34.7100 C.3    46  ASP46       0.1840
     50  C         12.7370   27.1820  -35.8970 C.2    46  ASP46       0.2622
     51  O         12.9890   25.9780  -35.8940 O.2    46  ASP46      -0.2715
     52  CB        14.5810   27.8390  -34.3240 C.3    46  ASP46       0.1450
     53  CG        15.5470   28.3050  -35.3990 C.2    46  ASP46       0.3671
     54  OD1       16.4820   29.0610  -35.0660 O.co2  46  ASP46      -0.2456
     55  OD2       15.3840   27.9130  -36.5730 O.co2  46  ASP46      -0.2456
     56  N         12.1260   27.7920  -36.9080 N.am   47  LEU47      -0.1963
     57  CA        11.6530   27.0530  -38.0740 C.3    47  LEU47       0.1728
     58  C         12.7800   26.3230  -38.8000 C.2    47  LEU47       0.2617
     59  O         12.5960   25.2020  -39.2800 O.2    47  LEU47      -0.2715
     60  CB        10.9170   27.9800  -39.0420 C.3    47  LEU47       0.0311
     61  CG         9.6590   28.6600  -38.5030 C.3    47  LEU47       0.0022
     62  CD1        8.9550   29.4230  -39.6170 C.3    47  LEU47       0.0001
     63  CD2        8.7240   27.6400  -37.8730 C.3    47  LEU47       0.0001
     64  N         13.9420   26.9620  -38.8850 N.am   48  GLY48      -0.1940
     65  CA        15.1000   26.3380  -39.4950 C.3    48  GLY48       0.2014
     66  C         15.4380   25.0360  -38.7950 C.2    48  GLY48       0.2638
     67  O         15.6700   24.0120  -39.4380 O.2    48  GLY48      -0.2714
     68  N         15.4590   25.0790  -37.4670 N.am   49  LEU49      -0.1977
     69  CA        15.7470   23.8980  -36.6640 C.3    49  LEU49       0.1596
     70  C         14.6160   22.8780  -36.7360 C.2    49  LEU49       0.2287
     71  O         14.8610   21.6740  -36.8030 O.2    49  LEU49      -0.2864
     72  CB        16.0120   24.2870  -35.2090 C.3    49  LEU49       0.0297
     73  CG        17.3250   25.0230  -34.9550 C.3    49  LEU49       0.0022
     74  CD1       17.4800   25.3640  -33.4800 C.3    49  LEU49       0.0001
     75  CD2       18.4960   24.1830  -35.4430 C.3    49  LEU49       0.0001
     76  N         14.7310   20.7100  -39.9780 N.3    52  LYS52      -0.1245
     77  CA        15.7430   19.6650  -39.9190 C.3    52  LYS52       0.1561
     78  C         15.3680   18.6060  -38.8890 C.2    52  LYS52       0.2260
     79  O         15.5660   17.4100  -39.1100 O.2    52  LYS52      -0.2867
     80  CB        17.1140   20.2610  -39.5910 C.3    52  LYS52       0.0271
     81  CG        17.6340   21.2270  -40.6410 C.3    52  LYS52       0.0035
     82  CD        18.2330   20.4660  -41.8220 C.3    52  LYS52       0.0206
     83  CE        19.4030   19.5450  -41.3730 C.3    52  LYS52       0.1093
     84  NZ        20.5420   20.2590  -40.6740 N.3    52  LYS52      -0.1314
@<TRIPOS>BOND
     1    82    83    1
     2    82    81    1
     3    83    84    1
     4    81    80    1
     5    76    77    1
     6    77    80    1
     7    77    78    1
     8    62    61    1
     9    65    64    1
    10    65    66    1
    11    67    66    2
    12    59    58    2
    13    79    78    2
    14    60    61    1
    15    60    57    1
    16    64    58   am
    17    58    57    1
    18    66    68   am
    19    61    63    1
    20    15    13   am
    21    57    56    1
    22    14    13    2
    23     6     5    1
    24    68    69    1
    25    13    12    1
    26    56    50   am
    27     5     2    1
    28     5     7    1
    29    21    20    1
    30    71    70    2
    31    70    69    1
    32    69    72    1
    33    55    53   ar
    34    20    17    1
    35     2     1    1
    36     2     3    1
    37     8     3   am
    38     8     9    1
    39    12     9    1
    40    50    51    2
    41    50    49    1
    42    16    17    1
    43    16    10   am
    44    17    18    1
    45     3     4    2
    46    75    73    1
    47    53    54   ar
    48    53    52    1
    49     9    10    1
    50    72    73    1
    51    10    11    2
    52    73    74    1
    53    49    52    1
    54    49    48    1
    55    47    45    1
    56    18    19    2
    57    43    42    2
    58    45    46    1
    59    45    44    1
    60    48    42   am
    61    42    41    1
    62    44    41    1
    63    41    40    1
    64    39    37    1
    65    40    31   am
    66    38    37    1
    67    37    36    2
    68    36    35    1
    69    28    26    1
    70    35    34    1
    71    31    32    2
    72    31    30    1
    73    27    26    1
    74    26    23    1
    75    34    33    1
    76    33    30    1
    77    30    29    1
    78    29    24   am
    79    24    23    1
    80    24    25    2
    81    23    22    1
