@<TRIPOS>MOLECULE
tmp/4jyhA00.pdb
 227 213 0 0 0
SMALL
GASTEIGER

@<TRIPOS>ATOM
      1  N          5.2250   -2.0860    3.9500 N.3    23  PHE23      -0.1241
      2  CA         6.0600   -1.8050    2.7900 C.3    23  PHE23       0.1605
      3  C          6.8050   -0.4860    2.9700 C.2    23  PHE23       0.2264
      4  O          6.2260    0.5900    2.8070 O.2    23  PHE23      -0.2867
      5  CB         5.1980   -1.7680    1.5270 C.3    23  PHE23       0.0534
      6  CG         5.9840   -1.6900    0.2480 C.ar   23  PHE23      -0.0203
      7  CD1        6.1430   -0.4810   -0.4090 C.ar   23  PHE23      -0.0042
      8  CD2        6.5490   -2.8260   -0.3040 C.ar   23  PHE23      -0.0042
      9  CE1        6.8560   -0.4090   -1.5920 C.ar   23  PHE23      -0.0003
     10  CE2        7.2630   -2.7590   -1.4830 C.ar   23  PHE23      -0.0003
     11  CZ         7.4150   -1.5500   -2.1290 C.ar   23  PHE23      -0.0000
     12  N         18.5960  -15.6620   -7.9340 N.3    49  TRP49      -0.1241
     13  CA        17.2700  -16.2360   -7.7740 C.3    49  TRP49       0.1605
     14  C         16.9710  -16.5040   -6.3090 C.2    49  TRP49       0.2264
     15  O         15.9770  -16.0200   -5.7720 O.2    49  TRP49      -0.2867
     16  CB        17.1290  -17.5420   -8.5490 C.3    49  TRP49       0.0550
     17  CG        16.0220  -18.3800   -7.9990 C.ar   49  TRP49       0.0003
     18  CD1       16.1440  -19.4470   -7.1590 C.ar   49  TRP49       0.0946
     19  CD2       14.6150  -18.1970   -8.2110 C.ar   49  TRP49       0.0152
     20  NE1       14.9070  -19.9510   -6.8510 N.ar   49  TRP49      -0.2442
     21  CE2       13.9510  -19.2010   -7.4840 C.ar   49  TRP49       0.0810
     22  CE3       13.8580  -17.2840   -8.9560 C.ar   49  TRP49       0.0012
     23  CZ2       12.5610  -19.3220   -7.4780 C.ar   49  TRP49       0.0191
     24  CZ3       12.4820  -17.4040   -8.9480 C.ar   49  TRP49       0.0001
     25  CH2       11.8460  -18.4150   -8.2140 C.ar   49  TRP49       0.0015
     26  N         16.3530  -13.3440   -4.5380 N.3    52  PHE52      -0.1241
     27  CA        15.1550  -12.7010   -5.0640 C.3    52  PHE52       0.1605
     28  C         13.8920  -13.4100   -4.5690 C.2    52  PHE52       0.2264
     29  O         12.9630  -12.7770   -4.0630 O.2    52  PHE52      -0.2867
     30  CB        15.1920  -12.6830   -6.5950 C.3    52  PHE52       0.0534
     31  CG        13.8490  -12.4500   -7.2340 C.ar   52  PHE52      -0.0203
     32  CD1       13.3450  -11.1680   -7.3780 C.ar   52  PHE52      -0.0042
     33  CD2       13.0910  -13.5160   -7.6970 C.ar   52  PHE52      -0.0042
     34  CE1       12.1080  -10.9540   -7.9650 C.ar   52  PHE52      -0.0003
     35  CE2       11.8560  -13.3080   -8.2840 C.ar   52  PHE52      -0.0003
     36  CZ        11.3640  -12.0260   -8.4180 C.ar   52  PHE52      -0.0000
     37  N         13.1360  -12.8210   -0.9480 N.3    55  LEU55      -0.1231
     38  CA        12.6240  -11.4890   -0.6720 C.3    55  LEU55       0.1693
     39  C         11.2000  -11.3350   -1.1940 C.2    55  LEU55       0.2591
     40  O         10.3870  -10.6140   -0.6150 O.2    55  LEU55      -0.2718
     41  CB        13.5380  -10.4350   -1.2920 C.3    55  LEU55       0.0284
     42  CG        14.9300  -10.3220   -0.6700 C.3    55  LEU55       0.0019
     43  CD1       15.7880   -9.3430   -1.4560 C.3    55  LEU55       0.0001
     44  CD2       14.8310   -9.9040    0.7880 C.3    55  LEU55       0.0001
     45  N         10.9100  -12.0140   -2.2980 N.am   56  ALA56      -0.1980
     46  CA         9.5680  -12.0240   -2.8490 C.3    56  ALA56       0.1597
     47  C          8.6390  -12.7450   -1.8820 C.2    56  ALA56       0.2287
     48  O          7.5360  -12.2770   -1.6020 O.2    56  ALA56      -0.2864
     49  CB         9.5570  -12.6980   -4.2120 C.3    56  ALA56       0.0319
     50  N          8.8830  -13.0590    1.3020 N.3    58  LYS58      -0.1231
     51  CA         8.6500  -12.2220    2.4680 C.3    58  LYS58       0.1693
     52  C          7.7420  -11.0500    2.1300 C.2    58  LYS58       0.2592
     53  O          7.0430  -10.5270    2.9960 O.2    58  LYS58      -0.2718
     54  CB         9.9760  -11.7310    3.0400 C.3    58  LYS58       0.0285
     55  CG        10.8530  -12.8600    3.5280 C.3    58  LYS58       0.0035
     56  CD        12.1530  -12.3530    4.1090 C.3    58  LYS58       0.0206
     57  CE        12.9400  -13.5020    4.7070 C.3    58  LYS58       0.1093
     58  NZ        14.2230  -13.0520    5.3140 N.3    58  LYS58      -0.1314
     59  N          7.7550  -10.6410    0.8680 N.am   59  CYS59      -0.1970
     60  CA         6.8740   -9.5780    0.4160 C.3    59  CYS59       0.1712
     61  C          5.4540  -10.1090    0.3320 C.2    59  CYS59       0.2296
     62  O          4.5010   -9.4090    0.6570 O.2    59  CYS59      -0.2864
     63  CB         7.3130   -9.0410   -0.9440 C.3    59  CYS59       0.0983
     64  SG         6.2780   -7.6900   -1.5410 S.3    59  CYS59      -0.0798
     65  N          0.4900  -11.3760   -7.6390 N.3    90  LEU90      -0.1245
     66  CA         1.4760  -11.0090   -8.6400 C.3    90  LEU90       0.1561
     67  C          1.2710   -9.5760   -9.1140 C.2    90  LEU90       0.2260
     68  O          2.2350   -8.8660   -9.3960 O.2    90  LEU90      -0.2867
     69  CB         1.4210  -11.9790   -9.8170 C.3    90  LEU90       0.0270
     70  CG         2.5480  -11.8570  -10.8430 C.3    90  LEU90       0.0019
     71  CD1        3.9010  -11.6830  -10.1620 C.3    90  LEU90       0.0001
     72  CD2        2.5520  -13.0700  -11.7680 C.3    90  LEU90       0.0001
     73  N          2.9000   -7.6480   -6.3450 N.3    93  LEU93      -0.1231
     74  CA         4.3460   -7.8480   -6.4170 C.3    93  LEU93       0.1693
     75  C          4.9480   -6.8930   -7.4430 C.2    93  LEU93       0.2591
     76  O          5.9400   -6.2130   -7.1710 O.2    93  LEU93      -0.2718
     77  CB         4.6860   -9.2900   -6.7910 C.3    93  LEU93       0.0284
     78  CG         4.4990  -10.3400   -5.7000 C.3    93  LEU93       0.0019
     79  CD1        4.7510  -11.7280   -6.2640 C.3    93  LEU93       0.0001
     80  CD2        5.4180  -10.0520   -4.5290 C.3    93  LEU93       0.0001
     81  N          4.3350   -6.8520   -8.6220 N.am   94  ILE94      -0.1980
     82  CA         4.7740   -5.9680   -9.6930 C.3    94  ILE94       0.1595
     83  C          4.6970   -4.5120   -9.2450 C.2    94  ILE94       0.2287
     84  O          5.6860   -3.7830   -9.2980 O.2    94  ILE94      -0.2864
     85  CB         3.9150   -6.1590  -10.9570 C.3    94  ILE94       0.0276
     86  CG1        4.0310   -7.6020  -11.4590 C.3    94  ILE94       0.0022
     87  CG2        4.3270   -5.1720  -12.0380 C.3    94  ILE94       0.0022
     88  CD1        3.0210   -7.9670  -12.5310 C.3    94  ILE94       0.0001
     89  N          4.4860   -3.1280   -6.2860 N.3    96  ARG96      -0.1231
     90  CA         5.3840   -2.8080   -5.1860 C.3    96  ARG96       0.1694
     91  C          6.8180   -2.5980   -5.6570 C.2    96  ARG96       0.2591
     92  O          7.4570   -1.6060   -5.3040 O.2    96  ARG96      -0.2718
     93  CB         5.3340   -3.8950   -4.1100 C.3    96  ARG96       0.0321
     94  CG         4.0850   -3.8440   -3.2570 C.3    96  ARG96       0.0489
     95  CD         4.2370   -4.6270   -1.9690 C.3    96  ARG96       0.2205
     96  NE         3.2310   -4.2210   -0.9900 N.pl3  96  ARG96      -0.0865
     97  CZ         3.2820   -4.5080    0.3070 C.cat  96  ARG96       0.5346
     98  NH1        4.2940   -5.2110    0.7970 N.pl3  96  ARG96       0.1354
     99  NH2        2.3190   -4.0870    1.1170 N.pl3  96  ARG96       0.1354
    100  N          7.3250   -3.5300   -6.4580 N.am   97  ILE97      -0.1980
    101  CA         8.7000   -3.4320   -6.9280 C.3    97  ILE97       0.1595
    102  C          8.8940   -2.2290   -7.8480 C.2    97  ILE97       0.2287
    103  O          9.9530   -1.6040   -7.8410 O.2    97  ILE97      -0.2864
    104  CB         9.1730   -4.7280   -7.6310 C.3    97  ILE97       0.0276
    105  CG1       10.6990   -4.7390   -7.7540 C.3    97  ILE97       0.0022
    106  CG2        8.5050   -4.8870   -8.9920 C.3    97  ILE97       0.0022
    107  CD1       11.4240   -4.6180   -6.4270 C.3    97  ILE97       0.0001
    108  N          9.8240    0.9590   -6.3460 N.3   100  ARG100     -0.1245
    109  CA        11.1450    0.9110   -5.7410 C.3   100  ARG100      0.1563
    110  C         12.1820    1.0310   -6.8450 C.2   100  ARG100      0.2260
    111  O         13.2770    0.4760   -6.7540 O.2   100  ARG100     -0.2867
    112  CB        11.3310   -0.4020   -4.9810 C.3   100  ARG100      0.0307
    113  CG        10.4500   -0.5470   -3.7470 C.3   100  ARG100      0.0489
    114  CD        11.1920   -0.1220   -2.4940 C.3   100  ARG100      0.2205
    115  NE        10.4100   -0.3380   -1.2800 N.pl3 100  ARG100     -0.0865
    116  CZ        10.3600   -1.4890   -0.6140 C.cat 100  ARG100      0.5346
    117  NH1       11.0410   -2.5420   -1.0490 N.pl3 100  ARG100      0.1354
    118  NH2        9.6250   -1.5890    0.4860 N.pl3 100  ARG100      0.1354
    119  N         14.8390   -3.8580   -3.0270 N.3   110  PHE110     -0.1227
    120  CA        13.9910   -4.7070   -2.2090 C.3   110  PHE110      0.1736
    121  C         13.8400   -4.1530   -0.7950 C.2   110  PHE110      0.2596
    122  O         14.2570   -3.0290   -0.5170 O.2   110  PHE110     -0.2718
    123  CB        14.5240   -6.1380   -2.2220 C.3   110  PHE110      0.0547
    124  CG        14.5310   -6.7490   -3.5930 C.ar  110  PHE110     -0.0202
    125  CD1       15.5530   -6.4650   -4.4870 C.ar  110  PHE110     -0.0042
    126  CD2       13.4980   -7.5740   -4.0040 C.ar  110  PHE110     -0.0042
    127  CE1       15.5530   -7.0100   -5.7600 C.ar  110  PHE110     -0.0003
    128  CE2       13.4910   -8.1230   -5.2720 C.ar  110  PHE110     -0.0003
    129  CZ        14.5190   -7.8390   -6.1530 C.ar  110  PHE110     -0.0000
    130  N         13.2260   -4.9320    0.0890 N.am  111  SER111     -0.1952
    131  CA        12.8890   -4.4440    1.4210 C.3   111  SER111      0.1924
    132  C         14.0550   -4.5420    2.3990 C.2   111  SER111      0.2314
    133  O         14.0920   -3.8330    3.4060 O.2   111  SER111     -0.2863
    134  CB        11.6670   -5.1810    1.9730 C.3   111  SER111      0.2116
    135  OG        10.4880   -4.7970    1.2840 O.3   111  SER111     -0.2180
    136  N         15.5400  -13.6670  -12.4940 N.3   125  GLY125     -0.1210
    137  CA        14.4270  -14.4730  -12.9610 C.3   125  GLY125      0.1956
    138  C         13.4420  -13.7880  -13.8930 C.2   125  GLY125      0.2611
    139  O         12.6130  -14.4570  -14.5140 O.2   125  GLY125     -0.2717
    140  N         13.5210  -12.4640  -13.9940 N.am  126  PHE126     -0.1976
    141  CA        12.6210  -11.7170  -14.8720 C.3   126  PHE126      0.1639
    142  C         12.7430  -12.1550  -16.3300 C.2   126  PHE126      0.2290
    143  O         11.7730  -12.0880  -17.0900 O.2   126  PHE126     -0.2864
    144  CB        12.8600  -10.2130  -14.7520 C.3   126  PHE126      0.0560
    145  CG        12.1370   -9.5760  -13.6020 C.ar  126  PHE126     -0.0200
    146  CD1       11.7250  -10.3350  -12.5170 C.ar  126  PHE126     -0.0042
    147  CD2       11.8490   -8.2200  -13.6120 C.ar  126  PHE126     -0.0042
    148  CE1       11.0520   -9.7500  -11.4570 C.ar  126  PHE126     -0.0003
    149  CE2       11.1770   -7.6320  -12.5560 C.ar  126  PHE126     -0.0003
    150  CZ        10.7780   -8.3990  -11.4770 C.ar  126  PHE126     -0.0000
    151  N         10.9560  -10.8670  -19.6530 N.3   129  LEU129     -0.1245
    152  CA         9.9120   -9.9290  -19.2360 C.3   129  LEU129      0.1561
    153  C         10.4900   -8.6980  -18.5550 C.2   129  LEU129      0.2260
    154  O          9.7600   -7.8090  -18.1230 O.2   129  LEU129     -0.2867
    155  CB         8.9030  -10.6120  -18.3130 C.3   129  LEU129      0.0270
    156  CG         7.8460  -11.4660  -19.0080 C.3   129  LEU129      0.0019
    157  CD1        8.4700  -12.7260  -19.5940 C.3   129  LEU129      0.0001
    158  CD2        6.7500  -11.8180  -18.0260 C.3   129  LEU129      0.0001
    159  N          8.7570   -4.9050  -17.4540 N.3   133  VAL133     -0.1245
    160  CA         8.5610   -4.5230  -16.0640 C.3   133  VAL133      0.1561
    161  C          9.1860   -3.1630  -15.7720 C.2   133  VAL133      0.2260
    162  O          8.6370   -2.3740  -15.0040 O.2   133  VAL133     -0.2867
    163  CB         9.1310   -5.5780  -15.0980 C.3   133  VAL133      0.0252
    164  CG1        8.9160   -5.1460  -13.6500 C.3   133  VAL133      0.0019
    165  CG2        8.4880   -6.9300  -15.3540 C.3   133  VAL133      0.0019
    166  N          1.0120   -7.2720  -17.4530 N.3   211  ILE211     -0.1245
    167  CA         2.2980   -7.7550  -16.9770 C.3   211  ILE211      0.1561
    168  C          2.0940   -9.0020  -16.1190 C.2   211  ILE211      0.2260
    169  O          2.8470   -9.9730  -16.2250 O.2   211  ILE211     -0.2867
    170  CB         3.0500   -6.6750  -16.1760 C.3   211  ILE211      0.0252
    171  CG1        3.1840   -5.3970  -17.0090 C.3   211  ILE211      0.0019
    172  CG2        4.4140   -7.1850  -15.7480 C.3   211  ILE211      0.0019
    173  CD1        3.6500   -4.1930  -16.2160 C.3   211  ILE211      0.0001
    174  N          3.5790  -12.4780  -16.4730 N.3   215  GLY215     -0.1225
    175  CA         4.3740  -12.8920  -15.3320 C.3   215  GLY215      0.1811
    176  C          4.0560  -14.3240  -14.9680 C.2   215  GLY215      0.2280
    177  O          4.9510  -15.1330  -14.7290 O.2   215  GLY215     -0.2866
    178  N          5.5530  -16.4750  -17.4540 N.3   218  ARG218     -0.1231
    179  CA         6.9820  -16.4940  -17.1850 C.3   218  ARG218      0.1694
    180  C          7.3150  -17.4310  -16.0280 C.2   218  ARG218      0.2591
    181  O          8.2330  -18.2450  -16.1300 O.2   218  ARG218     -0.2718
    182  CB         7.4830  -15.0790  -16.8900 C.3   218  ARG218      0.0321
    183  CG         8.9090  -15.0150  -16.3800 C.3   218  ARG218      0.0489
    184  CD         9.8850  -15.6390  -17.3630 C.3   218  ARG218      0.2205
    185  NE        11.2520  -15.5850  -16.8530 N.pl3 218  ARG218     -0.0865
    186  CZ        12.2680  -16.2700  -17.3660 C.cat 218  ARG218      0.5346
    187  NH1       12.0750  -17.0690  -18.4080 N.pl3 218  ARG218      0.1354
    188  NH2       13.4780  -16.1600  -16.8370 N.pl3 218  ARG218      0.1354
    189  N          6.5770  -17.3110  -14.9270 N.am  219  VAL219     -0.1980
    190  CA         6.8180  -18.1560  -13.7610 C.3   219  VAL219      0.1595
    191  C          6.8450  -19.6280  -14.1500 C.2   219  VAL219      0.2287
    192  O          7.6920  -20.3890  -13.6860 O.2   219  VAL219     -0.2864
    193  CB         5.7510  -17.9550  -12.6600 C.3   219  VAL219      0.0276
    194  CG1        5.8810  -19.0370  -11.5950 C.3   219  VAL219      0.0022
    195  CG2        5.8620  -16.5720  -12.0370 C.3   219  VAL219      0.0022
    196  N         10.1600  -20.3950  -15.7200 N.3   222  LEU222     -0.1245
    197  CA        11.1570  -20.5340  -14.6670 C.3   222  LEU222      0.1561
    198  C         11.0670  -21.9020  -13.9960 C.2   222  LEU222      0.2260
    199  O         12.0830  -22.5040  -13.6530 O.2   222  LEU222     -0.2867
    200  CB        10.9780  -19.4480  -13.6040 C.3   222  LEU222      0.0270
    201  CG        11.4100  -18.0150  -13.9050 C.3   222  LEU222      0.0019
    202  CD1       11.1310  -17.1440  -12.6950 C.3   222  LEU222      0.0001
    203  CD2       12.8750  -17.9620  -14.2760 C.3   222  LEU222      0.0001
    204  N         10.5610  -23.7610   -6.4670 N.3   230  MET230     -0.1245
    205  CA        10.4490  -22.4050   -5.9450 C.3   230  MET230      0.1570
    206  C         10.0060  -22.4890   -4.4900 C.2   230  MET230      0.2261
    207  O          9.4830  -23.5180   -4.0630 O.2   230  MET230     -0.2867
    208  CB         9.4330  -21.5950   -6.7500 C.3   230  MET230      0.0387
    209  CG         9.7620  -21.4540   -8.2250 C.3   230  MET230      0.0595
    210  SD         8.6820  -20.2580   -9.0390 S.3   230  MET230     -0.1393
    211  CE         9.2540  -20.3810  -10.7320 C.3   230  MET230      0.0692
    212  N          5.3220  -19.1870   -2.7850 N.3   234  ILE234     -0.1245
    213  CA         5.2250  -18.7520   -4.1700 C.3   234  ILE234      0.1561
    214  C          4.4930  -19.8090   -4.9880 C.2   234  ILE234      0.2260
    215  O          3.6040  -19.4890   -5.7740 O.2   234  ILE234     -0.2867
    216  CB         6.6130  -18.4730   -4.7760 C.3   234  ILE234      0.0252
    217  CG1        7.2970  -17.3370   -4.0110 C.3   234  ILE234      0.0019
    218  CG2        6.4940  -18.1220   -6.2500 C.3   234  ILE234      0.0019
    219  CD1        8.6670  -16.9730   -4.5330 C.3   234  ILE234      0.0001
    220  N          0.7960  -19.2360   -6.9720 N.3   238  MET238     -0.1245
    221  CA         0.8810  -19.3300   -8.4230 C.3   238  MET238      0.1570
    222  C          0.0940  -20.5240   -8.9400 C.2   238  MET238      0.2261
    223  O          0.1630  -20.8640  -10.1220 O.2   238  MET238     -0.2867
    224  CB         2.3440  -19.4120   -8.8600 C.3   238  MET238      0.0387
    225  CG         3.1820  -18.2330   -8.3830 C.3   238  MET238      0.0595
    226  SD         2.6730  -16.6590   -9.1060 S.3   238  MET238     -0.1393
    227  CE         3.0670  -15.5300   -7.7790 C.3   238  MET238      0.0692
@<TRIPOS>BOND
     1   151   152    1
     2   157   156    1
     3   152   153    1
     4   152   155    1
     5   156   155    1
     6   156   158    1
     7   153   154    2
     8   187   186    1
     9   159   160    1
    10   178   179    1
    11   166   167    1
    12   186   185    2
    13   186   188    1
    14   184   185    1
    15   184   183    1
    16   179   182    1
    17   179   180    1
    18   143   142    2
    19   171   173    1
    20   171   170    1
    21   167   170    1
    22   167   168    1
    23   182   183    1
    24   174   175    1
    25   142   141    1
    26   169   168    2
    27   170   172    1
    28   181   180    2
    29   160   161    1
    30   160   163    1
    31   180   189   am
    32   161   162    2
    33   196   197    1
    34   165   163    1
    35   175   176    1
    36   163   164    1
    37   176   177    2
    38   189   190    1
    39   141   144    1
    40   141   140    1
    41   144   145    1
    42   197   198    1
    43   197   200    1
    44   139   138    2
    45   203   201    1
    46   191   190    1
    47   191   192    2
    48   198   199    2
    49   140   138   am
    50   201   200    1
    51   201   202    1
    52   138   137    1
    53   190   193    1
    54   147   145   ar
    55   147   149   ar
    56   145   146   ar
    57   137   136    1
    58   193   195    1
    59   193   194    1
    60   149   150   ar
    61    88    86    1
    62   146   148   ar
    63    87    85    1
    64    72    70    1
    65   150   148   ar
    66    86    85    1
    67    85    82    1
    68    70    71    1
    69    70    69    1
    70   211   210    1
    71   223   222    2
    72    69    66    1
    73    82    83    1
    74    82    81    1
    75    68    67    2
    76    84    83    2
    77    67    66    1
    78   226   225    1
    79   226   227    1
    80   210   209    1
    81   106   104    1
    82    22    24   ar
    83    22    19   ar
    84    24    25   ar
    85   222   221    1
    86   224   221    1
    87   224   225    1
    88    66    65    1
    89    81    75   am
    90    16    17    1
    91    16    13    1
    92   221   220    1
    93    36    35   ar
    94    36    34   ar
    95    35    33   ar
    96   209   208    1
    97    25    23   ar
    98    19    17   ar
    99    19    21   ar
   100    17    18   ar
   101    34    32   ar
   102    12    13    1
   103   102   103    2
   104   102   101    1
   105    13    14    1
   106   105   104    1
   107   105   107    1
   108    33    31   ar
   109   104   101    1
   110    21    23   ar
   111    21    20   ar
   112    75    76    2
   113    75    74    1
   114    32    31   ar
   115    31    30    1
   116    18    20   ar
   117   101   100    1
   118   110   111    2
   119   110   109    1
   120    77    74    1
   121    77    78    1
   122   208   205    1
   123    30    27    1
   124   204   205    1
   125   100    91   am
   126    74    73    1
   127   108   109    1
   128    14    15    2
   129    89    90    1
   130    79    78    1
   131   218   216    1
   132   129   127   ar
   133   129   128   ar
   134   205   206    1
   135   215   214    2
   136   127   125   ar
   137   109   112    1
   138    78    80    1
   139    91    92    2
   140    91    90    1
   141   128   126   ar
   142    90    93    1
   143    27    28    1
   144    27    26    1
   145   214   213    1
   146   112   113    1
   147   216   213    1
   148   216   217    1
   149    28    29    2
   150   219   217    1
   151   206   207    2
   152   125   124   ar
   153    49    46    1
   154   213   212    1
   155    93    94    1
   156   126   124   ar
   157   113   114    1
   158   124   123    1
   159    94    95    1
   160   119   120    1
   161    46    45    1
   162    46    47    1
   163   114   115    1
   164    45    39   am
   165   123   120    1
   166   120   121    1
   167    11     9   ar
   168    11    10   ar
   169    95    96    1
   170    47    48    2
   171     9     7   ar
   172    64    63    1
   173    10     8   ar
   174    43    42    1
   175    41    38    1
   176    41    42    1
   177   115   116    2
   178    39    38    1
   179    39    40    2
   180   117   116    1
   181    96    97    2
   182    37    38    1
   183    63    60    1
   184   121   122    2
   185   121   130   am
   186    42    44    1
   187   116   118    1
   188     7     6   ar
   189     8     6   ar
   190   130   131    1
   191     6     5    1
   192    97    98    1
   193    97    99    1
   194    61    60    1
   195    61    62    2
   196    60    59    1
   197    59    52   am
   198   135   134    1
   199    50    51    1
   200   131   134    1
   201   131   132    1
   202     5     2    1
   203    52    51    1
   204    52    53    2
   205   132   133    2
   206    51    54    1
   207     2     3    1
   208     2     1    1
   209     4     3    2
   210    54    55    1
   211    55    56    1
   212    56    57    1
   213    57    58    1
