@<TRIPOS>MOLECULE
tmp/4jyhB00.pdb
 125 117 0 0 0
SMALL
GASTEIGER

@<TRIPOS>ATOM
      1  N        -11.6800   -6.0140  -39.8710 N.3    61  ILE61      -0.1245
      2  CA       -11.9110   -4.9900  -40.8850 C.3    61  ILE61       0.1561
      3  C        -12.8620   -3.9040  -40.3710 C.2    61  ILE61       0.2260
      4  O        -12.5940   -2.7130  -40.5280 O.2    61  ILE61      -0.2867
      5  CB       -12.4420   -5.5880  -42.2090 C.3    61  ILE61       0.0252
      6  CG1      -11.4420   -6.5990  -42.7780 C.3    61  ILE61       0.0019
      7  CG2      -12.7060   -4.4870  -43.2250 C.3    61  ILE61       0.0019
      8  CD1      -11.9390   -7.3450  -44.0030 C.3    61  ILE61       0.0001
      9  N        -10.9660   -1.6560  -37.8200 N.3    64  VAL64      -0.1245
     10  CA       -10.1560   -0.6560  -38.5020 C.3    64  VAL64       0.1561
     11  C        -11.0430    0.4870  -38.9730 C.2    64  VAL64       0.2260
     12  O        -10.6860    1.6590  -38.8510 O.2    64  VAL64      -0.2867
     13  CB        -9.4310   -1.2620  -39.7150 C.3    64  VAL64       0.0252
     14  CG1       -8.6680   -0.1880  -40.4750 C.3    64  VAL64       0.0019
     15  CG2       -8.4970   -2.3710  -39.2680 C.3    64  VAL64       0.0019
     16  N        -10.9950    4.6440  -37.9770 N.3    68  LYS68      -0.1245
     17  CA       -10.9430    5.7720  -38.9050 C.3    68  LYS68       0.1561
     18  C        -12.1270    6.7190  -38.7110 C.2    68  LYS68       0.2260
     19  O        -12.1460    7.8250  -39.2500 O.2    68  LYS68      -0.2867
     20  CB       -10.8810    5.2700  -40.3510 C.3    68  LYS68       0.0271
     21  CG        -9.7100    4.3330  -40.6180 C.3    68  LYS68       0.0035
     22  CD        -9.8110    3.6550  -41.9800 C.3    68  LYS68       0.0206
     23  CE        -9.4570    4.6020  -43.1120 C.3    68  LYS68       0.1093
     24  NZ        -9.5310    3.9180  -44.4360 N.3    68  LYS68      -0.1314
     25  N         -8.0300   10.3020  -35.2290 N.3    73  PHE73      -0.1227
     26  CA        -7.2890    9.0640  -35.4290 C.3    73  PHE73       0.1736
     27  C         -6.5420    9.0660  -36.7550 C.2    73  PHE73       0.2596
     28  O         -5.3820    8.6580  -36.8280 O.2    73  PHE73      -0.2718
     29  CB        -8.2120    7.8510  -35.3660 C.3    73  PHE73       0.0547
     30  CG        -7.4890    6.5450  -35.5040 C.ar   73  PHE73      -0.0202
     31  CD1       -6.9060    5.9440  -34.4000 C.ar   73  PHE73      -0.0042
     32  CD2       -7.3780    5.9250  -36.7370 C.ar   73  PHE73      -0.0042
     33  CE1       -6.2340    4.7450  -34.5210 C.ar   73  PHE73      -0.0003
     34  CE2       -6.7060    4.7260  -36.8640 C.ar   73  PHE73      -0.0003
     35  CZ        -6.1340    4.1350  -35.7550 C.ar   73  PHE73      -0.0000
     36  N         -7.2150    9.5220  -37.8030 N.am   74  THR74      -0.1953
     37  CA        -6.6040    9.5890  -39.1210 C.3    74  THR74       0.1897
     38  C         -5.5230   10.6650  -39.1360 C.2    74  THR74       0.2313
     39  O         -4.6060   10.6270  -39.9580 O.2    74  THR74      -0.2863
     40  CB        -7.6530    9.8590  -40.2160 C.3    74  THR74       0.1794
     41  OG1       -8.3050   11.1100  -39.9620 O.3    74  THR74      -0.2208
     42  CG2       -8.6940    8.7460  -40.2340 C.3    74  THR74       0.0378
     43  N          0.6210    7.1100  -39.8440 N.3    78  ILE78      -0.1245
     44  CA         0.2780    5.7280  -40.1600 C.3    78  ILE78       0.1561
     45  C          0.9020    4.7430  -39.1730 C.2    78  ILE78       0.2260
     46  O          0.2860    3.7430  -38.8070 O.2    78  ILE78      -0.2867
     47  CB         0.7010    5.3580  -41.5960 C.3    78  ILE78       0.0252
     48  CG1       -0.2020    6.0600  -42.6110 C.3    78  ILE78       0.0019
     49  CG2        0.6400    3.8570  -41.8010 C.3    78  ILE78       0.0019
     50  CD1       -1.6590    5.6570  -42.5090 C.3    78  ILE78       0.0001
     51  N         -1.1020    4.8410  -35.9880 N.3    81  GLN81      -0.1231
     52  CA        -2.4060    4.2340  -36.2030 C.3    81  GLN81       0.1698
     53  C         -2.2650    2.7220  -36.1220 C.2    81  GLN81       0.2592
     54  O         -3.0510    2.0460  -35.4620 O.2    81  GLN81      -0.2718
     55  CB        -2.9850    4.6540  -37.5540 C.3    81  GLN81       0.0381
     56  CG        -3.3170    6.1350  -37.6370 C.3    81  GLN81       0.0905
     57  CD        -3.9570    6.5230  -38.9550 C.2    81  GLN81       0.2608
     58  OE1       -4.9720    5.9550  -39.3590 O.2    81  GLN81      -0.2717
     59  NE2       -3.3630    7.4940  -39.6350 N.am   81  GLN81      -0.0878
     60  N         -1.2400    2.1970  -36.7790 N.am   82  ILE82      -0.1980
     61  CA        -0.9810    0.7650  -36.7580 C.3    82  ILE82       0.1595
     62  C         -0.6240    0.2730  -35.3550 C.2    82  ILE82       0.2287
     63  O         -1.1130   -0.7680  -34.9180 O.2    82  ILE82      -0.2864
     64  CB         0.1150    0.3790  -37.7710 C.3    82  ILE82       0.0276
     65  CG1       -0.3860    0.6290  -39.1970 C.3    82  ILE82       0.0022
     66  CG2        0.5240   -1.0730  -37.5950 C.3    82  ILE82       0.0022
     67  CD1        0.5780    0.2030  -40.2810 C.3    82  ILE82       0.0001
     68  N         -3.8140    0.1860  -33.2220 N.3    85  LEU85      -0.1231
     69  CA        -4.6710   -0.9050  -33.6540 C.3    85  LEU85       0.1693
     70  C         -4.1430   -2.2520  -33.1780 C.2    85  LEU85       0.2591
     71  O         -4.8780   -3.0340  -32.5770 O.2    85  LEU85      -0.2718
     72  CB        -4.8290   -0.8890  -35.1740 C.3    85  LEU85       0.0284
     73  CG        -5.8950    0.0940  -35.6620 C.3    85  LEU85       0.0019
     74  CD1       -5.8140    0.3100  -37.1660 C.3    85  LEU85       0.0001
     75  CD2       -7.2830   -0.3880  -35.2550 C.3    85  LEU85       0.0001
     76  N         -2.8660   -2.5120  -33.4340 N.am   86  LYS86      -0.1980
     77  CA        -2.2610   -3.7960  -33.0910 C.3    86  LYS86       0.1596
     78  C         -2.3190   -4.1050  -31.5960 C.2    86  LYS86       0.2287
     79  O         -2.2980   -5.2690  -31.1980 O.2    86  LYS86      -0.2864
     80  CB        -0.8160   -3.8660  -33.5930 C.3    86  LYS86       0.0298
     81  CG        -0.6890   -4.1270  -35.0870 C.3    86  LYS86       0.0038
     82  CD         0.7480   -3.9830  -35.5620 C.3    86  LYS86       0.0206
     83  CE         1.6710   -4.9860  -34.8850 C.3    86  LYS86       0.1093
     84  NZ         1.3690   -6.3880  -35.2810 N.3    86  LYS86      -0.1314
     85  N         -3.8870  -13.6740  -43.1170 N.3   232  PRO232     -0.2102
     86  CA        -2.8000  -12.6900  -43.1330 C.3   232  PRO232      0.1504
     87  C         -3.0800  -11.4920  -42.2360 C.2   232  PRO232      0.2575
     88  O         -2.1630  -10.9590  -41.6150 O.2   232  PRO232     -0.2718
     89  CB        -2.7420  -12.2500  -44.6020 C.3   232  PRO232      0.0282
     90  CG        -4.0410  -12.6970  -45.2050 C.3   232  PRO232      0.0208
     91  CD        -4.4070  -13.9400  -44.4670 C.3   232  PRO232      0.0893
     92  N         -4.3390  -11.0760  -42.1780 N.am  233  LEU233     -0.1980
     93  CA        -4.7260   -9.9240  -41.3750 C.3   233  LEU233      0.1596
     94  C         -4.5790  -10.2240  -39.8850 C.2   233  LEU233      0.2287
     95  O         -4.1410   -9.3740  -39.1100 O.2   233  LEU233     -0.2864
     96  CB        -6.1580   -9.4990  -41.7090 C.3   233  LEU233      0.0297
     97  CG        -6.7160   -8.2710  -40.9900 C.3   233  LEU233      0.0022
     98  CD1       -5.6950   -7.1480  -40.9640 C.3   233  LEU233      0.0001
     99  CD2       -8.0100   -7.8140  -41.6480 C.3   233  LEU233      0.0001
    100  N         -0.9910  -10.1200  -39.0060 N.3   236  GLU236     -0.1231
    101  CA        -0.5560   -8.7380  -39.1190 C.3   236  GLU236      0.1699
    102  C         -0.8760   -7.9690  -37.8410 C.2   236  GLU236      0.2592
    103  O         -0.1680   -7.0290  -37.4780 O.2   236  GLU236     -0.2718
    104  CB        -1.2480   -8.0930  -40.3200 C.3   236  GLU236      0.0402
    105  CG        -0.6070   -6.8210  -40.8310 C.3   236  GLU236      0.1161
    106  CD        -0.8610   -6.6130  -42.3110 C.2   236  GLU236      0.3649
    107  OE1       -0.7000   -7.5810  -43.0850 O.co2 236  GLU236     -0.2457
    108  OE2       -1.2260   -5.4870  -42.7030 O.co2 236  GLU236     -0.2457
    109  N         -1.9390   -8.3870  -37.1580 N.am  237  MET237     -0.1979
    110  CA        -2.4110   -7.6940  -35.9610 C.3   237  MET237      0.1605
    111  C         -1.7970   -8.2330  -34.6700 C.2   237  MET237      0.2287
    112  O         -1.8410   -7.5680  -33.6380 O.2   237  MET237     -0.2864
    113  CB        -3.9400   -7.7710  -35.8560 C.3   237  MET237      0.0413
    114  CG        -4.7150   -7.0410  -36.9500 C.3   237  MET237      0.0598
    115  SD        -4.5270   -5.2450  -36.9370 S.3   237  MET237     -0.1393
    116  CE        -4.6030   -4.9060  -35.1910 C.3   237  MET237      0.0692
    117  N          1.4890   -9.9280  -34.3990 N.3   239  GLU239     -0.1245
    118  CA         2.9550   -9.9630  -34.3710 C.3   239  GLU239      0.1567
    119  C          3.5380   -9.8660  -32.9630 C.2   239  GLU239      0.2260
    120  O          4.0440   -8.8130  -32.5690 O.2   239  GLU239     -0.2867
    121  CB         3.5440   -8.8410  -35.2300 C.3   239  GLU239      0.0388
    122  CG         3.2080   -8.9230  -36.7060 C.3   239  GLU239      0.1160
    123  CD         3.9180   -7.8480  -37.5070 C.2   239  GLU239      0.3649
    124  OE1        3.2360   -7.0670  -38.2030 O.co2 239  GLU239     -0.2457
    125  OE2        5.1660   -7.7870  -37.4420 O.co2 239  GLU239     -0.2457
@<TRIPOS>BOND
     1    90    89    1
     2    90    91    1
     3    89    86    1
     4    91    85    1
     5    24    23    1
     6     8     6    1
     7     7     5    1
     8    86    85    1
     9    86    87    1
    10    23    22    1
    11   107   106   ar
    12     6     5    1
    13   108   106   ar
    14    48    50    1
    15    48    47    1
    16   106   105    1
    17    87    92   am
    18    87    88    2
    19     5     2    1
    20    92    93    1
    21    22    21    1
    22    49    47    1
    23    96    93    1
    24    96    97    1
    25    99    97    1
    26    47    44    1
    27    93    94    1
    28    97    98    1
    29     2     3    1
    30     2     1    1
    31   105   104    1
    32    21    20    1
    33     4     3    2
    34    14    13    1
    35    20    17    1
    36   104   101    1
    37    67    65    1
    38    42    40    1
    39    40    41    1
    40    40    37    1
    41    44    43    1
    42    44    45    1
    43    39    38    2
    44    94    95    2
    45    13    15    1
    46    13    10    1
    47    59    57   am
    48    58    57    2
    49    19    18    2
    50    65    64    1
    51    45    46    2
    52    38    37    1
    53    37    36    1
    54   101   100    1
    55   101   102    1
    56    11    12    2
    57    11    10    1
    58    57    56    1
    59    17    18    1
    60    17    16    1
    61    10     9    1
    62   124   123   ar
    63   102   103    2
    64   102   109   am
    65    36    27   am
    66    64    66    1
    67    64    61    1
    68    56    55    1
    69    55    52    1
    70   123   125   ar
    71   123   122    1
    72    74    73    1
    73   109   110    1
    74   114   115    1
    75   114   113    1
    76   115   116    1
    77    34    32   ar
    78    34    35   ar
    79    28    27    2
    80    60    61    1
    81    60    53   am
    82    61    62    1
    83    27    26    1
    84    32    30   ar
    85   122   121    1
    86    52    53    1
    87    52    51    1
    88    53    54    2
    89   110   113    1
    90   110   111    1
    91    35    33   ar
    92    73    75    1
    93    73    72    1
    94    82    81    1
    95    82    83    1
    96    30    29    1
    97    30    31   ar
    98    26    29    1
    99    26    25    1
   100    62    63    2
   101    84    83    1
   102   121   118    1
   103    72    69    1
   104    81    80    1
   105   111   112    2
   106    33    31   ar
   107   117   118    1
   108   118   119    1
   109    69    68    1
   110    69    70    1
   111    80    77    1
   112    76    70   am
   113    76    77    1
   114    70    71    2
   115    77    78    1
   116   119   120    2
   117    78    79    2
