@<TRIPOS>MOLECULE
tmp/4jyiA01.pdb
 238 224 0 0 0
SMALL
GASTEIGER

@<TRIPOS>ATOM
      1  N         -5.2630    2.0640    3.6850 N.3    23  PHE23      -0.1241
      2  CA        -6.1280    1.7790    2.5460 C.3    23  PHE23       0.1605
      3  C         -6.9050    0.4740    2.7270 C.2    23  PHE23       0.2264
      4  O         -6.3900   -0.6050    2.4400 O.2    23  PHE23      -0.2867
      5  CB        -5.3110    1.7330    1.2520 C.3    23  PHE23       0.0534
      6  CG        -6.1480    1.8180    0.0110 C.ar   23  PHE23      -0.0203
      7  CD1       -6.3730    0.6970   -0.7690 C.ar   23  PHE23      -0.0042
      8  CD2       -6.7270    3.0200   -0.3640 C.ar   23  PHE23      -0.0042
      9  CE1       -7.1520    0.7750   -1.9090 C.ar   23  PHE23      -0.0003
     10  CE2       -7.5070    3.1040   -1.5020 C.ar   23  PHE23      -0.0003
     11  CZ        -7.7180    1.9790   -2.2760 C.ar   23  PHE23      -0.0000
     12  N        -18.6930   15.7740   -7.9120 N.3    49  TRP49      -0.1241
     13  CA       -17.3600   16.3570   -7.7920 C.3    49  TRP49       0.1605
     14  C        -17.0150   16.6720   -6.3410 C.2    49  TRP49       0.2264
     15  O        -15.9130   16.3780   -5.8760 O.2    49  TRP49      -0.2867
     16  CB       -17.2220   17.6380   -8.6110 C.3    49  TRP49       0.0550
     17  CG       -16.0980   18.4710   -8.0890 C.ar   49  TRP49       0.0003
     18  CD1      -16.1940   19.5900   -7.3100 C.ar   49  TRP49       0.0946
     19  CD2      -14.6970   18.2150   -8.2550 C.ar   49  TRP49       0.0152
     20  NE1      -14.9380   20.0600   -7.0020 N.ar   49  TRP49      -0.2442
     21  CE2      -14.0030   19.2320   -7.5680 C.ar   49  TRP49       0.0810
     22  CE3      -13.9640   17.2300   -8.9260 C.ar   49  TRP49       0.0012
     23  CZ2      -12.6080   19.2930   -7.5350 C.ar   49  TRP49       0.0191
     24  CZ3      -12.5790   17.2930   -8.8930 C.ar   49  TRP49       0.0001
     25  CH2      -11.9170   18.3180   -8.2050 C.ar   49  TRP49       0.0015
     26  N        -16.4300   13.4400   -4.5380 N.3    52  PHE52      -0.1227
     27  CA       -15.2350   12.8480   -5.1300 C.3    52  PHE52       0.1736
     28  C        -13.9630   13.5340   -4.6240 C.2    52  PHE52       0.2596
     29  O        -13.0210   12.8720   -4.1840 O.2    52  PHE52      -0.2718
     30  CB       -15.3290   12.9210   -6.6570 C.3    52  PHE52       0.0547
     31  CG       -14.0890   12.4630   -7.3740 C.ar   52  PHE52      -0.0202
     32  CD1      -13.7910   11.1150   -7.4840 C.ar   52  PHE52      -0.0042
     33  CD2      -13.2380   13.3830   -7.9660 C.ar   52  PHE52      -0.0042
     34  CE1      -12.6580   10.6930   -8.1580 C.ar   52  PHE52      -0.0003
     35  CE2      -12.1010   12.9670   -8.6400 C.ar   52  PHE52      -0.0003
     36  CZ       -11.8110   11.6210   -8.7350 C.ar   52  PHE52      -0.0000
     37  N        -13.9460   14.8620   -4.6750 N.am   53  SER53      -0.1952
     38  CA       -12.7660   15.6230   -4.2730 C.3    53  SER53       0.1924
     39  C        -12.5370   15.6110   -2.7600 C.2    53  SER53       0.2314
     40  O        -11.4050   15.7670   -2.2980 O.2    53  SER53      -0.2863
     41  CB       -12.8310   17.0590   -4.8030 C.3    53  SER53       0.2116
     42  OG       -13.9880   17.7300   -4.3440 O.3    53  SER53      -0.2180
     43  N        -13.2040   12.8990   -0.9020 N.3    55  LEU55      -0.1231
     44  CA       -12.6200   11.5810   -0.7080 C.3    55  LEU55       0.1693
     45  C        -11.1770   11.5420   -1.2210 C.2    55  LEU55       0.2591
     46  O        -10.3220   10.8680   -0.6470 O.2    55  LEU55      -0.2718
     47  CB       -13.4740   10.5130   -1.3950 C.3    55  LEU55       0.0284
     48  CG       -14.8530   10.2810   -0.7710 C.3    55  LEU55       0.0019
     49  CD1      -15.7820    9.5520   -1.7360 C.3    55  LEU55       0.0001
     50  CD2      -14.7260    9.5280    0.5450 C.3    55  LEU55       0.0001
     51  N        -10.9120   12.2670   -2.3040 N.am   56  ALA56      -0.1980
     52  CA        -9.5520   12.3760   -2.8280 C.3    56  ALA56       0.1597
     53  C         -8.6410   13.0280   -1.7950 C.2    56  ALA56       0.2287
     54  O         -7.5190   12.5700   -1.5640 O.2    56  ALA56      -0.2864
     55  CB        -9.5390   13.1710   -4.1290 C.3    56  ALA56       0.0319
     56  N         -7.8700   10.6500    0.9020 N.3    59  CYS59      -0.1221
     57  CA        -6.9460    9.6180    0.4480 C.3    59  CYS59       0.1808
     58  C         -5.5240   10.1590    0.3470 C.2    59  CYS59       0.2601
     59  O         -4.5650    9.4490    0.6420 O.2    59  CYS59      -0.2717
     60  CB        -7.3780    9.0380   -0.8960 C.3    59  CYS59       0.0970
     61  SG        -6.4510    7.5650   -1.3560 S.3    59  CYS59      -0.0800
     62  N         -5.3930   11.4110   -0.0780 N.am   60  ILE60      -0.1979
     63  CA        -4.0800   12.0480   -0.1420 C.3    60  ILE60       0.1595
     64  C         -3.4670   12.1180    1.2540 C.2    60  ILE60       0.2287
     65  O         -2.2840   11.8440    1.4380 O.2    60  ILE60      -0.2864
     66  CB        -4.1580   13.4560   -0.7590 C.3    60  ILE60       0.0276
     67  CG1       -4.6050   13.3580   -2.2210 C.3    60  ILE60       0.0022
     68  CG2       -2.8060   14.1630   -0.6550 C.3    60  ILE60       0.0022
     69  CD1       -4.8850   14.6910   -2.8720 C.3    60  ILE60       0.0001
     70  N          1.6420   11.5250   -6.3510 N.3    89  CYS89      -0.1221
     71  CA         0.2900   11.6220   -5.8110 C.3    89  CYS89       0.1808
     72  C         -0.7340   10.9520   -6.7280 C.2    89  CYS89       0.2601
     73  O         -1.4830   10.0730   -6.3070 O.2    89  CYS89      -0.2717
     74  CB        -0.0940   13.0840   -5.5670 C.3    89  CYS89       0.0970
     75  SG        -1.6790   13.2770   -4.6900 S.3    89  CYS89      -0.0800
     76  N         -0.7510   11.3600   -7.9910 N.am   90  LEU90      -0.1979
     77  CA        -1.7100   10.8310   -8.9570 C.3    90  LEU90       0.1596
     78  C         -1.4490    9.3550   -9.2680 C.2    90  LEU90       0.2287
     79  O         -2.3860    8.5710   -9.4320 O.2    90  LEU90      -0.2864
     80  CB        -1.6800   11.6640  -10.2410 C.3    90  LEU90       0.0297
     81  CG        -2.9290   11.6240  -11.1220 C.3    90  LEU90       0.0022
     82  CD1       -4.1920   11.7860  -10.2820 C.3    90  LEU90       0.0001
     83  CD2       -2.8520   12.6960  -12.1990 C.3    90  LEU90       0.0001
     84  N         -2.9730    7.4790   -6.3550 N.3    93  LEU93      -0.1231
     85  CA        -4.4270    7.6240   -6.3700 C.3    93  LEU93       0.1693
     86  C         -5.0430    6.7200   -7.4340 C.2    93  LEU93       0.2591
     87  O         -6.0490    6.0500   -7.1920 O.2    93  LEU93      -0.2718
     88  CB        -4.8300    9.0780   -6.6240 C.3    93  LEU93       0.0284
     89  CG        -4.7160   10.0690   -5.4650 C.3    93  LEU93       0.0019
     90  CD1       -4.9580   11.4900   -5.9560 C.3    93  LEU93       0.0001
     91  CD2       -5.6910    9.7090   -4.3470 C.3    93  LEU93       0.0001
     92  N         -4.4300    6.7040   -8.6150 N.am   94  ILE94      -0.1980
     93  CA        -4.9030    5.8710   -9.7170 C.3    94  ILE94       0.1595
     94  C         -4.7890    4.3870   -9.3780 C.2    94  ILE94       0.2287
     95  O         -5.7350    3.6240   -9.5730 O.2    94  ILE94      -0.2864
     96  CB        -4.1260    6.1650  -11.0180 C.3    94  ILE94       0.0276
     97  CG1       -4.4170    7.5880  -11.5010 C.3    94  ILE94       0.0022
     98  CG2       -4.4820    5.1540  -12.0950 C.3    94  ILE94       0.0022
     99  CD1       -3.4390    8.0890  -12.5520 C.3    94  ILE94       0.0001
    100  N         -4.6190    2.9970   -6.4200 N.3    96  ARG96      -0.1231
    101  CA        -5.5110    2.6780   -5.3130 C.3    96  ARG96       0.1694
    102  C         -6.9460    2.4660   -5.7830 C.2    96  ARG96       0.2591
    103  O         -7.5400    1.4200   -5.5190 O.2    96  ARG96      -0.2718
    104  CB        -5.4460    3.7610   -4.2320 C.3    96  ARG96       0.0321
    105  CG        -4.1490    3.7370   -3.4330 C.3    96  ARG96       0.0489
    106  CD        -4.2180    4.6110   -2.1920 C.3    96  ARG96       0.2205
    107  NE        -3.1500    4.2730   -1.2550 N.pl3  96  ARG96      -0.0865
    108  CZ        -3.1560    4.5830    0.0380 C.cat  96  ARG96       0.5346
    109  NH1       -4.1760    5.2530    0.5570 N.pl3  96  ARG96       0.1354
    110  NH2       -2.1400    4.2210    0.8110 N.pl3  96  ARG96       0.1354
    111  N         -7.5010    3.4460   -6.4880 N.am   97  ILE97      -0.1980
    112  CA        -8.8850    3.3350   -6.9440 C.3    97  ILE97       0.1595
    113  C         -9.0750    2.1590   -7.9070 C.2    97  ILE97       0.2287
    114  O        -10.1410    1.5430   -7.9380 O.2    97  ILE97      -0.2864
    115  CB        -9.4130    4.6530   -7.5710 C.3    97  ILE97       0.0276
    116  CG1      -10.9440    4.6310   -7.6480 C.3    97  ILE97       0.0022
    117  CG2       -8.7990    4.8940   -8.9480 C.3    97  ILE97       0.0022
    118  CD1      -11.6190    4.3890   -6.3090 C.3    97  ILE97       0.0001
    119  N         -9.8980   -1.1530   -6.4780 N.3   100  ARG100     -0.1245
    120  CA       -11.2270   -1.1750   -5.8790 C.3   100  ARG100      0.1563
    121  C        -12.2900   -1.3600   -6.9560 C.2   100  ARG100      0.2260
    122  O        -13.4180   -0.8870   -6.8170 O.2   100  ARG100     -0.2867
    123  CB       -11.4940    0.1320   -5.1320 C.3   100  ARG100      0.0307
    124  CG       -10.6230    0.3500   -3.9070 C.3   100  ARG100      0.0489
    125  CD       -11.2930   -0.1840   -2.6530 C.3   100  ARG100      0.2205
    126  NE       -10.5620    0.2080   -1.4530 N.pl3 100  ARG100     -0.0865
    127  CZ       -10.6120    1.4220   -0.9160 C.cat 100  ARG100      0.5346
    128  NH1      -11.3620    2.3650   -1.4720 N.pl3 100  ARG100      0.1354
    129  NH2       -9.9130    1.6950    0.1780 N.pl3 100  ARG100      0.1354
    130  N        -14.8960    3.7400   -3.1230 N.3   110  PHE110     -0.1227
    131  CA       -14.0330    4.6250   -2.3500 C.3   110  PHE110      0.1736
    132  C        -13.8630    4.1400   -0.9090 C.2   110  PHE110      0.2596
    133  O        -14.5230    3.1910   -0.4850 O.2   110  PHE110     -0.2718
    134  CB       -14.5670    6.0570   -2.4020 C.3   110  PHE110      0.0547
    135  CG       -14.6430    6.6170   -3.7970 C.ar  110  PHE110     -0.0202
    136  CD1      -15.7980    6.4840   -4.5510 C.ar  110  PHE110     -0.0042
    137  CD2      -13.5530    7.2590   -4.3620 C.ar  110  PHE110     -0.0042
    138  CE1      -15.8660    6.9910   -5.8370 C.ar  110  PHE110     -0.0003
    139  CE2      -13.6180    7.7690   -5.6450 C.ar  110  PHE110     -0.0003
    140  CZ       -14.7750    7.6330   -6.3840 C.ar  110  PHE110     -0.0000
    141  N        -12.9710    4.7860   -0.1630 N.am  111  SER111     -0.1952
    142  CA       -12.6110    4.3120    1.1730 C.3   111  SER111      0.1924
    143  C        -13.7410    4.4090    2.1990 C.2   111  SER111      0.2314
    144  O        -13.6430    3.8400    3.2860 O.2   111  SER111     -0.2863
    145  CB       -11.3570    5.0240    1.6880 C.3   111  SER111      0.2116
    146  OG       -10.2070    4.5950    0.9760 O.3   111  SER111     -0.2180
    147  N        -15.5400   13.4990  -12.3870 N.3   125  GLY125     -0.1210
    148  CA       -14.3190   14.1910  -12.7620 C.3   125  GLY125      0.1956
    149  C        -13.4200   13.4830  -13.7620 C.2   125  GLY125      0.2611
    150  O        -12.6450   14.1370  -14.4600 O.2   125  GLY125     -0.2717
    151  N        -13.5100   12.1570  -13.8350 N.am  126  PHE126     -0.1976
    152  CA       -12.6830   11.3900  -14.7680 C.3   126  PHE126      0.1639
    153  C        -12.8070   11.9050  -16.2060 C.2   126  PHE126      0.2290
    154  O        -11.8220   11.9580  -16.9430 O.2   126  PHE126     -0.2864
    155  CB       -13.0330    9.8980  -14.7210 C.3   126  PHE126      0.0560
    156  CG       -12.3500    9.1400  -13.6130 C.ar  126  PHE126     -0.0200
    157  CD1      -11.7750    9.8030  -12.5420 C.ar  126  PHE126     -0.0042
    158  CD2      -12.2750    7.7560  -13.6540 C.ar  126  PHE126     -0.0042
    159  CE1      -11.1440    9.0980  -11.5280 C.ar  126  PHE126     -0.0003
    160  CE2      -11.6450    7.0450  -12.6440 C.ar  126  PHE126     -0.0003
    161  CZ       -11.0790    7.7170  -11.5800 C.ar  126  PHE126     -0.0000
    162  N        -10.9080   10.7180  -19.6110 N.3   129  LEU129     -0.1245
    163  CA        -9.9740    9.6600  -19.2280 C.3   129  LEU129      0.1561
    164  C        -10.6640    8.4450  -18.6070 C.2   129  LEU129      0.2260
    165  O        -10.0070    7.4740  -18.2350 O.2   129  LEU129     -0.2867
    166  CB        -8.9160   10.2020  -18.2610 C.3   129  LEU129      0.0270
    167  CG        -7.9960   11.2920  -18.8120 C.3   129  LEU129      0.0019
    168  CD1       -6.8260   11.5330  -17.8680 C.3   129  LEU129      0.0001
    169  CD2       -7.4950   10.9080  -20.1950 C.3   129  LEU129      0.0001
    170  N         -8.8370    4.7240  -17.6440 N.3   133  VAL133     -0.1245
    171  CA        -8.6320    4.2790  -16.2710 C.3   133  VAL133      0.1561
    172  C         -9.3000    2.9280  -16.0160 C.2   133  VAL133      0.2260
    173  O         -8.7220    2.0550  -15.3700 O.2   133  VAL133     -0.2867
    174  CB        -9.1450    5.3210  -15.2580 C.3   133  VAL133      0.0252
    175  CG1       -9.0500    4.7780  -13.8410 C.3   133  VAL133      0.0019
    176  CG2       -8.3580    6.6180  -15.3950 C.3   133  VAL133      0.0019
    177  N         -1.0090    7.2340  -17.5990 N.3   211  ILE211     -0.1245
    178  CA        -2.2920    7.7350  -17.1270 C.3   211  ILE211      0.1561
    179  C         -2.1200    8.9870  -16.2650 C.2   211  ILE211      0.2260
    180  O         -2.8820    9.9440  -16.3940 O.2   211  ILE211     -0.2867
    181  CB        -3.0670    6.6510  -16.3500 C.3   211  ILE211      0.0252
    182  CG1       -3.2410    5.4050  -17.2230 C.3   211  ILE211      0.0019
    183  CG2       -4.4190    7.1800  -15.8880 C.3   211  ILE211      0.0019
    184  CD1       -3.9840    4.2780  -16.5440 C.3   211  ILE211      0.0001
    185  N         -3.5100   12.5180  -16.6960 N.3   215  GLY215     -0.1225
    186  CA        -4.3230   12.9540  -15.5740 C.3   215  GLY215      0.1811
    187  C         -3.9850   14.3520  -15.0980 C.2   215  GLY215      0.2280
    188  O         -4.8720   15.1170  -14.7170 O.2   215  GLY215     -0.2866
    189  N         -5.7810   16.5660  -17.2420 N.3   218  ARG218     -0.1231
    190  CA        -7.2050   16.5030  -16.9250 C.3   218  ARG218      0.1694
    191  C         -7.5400   17.3890  -15.7280 C.2   218  ARG218      0.2591
    192  O         -8.5740   18.0570  -15.7080 O.2   218  ARG218     -0.2718
    193  CB        -7.6410   15.0600  -16.6530 C.3   218  ARG218      0.0321
    194  CG        -9.0870   14.9290  -16.1850 C.3   218  ARG218      0.0489
    195  CD       -10.0460   15.6040  -17.1580 C.3   218  ARG218      0.2205
    196  NE       -11.4290   15.5850  -16.6830 N.pl3 218  ARG218     -0.0865
    197  CZ       -12.3880   16.3760  -17.1540 C.cat 218  ARG218      0.5346
    198  NH1      -12.1140   17.2540  -18.1090 N.pl3 218  ARG218      0.1354
    199  NH2      -13.6200   16.2950  -16.6690 N.pl3 218  ARG218      0.1354
    200  N         -6.6670   17.3850  -14.7250 N.am  219  VAL219     -0.1980
    201  CA        -6.8700   18.2110  -13.5410 C.3   219  VAL219      0.1595
    202  C         -6.8500   19.6930  -13.9020 C.2   219  VAL219      0.2287
    203  O         -7.6010   20.4890  -13.3390 O.2   219  VAL219     -0.2864
    204  CB        -5.8100   17.9220  -12.4580 C.3   219  VAL219      0.0276
    205  CG1       -5.8960   18.9500  -11.3420 C.3   219  VAL219      0.0022
    206  CG2       -5.9850   16.5140  -11.9120 C.3   219  VAL219      0.0022
    207  N        -10.0750   20.4510  -15.4350 N.3   222  LEU222     -0.1245
    208  CA       -11.0810   20.4910  -14.3750 C.3   222  LEU222      0.1561
    209  C        -11.0680   21.8290  -13.6440 C.2   222  LEU222      0.2260
    210  O        -12.1200   22.3690  -13.3030 O.2   222  LEU222     -0.2867
    211  CB       -10.8680   19.3490  -13.3760 C.3   222  LEU222      0.0270
    212  CG       -11.4410   17.9760  -13.7330 C.3   222  LEU222      0.0019
    213  CD1      -10.9250   16.9130  -12.7700 C.3   222  LEU222      0.0001
    214  CD2      -12.9660   18.0120  -13.7360 C.3   222  LEU222      0.0001
    215  N        -10.5800   23.9450   -6.2390 N.3   230  MET230     -0.1245
    216  CA       -10.4350   22.5930   -5.7210 C.3   230  MET230      0.1570
    217  C        -10.0170   22.6710   -4.2590 C.2   230  MET230      0.2261
    218  O         -9.5240   23.7060   -3.8110 O.2   230  MET230     -0.2867
    219  CB        -9.3850   21.8200   -6.5250 C.3   230  MET230      0.0387
    220  CG        -9.7860   21.5550   -7.9670 C.3   230  MET230      0.0595
    221  SD        -8.5820   20.5420   -8.8420 S.3   230  MET230     -0.1393
    222  CE        -9.4450   20.2490  -10.3810 C.3   230  MET230      0.0692
    223  N         -5.4530   19.5410   -2.6610 N.3   234  ILE234     -0.1245
    224  CA        -5.3720   19.1820   -4.0710 C.3   234  ILE234      0.1561
    225  C         -4.6780   20.2810   -4.8720 C.2   234  ILE234      0.2260
    226  O         -3.8380   19.9960   -5.7280 O.2   234  ILE234     -0.2867
    227  CB        -6.7690   18.8680   -4.6600 C.3   234  ILE234      0.0252
    228  CG1       -7.3560   17.6290   -3.9760 C.3   234  ILE234      0.0019
    229  CG2       -6.6830   18.6570   -6.1620 C.3   234  ILE234      0.0019
    230  CD1       -8.7880   17.3110   -4.3690 C.3   234  ILE234      0.0001
    231  N         -1.0930   19.5150   -6.9830 N.3   238  MET238     -0.1245
    232  CA        -1.0220   19.6290   -8.4380 C.3   238  MET238      0.1570
    233  C         -0.1640   20.7990   -8.9330 C.2   238  MET238      0.2261
    234  O         -0.0260   21.0130  -10.1390 O.2   238  MET238     -0.2867
    235  CB        -2.4340   19.6850   -9.0180 C.3   238  MET238      0.0387
    236  CG        -3.2780   18.4660   -8.6600 C.3   238  MET238      0.0595
    237  SD        -2.9150   16.9970   -9.6490 S.3   238  MET238     -0.1393
    238  CE        -1.5810   16.2230   -8.7380 C.3   238  MET238      0.0692
@<TRIPOS>BOND
     1   169   167    1
     2   162   163    1
     3   163   164    1
     4   163   166    1
     5   167   166    1
     6   167   168    1
     7   164   165    2
     8   198   197    1
     9   170   171    1
    10   177   178    1
    11   189   190    1
    12   182   184    1
    13   182   181    1
    14   195   196    1
    15   195   194    1
    16   197   196    2
    17   197   199    1
    18   178   181    1
    19   178   179    1
    20   154   153    2
    21   190   193    1
    22   190   191    1
    23   185   186    1
    24   193   194    1
    25   180   179    2
    26   181   183    1
    27   171   172    1
    28   171   174    1
    29   153   152    1
    30   172   173    2
    31   191   192    2
    32   191   200   am
    33   186   187    1
    34   207   208    1
    35   176   174    1
    36   174   175    1
    37   187   188    2
    38   152   155    1
    39   152   151    1
    40   200   201    1
    41   155   156    1
    42   150   149    2
    43   208   209    1
    44   208   211    1
    45   202   201    1
    46   202   203    2
    47   151   149   am
    48   149   148    1
    49   214   212    1
    50   212   211    1
    51   212   213    1
    52   158   156   ar
    53   158   160   ar
    54   209   210    2
    55   156   157   ar
    56   201   204    1
    57   148   147    1
    58   160   161   ar
    59    99    97    1
    60   157   159   ar
    61   204   206    1
    62   204   205    1
    63    83    81    1
    64    98    96    1
    65   161   159   ar
    66    97    96    1
    67    81    82    1
    68    81    80    1
    69    96    93    1
    70   222   221    1
    71    80    77    1
    72   234   233    2
    73    93    94    1
    74    93    92    1
    75   237   238    1
    76   237   236    1
    77    95    94    2
    78    79    78    2
    79    78    77    1
    80   235   236    1
    81   235   232    1
    82    77    76    1
    83   117   115    1
    84   233   232    1
    85    22    24   ar
    86    22    19   ar
    87    24    25   ar
    88   221   220    1
    89    36    35   ar
    90    36    34   ar
    91    35    33   ar
    92    92    86   am
    93    16    17    1
    94    16    13    1
    95   232   231    1
    96    19    17   ar
    97    19    21   ar
    98    25    23   ar
    99    34    32   ar
   100    17    18   ar
   101    76    72   am
   102   220   219    1
   103    33    31   ar
   104   114   113    2
   105    12    13    1
   106   113   112    1
   107    13    14    1
   108   116   115    1
   109   116   118    1
   110   115   112    1
   111    21    23   ar
   112    21    20   ar
   113    32    31   ar
   114    86    87    2
   115    86    85    1
   116    31    30    1
   117    18    20   ar
   118   121   122    2
   119   121   120    1
   120   112   111    1
   121    72    73    2
   122    72    71    1
   123    30    27    1
   124    88    85    1
   125    88    89    1
   126   219   216    1
   127   111   102   am
   128   119   120    1
   129   100   101    1
   130   140   138   ar
   131   140   139   ar
   132    85    84    1
   133    70    71    1
   134    14    15    2
   135   215   216    1
   136   229   227    1
   137    90    89    1
   138   120   123    1
   139   138   136   ar
   140    71    74    1
   141   102   103    2
   142   102   101    1
   143   226   225    2
   144   216   217    1
   145   139   137   ar
   146    74    75    1
   147    89    91    1
   148   101   104    1
   149   123   124    1
   150    27    28    1
   151    27    26    1
   152   225   224    1
   153    41    42    1
   154    41    38    1
   155    37    28   am
   156    37    38    1
   157   227   224    1
   158   227   228    1
   159    28    29    2
   160   136   135   ar
   161   230   228    1
   162   137   135   ar
   163    38    39    1
   164   217   218    2
   165   104   105    1
   166    55    52    1
   167   224   223    1
   168   124   125    1
   169   135   134    1
   170   105   106    1
   171   130   131    1
   172    69    67    1
   173    52    51    1
   174    52    53    1
   175    39    40    2
   176   125   126    1
   177   134   131    1
   178   131   132    1
   179    51    45   am
   180    11     9   ar
   181    11    10   ar
   182    67    66    1
   183   106   107    1
   184     9     7   ar
   185    53    54    2
   186    49    48    1
   187    10     8   ar
   188   128   127    1
   189   126   127    2
   190    47    48    1
   191    47    44    1
   192    61    60    1
   193   107   108    2
   194    45    44    1
   195    45    46    2
   196   127   129    1
   197   132   133    2
   198   132   141   am
   199    43    44    1
   200    60    57    1
   201    48    50    1
   202     7     6   ar
   203    66    68    1
   204    66    63    1
   205     8     6   ar
   206   141   142    1
   207    63    62    1
   208    63    64    1
   209    62    58   am
   210     6     5    1
   211   108   109    1
   212   108   110    1
   213    58    57    1
   214    58    59    2
   215    57    56    1
   216   146   145    1
   217   142   145    1
   218   142   143    1
   219     5     2    1
   220    64    65    2
   221   143   144    2
   222     4     3    2
   223     2     3    1
   224     2     1    1
