@<TRIPOS>MOLECULE
tmp/4jymA00.pdb
 125 120 0 0 0
SMALL
GASTEIGER

@<TRIPOS>ATOM
      1  N         82.6490  -55.8650  -19.5260 N.3    25  PHE25      -0.1241
      2  CA        83.9570  -55.4020  -19.0530 C.3    25  PHE25       0.1605
      3  C         83.9520  -53.9430  -18.6320 C.2    25  PHE25       0.2264
      4  O         83.4030  -53.0830  -19.3240 O.2    25  PHE25      -0.2867
      5  CB        85.0000  -55.6090  -20.1530 C.3    25  PHE25       0.0534
      6  CG        86.3770  -55.0920  -19.8180 C.ar   25  PHE25      -0.0203
      7  CD1       87.2480  -55.8530  -19.0470 C.ar   25  PHE25      -0.0042
      8  CD2       86.8120  -53.8670  -20.3120 C.ar   25  PHE25      -0.0042
      9  CE1       88.5250  -55.3850  -18.7500 C.ar   25  PHE25      -0.0003
     10  CE2       88.0830  -53.3910  -20.0220 C.ar   25  PHE25      -0.0003
     11  CZ        88.9410  -54.1530  -19.2440 C.ar   25  PHE25      -0.0000
     12  N         77.4610  -57.2990  -23.3820 N.3    94  SER94      -0.1217
     13  CA        78.8220  -57.5090  -23.8800 C.3    94  SER94       0.1889
     14  C         79.2970  -58.9500  -23.5580 C.2    94  SER94       0.2288
     15  O         78.6240  -59.9090  -23.9360 O.2    94  SER94      -0.2866
     16  CB        79.7560  -56.4290  -23.3230 C.3    94  SER94       0.2089
     17  OG        80.9010  -56.2670  -24.1500 O.3    94  SER94      -0.2183
     18  N         86.2170  -60.8010  -31.7320 N.3   123  TYR123     -0.1241
     19  CA        86.5710  -59.4120  -32.0530 C.3   123  TYR123      0.1605
     20  C         87.6360  -59.3040  -33.1380 C.2   123  TYR123      0.2264
     21  O         87.6790  -58.3020  -33.8480 O.2   123  TYR123     -0.2867
     22  CB        87.0440  -58.6700  -30.7990 C.3   123  TYR123      0.0534
     23  CG        86.0080  -58.6990  -29.7170 C.ar  123  TYR123     -0.0201
     24  CD1       85.9800  -59.7330  -28.7960 C.ar  123  TYR123     -0.0009
     25  CD2       85.0320  -57.7190  -29.6420 C.ar  123  TYR123     -0.0009
     26  CE1       85.0140  -59.7960  -27.8170 C.ar  123  TYR123      0.0417
     27  CE2       84.0550  -57.7650  -28.6580 C.ar  123  TYR123      0.0417
     28  CZ        84.0560  -58.8080  -27.7500 C.ar  123  TYR123      0.1957
     29  OH        83.0940  -58.8710  -26.7630 O.3   123  TYR123     -0.2866
     30  N         88.5230  -55.7580  -35.2630 N.3   133  PHE133     -0.1241
     31  CA        89.8740  -55.4710  -34.7790 C.3   133  PHE133      0.1605
     32  C         90.9140  -56.3530  -35.4420 C.2   133  PHE133      0.2264
     33  O         90.6980  -57.5440  -35.6330 O.2   133  PHE133     -0.2867
     34  CB        89.9500  -55.6580  -33.2580 C.3   133  PHE133      0.0534
     35  CG        89.0510  -54.7350  -32.4810 C.ar  133  PHE133     -0.0203
     36  CD1       89.5310  -53.5320  -31.9850 C.ar  133  PHE133     -0.0042
     37  CD2       87.7280  -55.0760  -32.2380 C.ar  133  PHE133     -0.0042
     38  CE1       88.7040  -52.6770  -31.2760 C.ar  133  PHE133     -0.0003
     39  CE2       86.8890  -54.2230  -31.5310 C.ar  133  PHE133     -0.0003
     40  CZ        87.3780  -53.0260  -31.0470 C.ar  133  PHE133     -0.0000
     41  N         94.8930  -54.7810  -31.0950 N.3   138  LEU138     -0.1245
     42  CA        94.7480  -55.3270  -29.7520 C.3   138  LEU138      0.1561
     43  C         96.0670  -55.2830  -28.9870 C.2   138  LEU138      0.2260
     44  O         96.0940  -54.9140  -27.8130 O.2   138  LEU138     -0.2867
     45  CB        94.2110  -56.7570  -29.8040 C.3   138  LEU138      0.0270
     46  CG        92.7880  -56.9450  -30.3320 C.3   138  LEU138      0.0019
     47  CD1       92.3290  -58.3670  -30.0770 C.3   138  LEU138      0.0001
     48  CD2       91.8200  -55.9490  -29.7050 C.3   138  LEU138      0.0001
     49  N         96.6360  -51.8560  -27.6610 N.3   141  LEU141     -0.1245
     50  CA        95.7140  -51.5890  -26.5620 C.3   141  LEU141      0.1561
     51  C         96.2850  -52.1650  -25.2620 C.2   141  LEU141      0.2260
     52  O         96.3310  -51.4820  -24.2340 O.2   141  LEU141     -0.2867
     53  CB        94.3330  -52.1850  -26.8750 C.3   141  LEU141      0.0270
     54  CG        93.1310  -51.9350  -25.9550 C.3   141  LEU141      0.0019
     55  CD1       91.8340  -52.1350  -26.7240 C.3   141  LEU141      0.0001
     56  CD2       93.1490  -52.8520  -24.7490 C.3   141  LEU141      0.0001
     57  N         89.8960  -44.1950  -23.1760 N.3   156  PHE156     -0.1241
     58  CA        89.0640  -45.2950  -23.6500 C.3   156  PHE156      0.1605
     59  C         87.5920  -45.0910  -23.3260 C.2   156  PHE156      0.2264
     60  O         86.7220  -45.3730  -24.1510 O.2   156  PHE156     -0.2867
     61  CB        89.5390  -46.6070  -23.0340 C.3   156  PHE156      0.0534
     62  CG        88.7760  -47.8080  -23.5060 C.ar  156  PHE156     -0.0203
     63  CD1       88.9500  -48.2940  -24.7940 C.ar  156  PHE156     -0.0042
     64  CD2       87.8900  -48.4540  -22.6570 C.ar  156  PHE156     -0.0042
     65  CE1       88.2510  -49.4020  -25.2290 C.ar  156  PHE156     -0.0003
     66  CE2       87.1940  -49.5690  -23.0800 C.ar  156  PHE156     -0.0003
     67  CZ        87.3730  -50.0400  -24.3690 C.ar  156  PHE156     -0.0000
     68  N         84.3780  -45.9030  -25.8000 N.3   160  ALA160     -0.1245
     69  CA        83.4990  -47.0250  -25.5100 C.3   160  ALA160      0.1562
     70  C         82.0570  -46.5610  -25.2920 C.2   160  ALA160      0.2260
     71  O         81.1190  -47.1650  -25.8250 O.2   160  ALA160     -0.2867
     72  CB        84.0050  -47.7850  -24.2970 C.3   160  ALA160      0.0290
     73  N         81.5800  -44.4660  -16.3780 N.3   173  PHE173     -0.1241
     74  CA        82.3070  -45.6150  -16.8950 C.3   173  PHE173      0.1605
     75  C         83.8200  -45.4760  -16.6550 C.2   173  PHE173      0.2264
     76  O         84.5110  -46.4680  -16.3990 O.2   173  PHE173     -0.2867
     77  CB        81.9910  -45.8420  -18.3740 C.3   173  PHE173      0.0534
     78  CG        82.6180  -47.0860  -18.9410 C.ar  173  PHE173     -0.0203
     79  CD1       82.2250  -48.3480  -18.5020 C.ar  173  PHE173     -0.0042
     80  CD2       83.5910  -46.9940  -19.9220 C.ar  173  PHE173     -0.0042
     81  CE1       82.8060  -49.4980  -19.0290 C.ar  173  PHE173     -0.0003
     82  CE2       84.1740  -48.1390  -20.4610 C.ar  173  PHE173     -0.0003
     83  CZ        83.7750  -49.3940  -20.0090 C.ar  173  PHE173     -0.0000
     84  N         89.0350  -61.6670  -22.8850 N.3   192  ILE192     -0.1231
     85  CA        87.8340  -61.3380  -23.6450 C.3   192  ILE192      0.1692
     86  C         88.1420  -60.9950  -25.0930 C.2   192  ILE192      0.2592
     87  O         87.5420  -61.5610  -26.0170 O.2   192  ILE192     -0.2718
     88  CB        87.0710  -60.1610  -23.0140 C.3   192  ILE192      0.0266
     89  CG1       86.6140  -60.5150  -21.5980 C.3   192  ILE192      0.0019
     90  CG2       85.8740  -59.7680  -23.8800 C.3   192  ILE192      0.0020
     91  CD1       85.8860  -59.3950  -20.8930 C.3   192  ILE192      0.0001
     92  N         89.0930  -60.0970  -25.3180 N.am  193  PHE193     -0.1976
     93  CA        89.2250  -59.5300  -26.6570 C.3   193  PHE193      0.1639
     94  C         89.8280  -60.5550  -27.6150 C.2   193  PHE193      0.2290
     95  O         89.7620  -60.3980  -28.8330 O.2   193  PHE193     -0.2864
     96  CB        90.0150  -58.2020  -26.6390 C.3   193  PHE193      0.0560
     97  CG        89.4660  -57.1540  -25.6700 C.ar  193  PHE193     -0.0200
     98  CD1       88.2820  -57.3590  -24.9660 C.ar  193  PHE193     -0.0042
     99  CD2       90.1490  -55.9620  -25.4720 C.ar  193  PHE193     -0.0042
    100  CE1       87.7940  -56.4050  -24.0760 C.ar  193  PHE193     -0.0003
    101  CE2       89.6660  -55.0000  -24.5870 C.ar  193  PHE193     -0.0003
    102  CZ        88.4890  -55.2260  -23.8880 C.ar  193  PHE193     -0.0000
    103  N         81.7720  -49.1620  -30.8240 N.3   217  LEU217     -0.1231
    104  CA        83.2240  -49.2550  -30.9840 C.3   217  LEU217      0.1693
    105  C         83.7320  -50.6880  -31.1550 C.2   217  LEU217      0.2591
    106  O         84.6620  -50.9380  -31.9220 O.2   217  LEU217     -0.2718
    107  CB        83.9010  -48.6140  -29.7670 C.3   217  LEU217      0.0284
    108  CG        85.4190  -48.6260  -29.6570 C.3   217  LEU217      0.0019
    109  CD1       86.0050  -47.7190  -30.7150 C.3   217  LEU217      0.0001
    110  CD2       85.8600  -48.1860  -28.2630 C.3   217  LEU217      0.0001
    111  N         83.1170  -51.6260  -30.4450 N.am  218  ALA218     -0.1980
    112  CA        83.6560  -52.9840  -30.3850 C.3   218  ALA218      0.1597
    113  C         82.8150  -54.0060  -31.1480 C.2   218  ALA218      0.2287
    114  O         83.1660  -55.1930  -31.1820 O.2   218  ALA218     -0.2864
    115  CB        83.7920  -53.4140  -28.9420 C.3   218  ALA218      0.0319
    116  N         78.6940  -48.5780  -26.6190 N.3   245  HIS245     -0.1241
    117  CA        78.8090  -49.9710  -26.2060 C.3   245  HIS245      0.1621
    118  C         78.0260  -50.2850  -24.9300 C.2   245  HIS245      0.2264
    119  O         77.7900  -51.4550  -24.6110 O.2   245  HIS245     -0.2867
    120  CB        80.2850  -50.3230  -26.0020 C.3   245  HIS245      0.0745
    121  CG        80.5260  -51.7880  -25.8390 C.ar  245  HIS245      0.0817
    122  ND1       80.2800  -52.6970  -26.8460 N.ar  245  HIS245     -0.2268
    123  CD2       80.9520  -52.5090  -24.7760 C.ar  245  HIS245      0.1154
    124  CE1       80.5620  -53.9140  -26.4150 C.ar  245  HIS245      0.1986
    125  NE2       80.9760  -53.8270  -25.1650 N.ar  245  HIS245     -0.2212
@<TRIPOS>BOND
     1    33    32    2
     2    32    31    1
     3    30    31    1
     4    31    34    1
     5    21    20    2
     6    34    35    1
     7    20    19    1
     8    35    37   ar
     9    35    36   ar
    10    37    39   ar
    11    19    18    1
    12    19    22    1
    13    36    38   ar
    14   106   105    2
    15    39    40   ar
    16    38    40   ar
    17   114   113    2
    18   105   104    1
    19   105   111   am
    20   113   112    1
    21    41    42    1
    22   104   103    1
    23   104   107    1
    24    22    23    1
    25   109   108    1
    26   111   112    1
    27   112   115    1
    28    46    47    1
    29    46    45    1
    30    46    48    1
    31    45    42    1
    32   107   108    1
    33    42    43    1
    34    23    25   ar
    35    23    24   ar
    36   108   110    1
    37    25    27   ar
    38    43    44    2
    39    95    94    2
    40    24    26   ar
    41    27    28   ar
    42    26    28   ar
    43    28    29    1
    44    49    50    1
    45    94    93    1
    46    53    50    1
    47    53    54    1
    48   122   124   ar
    49   122   121   ar
    50    55    54    1
    51    93    96    1
    52    93    92    1
    53    96    97    1
    54   116   117    1
    55    50    51    1
    56   124   125   ar
    57   117   120    1
    58   117   118    1
    59    87    86    2
    60   120   121    1
    61    54    56    1
    62   121   123   ar
    63    71    70    2
    64    68    69    1
    65    97    99   ar
    66    97    98   ar
    67    69    70    1
    68    69    72    1
    69    99   101   ar
    70    92    86   am
    71    51    52    2
    72    65    63   ar
    73    65    67   ar
    74   125   123   ar
    75    86    85    1
    76    98   100   ar
    77   118   119    2
    78    63    62   ar
    79   101   102   ar
    80    67    66   ar
    81    60    59    2
    82    17    16    1
    83   100   102   ar
    84    15    14    2
    85    13    14    1
    86    13    12    1
    87    13    16    1
    88    90    88    1
    89    58    59    1
    90    58    57    1
    91    58    61    1
    92    85    88    1
    93    85    84    1
    94    62    61    1
    95    62    64   ar
    96    66    64   ar
    97    88    89    1
    98    89    91    1
    99    82    83   ar
   100    82    80   ar
   101     8    10   ar
   102     8     6   ar
   103     5     6    1
   104     5     2    1
   105    10    11   ar
   106    83    81   ar
   107    80    78   ar
   108     6     7   ar
   109     1     2    1
   110     4     3    2
   111    11     9   ar
   112     2     3    1
   113     7     9   ar
   114    81    79   ar
   115    78    79   ar
   116    78    77    1
   117    77    74    1
   118    74    75    1
   119    74    73    1
   120    75    76    2
