@<TRIPOS>MOLECULE
tmp/4jytA00.pdb
 189 185 0 0 0
SMALL
GASTEIGER

@<TRIPOS>ATOM
      1  N         19.8310   66.2410   12.8970 N.3    26  ILE26      -0.1231
      2  CA        18.9860   66.2910   14.0970 C.3    26  ILE26       0.1692
      3  C         18.6250   64.8930   14.6440 C.2    26  ILE26       0.2592
      4  O         18.6310   64.6590   15.8600 O.2    26  ILE26      -0.2718
      5  CB        17.6690   67.0160   13.7680 C.3    26  ILE26       0.0266
      6  CG1       17.9350   68.4400   13.2710 C.3    26  ILE26       0.0019
      7  CG2       16.7340   67.0400   14.9820 C.3    26  ILE26       0.0020
      8  CD1       18.5540   69.3750   14.3450 C.3    26  ILE26       0.0001
      9  N         18.2210   63.9860   13.7570 N.am   27  CYS27      -0.1970
     10  CA        17.8950   62.6190   14.1630 C.3    27  CYS27       0.1712
     11  C         18.3930   61.5970   13.1540 C.2    27  CYS27       0.2296
     12  O         18.7780   61.9390   12.0280 O.2    27  CYS27      -0.2864
     13  CB        16.3910   62.4620   14.3340 C.3    27  CYS27       0.0983
     14  SG        15.7460   63.2080   15.8450 S.3    27  CYS27      -0.0798
     15  N          9.2100   61.8780   18.1970 N.3    42  HIS42      -0.1226
     16  CA         9.6400   63.1000   18.9390 C.3    42  HIS42       0.1752
     17  C         10.6200   63.9630   18.1980 C.2    42  HIS42       0.2596
     18  O         10.9130   65.0250   18.5870 O.2    42  HIS42      -0.2718
     19  CB        10.1630   62.8500   20.3600 C.3    42  HIS42       0.0759
     20  CG        11.6130   62.4940   20.4720 C.ar   42  HIS42       0.0818
     21  ND1       12.0490   61.1980   20.5930 N.ar   42  HIS42      -0.2268
     22  CD2       12.7180   63.2600   20.5960 C.ar   42  HIS42       0.1154
     23  CE1       13.3580   61.1850   20.7620 C.ar   42  HIS42       0.1986
     24  NE2       13.7920   62.4230   20.7390 N.ar   42  HIS42      -0.2212
     25  N         11.1440   63.4140   17.1320 N.am   43  CYS43      -0.1970
     26  CA        11.9670   64.2680   16.3620 C.3    43  CYS43       0.1712
     27  C         11.1160   65.2330   15.4500 C.2    43  CYS43       0.2296
     28  O         11.7240   66.1050   14.8600 O.2    43  CYS43      -0.2864
     29  CB        12.9180   63.4430   15.5100 C.3    43  CYS43       0.0983
     30  SG        14.1010   62.4360   16.3960 S.3    43  CYS43      -0.0798
     31  N          8.4490   67.2660   16.2740 N.3    45  ILE45      -0.1245
     32  CA         7.5140   68.1350   17.0170 C.3    45  ILE45       0.1561
     33  C          7.8620   69.6070   16.7810 C.2    45  ILE45       0.2260
     34  O          9.0040   70.0160   16.9760 O.2    45  ILE45      -0.2867
     35  CB         7.5560   67.8530   18.5300 C.3    45  ILE45       0.0252
     36  CG1        7.1260   66.4170   18.8240 C.3    45  ILE45       0.0019
     37  CG2        6.6620   68.8310   19.3030 C.3    45  ILE45       0.0019
     38  CD1        7.4170   65.9920   20.2340 C.3    45  ILE45       0.0001
     39  N          8.3900   73.5640   17.4760 N.3    47  ASP47      -0.1239
     40  CA         8.6760   74.3850   18.6460 C.3    47  ASP47       0.1674
     41  C          8.4420   75.8120   18.1420 C.2    47  ASP47       0.2266
     42  O          8.2050   76.0060   16.9460 O.2    47  ASP47      -0.2867
     43  CB        10.0660   74.1310   19.2560 C.3    47  ASP47       0.1410
     44  CG        11.2070   74.6140   18.4080 C.2    47  ASP47       0.3668
     45  OD1       11.0040   75.4840   17.5460 O.co2  47  ASP47      -0.2456
     46  OD2       12.3330   74.1250   18.6440 O.co2  47  ASP47      -0.2456
     47  N          9.1920   71.3480   12.8200 N.3    52  TYR52      -0.1241
     48  CA         9.7660   70.0180   12.5850 C.3    52  TYR52       0.1605
     49  C          8.7500   69.0060   12.0650 C.2    52  TYR52       0.2264
     50  O          9.1270   67.9460   11.5460 O.2    52  TYR52      -0.2867
     51  CB        10.4060   69.5070   13.8690 C.3    52  TYR52       0.0534
     52  CG        11.6110   70.3080   14.3080 C.ar   52  TYR52      -0.0201
     53  CD1       12.8590   70.1400   13.6940 C.ar   52  TYR52      -0.0009
     54  CD2       11.5060   71.2550   15.3420 C.ar   52  TYR52      -0.0009
     55  CE1       13.9660   70.8810   14.1000 C.ar   52  TYR52       0.0417
     56  CE2       12.6060   72.0040   15.7330 C.ar   52  TYR52       0.0417
     57  CZ        13.8240   71.8090   15.1180 C.ar   52  TYR52       0.1957
     58  OH        14.9300   72.5230   15.5140 O.3    52  TYR52      -0.2866
     59  N          6.4850   59.9310   26.0270 N.3    94  PHE94      -0.1241
     60  CA         7.1950   59.3530   24.8850 C.3    94  PHE94       0.1605
     61  C          6.7060   57.9350   24.5660 C.2    94  PHE94       0.2264
     62  O          7.3830   57.1600   23.9050 O.2    94  PHE94      -0.2867
     63  CB         8.7120   59.4040   25.0750 C.3    94  PHE94       0.0534
     64  CG         9.3560   60.6680   24.5270 C.ar   94  PHE94      -0.0203
     65  CD1        8.6590   61.8810   24.4690 C.ar   94  PHE94      -0.0042
     66  CD2       10.6870   60.6590   24.1560 C.ar   94  PHE94      -0.0042
     67  CE1        9.3120   63.0650   24.0550 C.ar   94  PHE94      -0.0003
     68  CE2       11.3340   61.8280   23.7520 C.ar   94  PHE94      -0.0003
     69  CZ        10.6540   63.0210   23.7070 C.ar   94  PHE94      -0.0000
     70  N         27.4820   63.0000   27.3490 N.3   141  TYR141     -0.1241
     71  CA        26.3030   63.7880   27.6820 C.3   141  TYR141      0.1605
     72  C         26.7430   65.2400   27.7500 C.2   141  TYR141      0.2264
     73  O         27.7550   65.5560   28.3770 O.2   141  TYR141     -0.2867
     74  CB        25.6960   63.3620   29.0290 C.3   141  TYR141      0.0534
     75  CG        24.5510   64.2610   29.4480 C.ar  141  TYR141     -0.0201
     76  CD1       23.3090   64.1900   28.8150 C.ar  141  TYR141     -0.0009
     77  CD2       24.7440   65.2490   30.4140 C.ar  141  TYR141     -0.0009
     78  CE1       22.2870   65.0840   29.1260 C.ar  141  TYR141      0.0417
     79  CE2       23.7300   66.1510   30.7280 C.ar  141  TYR141      0.0417
     80  CZ        22.5090   66.0660   30.0820 C.ar  141  TYR141      0.1957
     81  OH        21.5260   66.9840   30.3860 O.3   141  TYR141     -0.2866
     82  N         26.1310   53.9280   25.4920 N.3   185  ASP185     -0.1225
     83  CA        24.7130   54.3240   25.4520 C.3   185  ASP185      0.1805
     84  C         24.4970   55.2340   24.2450 C.2   185  ASP185      0.2598
     85  O         25.4480   55.7400   23.6450 O.2   185  ASP185     -0.2718
     86  CB        24.4190   55.1090   26.7560 C.3   185  ASP185      0.1424
     87  CG        22.9300   55.2380   27.1000 C.2   185  ASP185      0.3668
     88  OD1       22.0560   54.6680   26.4030 O.co2 185  ASP185     -0.2456
     89  OD2       22.6510   55.9120   28.1340 O.co2 185  ASP185     -0.2456
     90  N         23.2410   55.4040   23.8440 N.am  186  SER186     -0.1938
     91  CA        22.9320   56.3690   22.7990 C.3   186  SER186      0.2055
     92  C         22.8410   57.7380   23.4960 C.2   186  SER186      0.2643
     93  O         22.8650   57.8270   24.7350 O.2   186  SER186     -0.2714
     94  CB        21.6200   56.0170   22.0950 C.3   186  SER186      0.2130
     95  OG        20.6210   55.7400   23.0310 O.3   186  SER186     -0.2179
     96  N         22.7710   58.8050   22.7200 N.am  187  CYS187     -0.1953
     97  CA        22.7020   60.1480   23.2890 C.3   187  CYS187      0.1843
     98  C         22.0470   61.1080   22.3130 C.2   187  CYS187      0.2625
     99  O         21.6230   60.6980   21.2380 O.2   187  CYS187     -0.2714
    100  CB        24.1290   60.6030   23.6670 C.3   187  CYS187      0.0997
    101  SG        24.2680   61.8240   25.0290 S.3   187  CYS187     -0.0797
    102  N         21.9360   62.3780   22.6900 N.am  188  GLN188     -0.1963
    103  CA        21.2800   63.3740   21.8510 C.3   188  GLN188      0.1733
    104  C         21.7450   63.2960   20.4100 C.2   188  GLN188      0.2616
    105  O         22.9460   63.3250   20.1600 O.2   188  GLN188     -0.2715
    106  CB        21.5370   64.7820   22.4070 C.3   188  GLN188      0.0408
    107  CG        20.8440   65.8750   21.5750 C.3   188  GLN188      0.0908
    108  CD        21.1120   67.3000   22.0780 C.2   188  GLN188      0.2608
    109  OE1       21.3590   68.2200   21.2850 O.2   188  GLN188     -0.2717
    110  NE2       21.0530   67.4830   23.3830 N.am  188  GLN188     -0.0878
    111  N         20.8030   63.2340   19.4770 N.am  189  GLY189     -0.1955
    112  CA        21.1440   63.1560   18.0660 C.3   189  GLY189      0.1869
    113  C         21.1230   61.7400   17.5090 C.2   189  GLY189      0.2309
    114  O         21.1280   61.5510   16.2980 O.2   189  GLY189     -0.2863
    115  N         18.6340   59.7570   18.4250 N.3   191  SER191     -0.1217
    116  CA        17.1960   59.4820   18.3770 C.3   191  SER191      0.1889
    117  C         16.7020   59.1480   16.9950 C.2   191  SER191      0.2288
    118  O         17.1030   59.7770   16.0150 O.2   191  SER191     -0.2866
    119  CB        16.4050   60.6820   18.8580 C.3   191  SER191      0.2089
    120  OG        16.6030   60.9060   20.2400 O.3   191  SER191     -0.2183
    121  N         15.8930   54.3250   18.7130 N.3   210  VAL210     -0.1231
    122  CA        16.4630   55.1440   19.7960 C.3   210  VAL210      0.1692
    123  C         15.4000   56.1760   20.2090 C.2   210  VAL210      0.2593
    124  O         14.9070   56.9390   19.3690 O.2   210  VAL210     -0.2718
    125  CB        17.7380   55.8900   19.3240 C.3   210  VAL210      0.0266
    126  CG1       18.2670   56.7240   20.4450 C.3   210  VAL210      0.0020
    127  CG2       18.8030   54.8840   18.8280 C.3   210  VAL210      0.0020
    128  N         15.0790   56.2330   21.5050 N.am  211  SER211     -0.1938
    129  CA        14.0110   57.1260   21.9690 C.3   211  SER211      0.2055
    130  C         14.4290   58.1380   23.0150 C.2   211  SER211      0.2643
    131  O         14.3780   59.3370   22.7380 O.2   211  SER211     -0.2714
    132  CB        12.8180   56.2760   22.4710 C.3   211  SER211      0.2130
    133  OG        11.7120   57.0820   22.8830 O.3   211  SER211     -0.2179
    134  N         14.8160   57.7160   24.2180 N.am  212  TRP212     -0.1959
    135  CA        15.1970   58.6900   25.2390 C.3   212  TRP212      0.1771
    136  C         16.0380   58.0410   26.3260 C.2   212  TRP212      0.2620
    137  O         16.2260   56.8280   26.3440 O.2   212  TRP212     -0.2715
    138  CB        13.9390   59.3280   25.8800 C.3   212  TRP212      0.0590
    139  CG        13.0380   58.3540   26.6060 C.ar  212  TRP212      0.0006
    140  CD1       12.0510   57.5820   26.0570 C.ar  212  TRP212      0.0946
    141  CD2       13.0030   58.1150   28.0150 C.ar  212  TRP212      0.0152
    142  NE1       11.3980   56.8790   27.0470 N.ar  212  TRP212     -0.2442
    143  CE2       11.9640   57.1860   28.2580 C.ar  212  TRP212      0.0810
    144  CE3       13.7460   58.5990   29.1020 C.ar  212  TRP212      0.0012
    145  CZ2       11.6500   56.7290   29.5570 C.ar  212  TRP212      0.0191
    146  CZ3       13.4290   58.1460   30.3900 C.ar  212  TRP212      0.0001
    147  CH2       12.3920   57.2220   30.6010 C.ar  212  TRP212      0.0015
    148  N         16.5350   58.8700   27.2320 N.am  213  GLY213     -0.1940
    149  CA        17.2710   58.3530   28.3670 C.3   213  GLY213      0.2014
    150  C         17.4260   59.4560   29.3950 C.2   213  GLY213      0.2639
    151  O         17.2070   60.6240   29.0900 O.2   213  GLY213     -0.2714
    152  N         17.7890   59.0760   30.6140 N.am  214  ASP214     -0.1957
    153  CA        18.0580   60.0300   31.6960 C.3   214  ASP214      0.1840
    154  C         19.5840   60.2130   31.6020 C.2   214  ASP214      0.2623
    155  O         20.3550   59.3440   32.0330 O.2   214  ASP214     -0.2715
    156  CB        17.6340   59.3960   33.0240 C.3   214  ASP214      0.1450
    157  CG        17.8400   60.3090   34.2100 C.2   214  ASP214      0.3671
    158  OD1       18.3190   61.4410   34.0190 O.co2 214  ASP214     -0.2456
    159  OD2       17.5100   59.8780   35.3430 O.co2 214  ASP214     -0.2456
    160  N         20.0200   61.3270   31.0210 N.am  215  GLY215     -0.1940
    161  CA        21.4500   61.5150   30.8170 C.3   215  GLY215      0.2014
    162  C         21.9300   60.5020   29.7710 C.2   215  GLY215      0.2639
    163  O         21.1270   59.9440   29.0180 O.2   215  GLY215     -0.2714
    164  N         23.2320   60.2430   29.7290 N.am  216  CYS216     -0.1967
    165  CA        23.7670   59.2770   28.7810 C.3   216  CYS216      0.1712
    166  C         24.9050   58.5210   29.4350 C.2   216  CYS216      0.2296
    167  O         25.8100   59.1350   30.0120 O.2   216  CYS216     -0.2864
    168  CB        24.3220   59.9770   27.5270 C.3   216  CYS216      0.0983
    169  SG        23.1750   61.0430   26.5920 S.3   216  CYS216     -0.0798
    170  N         21.1320   53.8700   34.4890 N.3   221  LYS221     -0.1245
    171  CA        20.2970   54.6650   33.5890 C.3   221  LYS221      0.1561
    172  C         20.5400   54.2880   32.1210 C.2   221  LYS221      0.2260
    173  O         21.0480   55.0720   31.3250 O.2   221  LYS221     -0.2867
    174  CB        20.5480   56.1630   33.8120 C.3   221  LYS221      0.0271
    175  CG        20.1360   56.6030   35.2120 C.3   221  LYS221      0.0035
    176  CD        20.4990   58.0430   35.5170 C.3   221  LYS221      0.0206
    177  CE        20.0690   58.3970   36.9350 C.3   221  LYS221      0.1093
    178  NZ        18.6470   58.0150   37.1590 N.3   221  LYS221     -0.1314
    179  N         19.7340   53.4320   28.1870 N.3   223  GLY223     -0.1210
    180  CA        18.8660   54.0800   27.2280 C.3   223  GLY223      0.1956
    181  C         17.5580   53.3240   27.0300 C.2   223  GLY223      0.2611
    182  O         17.4710   52.1100   27.2140 O.2   223  GLY223     -0.2717
    183  N         16.5400   54.0840   26.6250 N.am  224  VAL224     -0.1979
    184  CA        15.1990   53.5550   26.4080 C.3   224  VAL224      0.1595
    185  C         14.8990   53.6150   24.9170 C.2   224  VAL224      0.2287
    186  O         15.1290   54.6390   24.2580 O.2   224  VAL224     -0.2864
    187  CB        14.1680   54.3450   27.2040 C.3   224  VAL224      0.0276
    188  CG1       12.7950   53.6570   27.0840 C.3   224  VAL224      0.0022
    189  CG2       14.5910   54.3960   28.6860 C.3   224  VAL224      0.0022
@<TRIPOS>BOND
     1    50    49    2
     2    12    11    2
     3    49    48    1
     4    48    47    1
     5    48    51    1
     6     1     2    1
     7    11    10    1
     8     6     5    1
     9     6     8    1
    10    53    55   ar
    11    53    52   ar
    12     9    10    1
    13     9     3   am
    14     5     2    1
    15     5     7    1
    16    51    52    1
    17     2     3    1
    18    55    57   ar
    19    10    13    1
    20    52    54   ar
    21    13    14    1
    22     3     4    2
    23    28    27    2
    24    57    58    1
    25    57    56   ar
    26    54    56   ar
    27    27    26    1
    28    29    26    1
    29    29    30    1
    30    14    30    1
    31   118   117    2
    32    31    32    1
    33   114   113    2
    34    26    25    1
    35    33    34    2
    36    33    32    1
    37    42    41    2
    38   117   116    1
    39    32    35    1
    40    25    17   am
    41    39    40    1
    42   113   112    1
    43    45    44   ar
    44   112   111    1
    45    41    40    1
    46    15    16    1
    47    17    18    2
    48    17    16    1
    49   116   115    1
    50   116   119    1
    51    44    46   ar
    52    44    43    1
    53    35    36    1
    54    35    37    1
    55    40    43    1
    56   121   122    1
    57    36    38    1
    58   127   125    1
    59   119   120    1
    60    16    19    1
    61   125   122    1
    62   125   126    1
    63   124   123    2
    64   111   104   am
    65   122   123    1
    66   105   104    2
    67   123   128   am
    68    19    20    1
    69   104   103    1
    70    20    21   ar
    71    20    22   ar
    72    21    23   ar
    73    22    24   ar
    74    24    23   ar
    75    99    98    2
    76   109   108    2
    77   128   129    1
    78   107   108    1
    79   107   106    1
    80   103   106    1
    81   103   102    1
    82   129   132    1
    83   129   130    1
    84   108   110   am
    85    94    91    1
    86    94    95    1
    87    98   102   am
    88    98    97    1
    89   132   133    1
    90    96    97    1
    91    96    92   am
    92   131   130    2
    93    91    92    1
    94    91    90    1
    95   130   134   am
    96    97   100    1
    97    92    93    2
    98    85    84    2
    99   100   101    1
   100    69    68   ar
   101    69    67   ar
   102    68    66   ar
   103    90    84   am
   104    62    61    2
   105    67    65   ar
   106    66    64   ar
   107   134   135    1
   108    84    83    1
   109   186   185    2
   110    65    64   ar
   111    64    63    1
   112    61    60    1
   113    60    63    1
   114    60    59    1
   115   185   184    1
   116   101   169    1
   117   135   138    1
   118   135   136    1
   119    83    82    1
   120    83    86    1
   121   138   139    1
   122   140   139   ar
   123   140   142   ar
   124   136   137    2
   125   136   148   am
   126    88    87   ar
   127   184   183    1
   128   184   187    1
   129   169   168    1
   130   139   141   ar
   131   183   181   am
   132    86    87    1
   133   181   182    2
   134   181   180    1
   135   142   143   ar
   136   188   187    1
   137    87    89   ar
   138   187   189    1
   139   180   179    1
   140   148   149    1
   141    70    71    1
   142   168   165    1
   143    71    72    1
   144    71    74    1
   145    72    73    2
   146   141   143   ar
   147   141   144   ar
   148   143   145   ar
   149   149   150    1
   150   165   166    1
   151   165   164    1
   152    76    78   ar
   153    76    75   ar
   154   163   162    2
   155    74    75    1
   156   151   150    2
   157   144   146   ar
   158    78    80   ar
   159   150   152   am
   160   166   167    2
   161    75    77   ar
   162   145   147   ar
   163   164   162   am
   164   162   161    1
   165    80    81    1
   166    80    79   ar
   167   146   147   ar
   168    77    79   ar
   169   152   153    1
   170   161   160    1
   171   160   154   am
   172   173   172    2
   173   154   153    1
   174   154   155    2
   175   153   156    1
   176   172   171    1
   177   156   157    1
   178   171   174    1
   179   171   170    1
   180   174   175    1
   181   158   157   ar
   182   157   159   ar
   183   175   176    1
   184   176   177    1
   185   177   178    1
