@<TRIPOS>MOLECULE
tmp/4jyuA00.pdb
 197 195 0 0 0
SMALL
GASTEIGER

@<TRIPOS>ATOM
      1  N          4.7760   33.9280   17.4090 N.3    41  HIS41      -0.1226
      2  CA         4.5630   35.2840   17.9710 C.3    41  HIS41       0.1752
      3  C          5.6410   36.2890   17.5720 C.2    41  HIS41       0.2596
      4  O          5.4000   37.5030   17.6450 O.2    41  HIS41      -0.2718
      5  CB         4.3540   35.2330   19.4930 C.3    41  HIS41       0.0759
      6  CG         5.6040   35.2090   20.3180 C.ar   41  HIS41       0.0818
      7  ND1        6.0850   34.0270   20.8760 N.ar   41  HIS41      -0.2268
      8  CD2        6.4090   36.2290   20.6980 C.ar   41  HIS41       0.1154
      9  CE1        7.1560   34.3660   21.5700 C.ar   41  HIS41       0.1986
     10  NE2        7.3970   35.6830   21.4870 N.ar   41  HIS41      -0.2212
     11  N          6.8170   35.7990   17.1220 N.am   42  CYS42      -0.1970
     12  CA         7.9330   36.6350   16.6390 C.3    42  CYS42       0.1712
     13  C          7.5040   37.4820   15.4500 C.2    42  CYS42       0.2296
     14  O          8.1490   38.4670   15.1350 O.2    42  CYS42      -0.2864
     15  CB         9.1290   35.7690   16.2490 C.3    42  CYS42       0.0983
     16  SG        10.0060   35.0450   17.6530 S.3    42  CYS42      -0.0798
     17  N          4.2350   38.6680   14.8220 N.3    44  ASP44      -0.1225
     18  CA         2.9520   39.3610   15.0210 C.3    44  ASP44       0.1805
     19  C          2.9790   40.8040   14.5370 C.2    44  ASP44       0.2597
     20  O          1.9560   41.3010   14.0530 O.2    44  ASP44      -0.2718
     21  CB         2.5580   39.3590   16.5050 C.3    44  ASP44       0.1424
     22  CG         1.9480   38.0760   17.0240 C.2    44  ASP44       0.3668
     23  OD1        1.8550   37.0890   16.2420 O.co2  44  ASP44      -0.2456
     24  OD2        1.5730   38.0430   18.2050 O.co2  44  ASP44      -0.2456
     25  N          4.1500   41.4650   14.6470 N.am   45  LYS45      -0.1979
     26  CA         4.3010   42.8920   14.2980 C.3    45  LYS45       0.1596
     27  C          5.1680   43.1880   13.0690 C.2    45  LYS45       0.2287
     28  O          5.5690   44.3360   12.8970 O.2    45  LYS45      -0.2864
     29  CB         4.8400   43.6630   15.5190 C.3    45  LYS45       0.0298
     30  CG         3.8420   43.8230   16.6610 C.3    45  LYS45       0.0038
     31  CD         2.8050   44.9000   16.3620 C.3    45  LYS45       0.0206
     32  CE         1.4140   44.3160   16.1400 C.3    45  LYS45       0.1093
     33  NZ         0.8120   43.7210   17.3740 N.3    45  LYS45      -0.1314
     34  N         -2.9150   29.1150   15.0670 N.3    82  TYR82      -0.1241
     35  CA        -2.2710   30.1960   15.8300 C.3    82  TYR82       0.1605
     36  C         -3.0660   31.4940   15.6080 C.2    82  TYR82       0.2264
     37  O         -3.3990   31.8330   14.4700 O.2    82  TYR82      -0.2867
     38  CB        -0.7920   30.3850   15.3900 C.3    82  TYR82       0.0534
     39  CG        -0.1650   31.6070   16.0260 C.ar   82  TYR82      -0.0201
     40  CD1        0.2120   31.6030   17.3700 C.ar   82  TYR82      -0.0009
     41  CD2       -0.0560   32.8070   15.3210 C.ar   82  TYR82      -0.0009
     42  CE1        0.7140   32.7530   17.9840 C.ar   82  TYR82       0.0417
     43  CE2        0.4730   33.9560   15.9200 C.ar   82  TYR82       0.0417
     44  CZ         0.8300   33.9270   17.2590 C.ar   82  TYR82       0.1957
     45  OH         1.3240   35.0540   17.8720 O.3    82  TYR82      -0.2866
     46  N         -1.3900   37.4920   19.0440 N.3    85  GLY85      -0.1210
     47  CA        -1.7160   38.0890   20.3360 C.3    85  GLY85       0.1956
     48  C         -2.1850   37.0950   21.3760 C.2    85  GLY85       0.2613
     49  O         -2.5230   37.4870   22.4940 O.2    85  GLY85      -0.2717
     50  N         -2.2390   35.7960   21.0150 N.am   86  THR86      -0.1938
     51  CA        -2.5810   34.7180   21.9400 C.3    86  THR86       0.2028
     52  C         -1.3750   33.7600   22.0090 C.2    86  THR86       0.2642
     53  O         -0.4100   33.9500   21.2640 O.2    86  THR86      -0.2714
     54  CB        -3.9230   34.0610   21.6370 C.3    86  THR86       0.1808
     55  OG1       -3.8060   33.3190   20.4340 O.3    86  THR86      -0.2208
     56  CG2       -5.0880   35.0640   21.5500 C.3    86  THR86       0.0379
     57  N         -1.4120   32.7690   22.9120 N.am   87  THR87      -0.1950
     58  CA        -0.2570   31.9080   23.1890 C.3    87  THR87       0.1897
     59  C         -0.2380   30.5300   22.5450 C.2    87  THR87       0.2313
     60  O          0.8440   29.9670   22.4040 O.2    87  THR87      -0.2863
     61  CB        -0.0970   31.7340   24.7070 C.3    87  THR87       0.1794
     62  OG1       -1.3060   31.1870   25.2590 O.3    87  THR87      -0.2208
     63  CG2        0.3060   33.0320   25.4040 C.3    87  THR87       0.0378
     64  N          2.3120   28.1730   19.2320 N.3    90  ASP90      -0.1239
     65  CA         3.3550   29.1630   19.0350 C.3    90  ASP90       0.1674
     66  C          4.5820   28.5980   18.3040 C.2    90  ASP90       0.2266
     67  O          5.6400   28.3920   18.9010 O.2    90  ASP90      -0.2867
     68  CB         3.7220   29.8330   20.3730 C.3    90  ASP90       0.1410
     69  CG         4.5380   31.0970   20.1580 C.2    90  ASP90       0.3668
     70  OD1        4.5310   31.6270   19.0200 O.co2  90  ASP90      -0.2456
     71  OD2        5.1640   31.5570   21.1130 O.co2  90  ASP90      -0.2456
     72  N         -2.9040   32.8220   30.9350 N.3   169  PRO169     -0.2116
     73  CA        -3.3100   31.8690   29.8880 C.3   169  PRO169      0.1372
     74  C         -3.2030   30.4280   30.3540 C.2   169  PRO169      0.2244
     75  O         -2.4200   30.1220   31.2570 O.2   169  PRO169     -0.2868
     76  CB        -2.3420   32.1630   28.7270 C.3   169  PRO169      0.0268
     77  CG        -1.6280   33.4110   29.1000 C.3   169  PRO169      0.0207
     78  CD        -1.6290   33.4770   30.5870 C.3   169  PRO169      0.0892
     79  N         15.7500   31.5130   34.0670 N.3   186  ASP186     -0.1225
     80  CA        14.6660   31.4010   33.0780 C.3   186  ASP186      0.1805
     81  C         15.1600   31.8780   31.7250 C.2   186  ASP186      0.2598
     82  O         16.2200   32.4970   31.6300 O.2   186  ASP186     -0.2718
     83  CB        13.4960   32.3090   33.5050 C.3   186  ASP186      0.1424
     84  CG        12.1120   32.0660   32.9150 C.2   186  ASP186      0.3668
     85  OD1       11.9420   31.0720   32.1430 O.co2 186  ASP186     -0.2456
     86  OD2       11.2000   32.8570   33.2180 O.co2 186  ASP186     -0.2456
     87  N         14.3560   31.6210   30.6760 N.am  187  SER187     -0.1938
     88  CA        14.5860   32.2310   29.3740 C.3   187  SER187      0.2055
     89  C         13.6900   33.4960   29.4480 C.2   187  SER187      0.2643
     90  O         12.7770   33.5420   30.2990 O.2   187  SER187     -0.2714
     91  CB        14.1970   31.2860   28.2390 C.3   187  SER187      0.2130
     92  OG        12.8670   30.8330   28.3990 O.3   187  SER187     -0.2179
     93  N         13.9520   34.4990   28.5880 N.am  188  CYS188     -0.1953
     94  CA        13.2470   35.7890   28.5890 C.3   188  CYS188      0.1843
     95  C         12.6440   36.1300   27.2280 C.2   188  CYS188      0.2625
     96  O         12.8820   35.4240   26.2620 O.2   188  CYS188     -0.2714
     97  CB        14.2040   36.8850   29.0490 C.3   188  CYS188      0.0997
     98  SG        15.1610   36.4580   30.5180 S.3   188  CYS188     -0.0797
     99  N         11.8970   37.2650   27.1330 N.am  189  LYS189     -0.1977
    100  CA        11.2680   37.6830   25.8800 C.3   189  LYS189      0.1596
    101  C         12.2280   37.7470   24.6610 C.2   189  LYS189      0.2287
    102  O         11.8210   37.2960   23.5810 O.2   189  LYS189     -0.2864
    103  CB        10.4880   38.9930   26.0460 C.3   189  LYS189      0.0298
    104  CG        11.3090   40.2320   26.2710 C.3   189  LYS189      0.0038
    105  CD        10.3780   41.4460   26.1510 C.3   189  LYS189      0.0206
    106  CE        10.9890   42.7240   26.6590 C.3   189  LYS189      0.1093
    107  NZ        10.0550   43.8740   26.4920 N.3   189  LYS189     -0.1314
    108  N         12.7440   34.4210   22.8110 N.3   192  SER192     -0.1217
    109  CA        11.5740   33.8980   22.0770 C.3   192  SER192      0.1889
    110  C         12.0090   33.2410   20.7720 C.2   192  SER192      0.2288
    111  O         12.8050   33.8310   20.0220 O.2   192  SER192     -0.2866
    112  CB        10.6070   35.0390   21.7440 C.3   192  SER192      0.2089
    113  OG         9.9390   35.4670   22.9240 O.3   192  SER192     -0.2183
    114  N         11.2370   28.5320   22.9170 N.3   210  VAL210     -0.1231
    115  CA        10.9980   29.6030   23.9220 C.3   210  VAL210      0.1692
    116  C          9.7210   30.3640   23.4780 C.2   210  VAL210      0.2593
    117  O          9.6580   30.9220   22.3750 O.2   210  VAL210     -0.2718
    118  CB        12.2200   30.5480   24.0530 C.3   210  VAL210      0.0266
    119  CG1       11.9450   31.6670   25.0670 C.3   210  VAL210      0.0020
    120  CG2       13.4840   29.7620   24.4290 C.3   210  VAL210      0.0020
    121  N          8.6770   30.3000   24.3060 N.am  211  SER211     -0.1938
    122  CA         7.3910   30.8330   23.9000 C.3   211  SER211      0.2055
    123  C          6.8880   31.9760   24.8040 C.2   211  SER211      0.2643
    124  O          6.7940   33.1030   24.3380 O.2   211  SER211     -0.2714
    125  CB         6.3690   29.6940   23.7830 C.3   211  SER211      0.2130
    126  OG         5.0860   30.1610   23.3920 O.3   211  SER211     -0.2179
    127  N          6.5370   31.6930   26.0580 N.am  212  TRP212     -0.1959
    128  CA         5.9830   32.7570   26.9150 C.3   212  TRP212      0.1771
    129  C          6.2010   32.5150   28.3930 C.2   212  TRP212      0.2620
    130  O          6.7510   31.4980   28.7900 O.2   212  TRP212     -0.2715
    131  CB         4.4810   32.9950   26.6180 C.3   212  TRP212      0.0590
    132  CG         3.5720   31.8390   26.9060 C.ar  212  TRP212      0.0006
    133  CD1        3.2960   30.7940   26.0740 C.ar  212  TRP212      0.0946
    134  CD2        2.7650   31.6430   28.0850 C.ar  212  TRP212      0.0152
    135  NE1        2.3910   29.9430   26.6680 N.ar  212  TRP212     -0.2442
    136  CE2        2.0450   30.4430   27.9030 C.ar  212  TRP212      0.0810
    137  CE3        2.6130   32.3470   29.3000 C.ar  212  TRP212      0.0012
    138  CZ2        1.1560   29.9420   28.8730 C.ar  212  TRP212      0.0191
    139  CZ3        1.7540   31.8390   30.2730 C.ar  212  TRP212      0.0001
    140  CH2        1.0400   30.6500   30.0590 C.ar  212  TRP212      0.0015
    141  N          5.7820   33.4910   29.1820 N.am  213  GLY213     -0.1940
    142  CA         5.8350   33.4210   30.6360 C.3   213  GLY213      0.2014
    143  C          5.3290   34.7260   31.2110 C.2   213  GLY213      0.2639
    144  O          4.9250   35.6190   30.4580 O.2   213  GLY213     -0.2714
    145  N          5.3430   34.8440   32.5400 N.am  214  GLN214     -0.1963
    146  CA         4.8730   36.0720   33.2100 C.3   214  GLN214      0.1733
    147  C          6.1010   36.6970   33.8090 C.2   214  GLN214      0.2617
    148  O          6.5550   36.1960   34.8320 O.2   214  GLN214     -0.2715
    149  CB         3.8860   35.7310   34.3500 C.3   214  GLN214      0.0408
    150  CG         2.8180   34.6960   34.0130 C.3   214  GLN214      0.0908
    151  CD         1.5360   35.2930   33.4950 C.2   214  GLN214      0.2608
    152  OE1        1.4660   36.4590   33.0800 O.2   214  GLN214     -0.2717
    153  NE2        0.4880   34.4870   33.4980 N.am  214  GLN214     -0.0878
    154  N          6.6530   37.7380   33.1780 N.am  215  GLY215     -0.1940
    155  CA         7.8790   38.4020   33.6190 C.3   215  GLY215      0.2014
    156  C          9.0270   37.4090   33.6450 C.2   215  GLY215      0.2639
    157  O          8.7990   36.2370   33.9960 O.2   215  GLY215     -0.2714
    158  N         10.2610   37.8160   33.3050 N.am  216  CYS216     -0.1967
    159  CA        11.3990   36.9020   33.2880 C.3   216  CYS216      0.1712
    160  C         11.8870   36.5260   34.6670 C.2   216  CYS216      0.2296
    161  O         12.1680   37.4400   35.4510 O.2   216  CYS216     -0.2864
    162  CB        12.5320   37.4450   32.4240 C.3   216  CYS216      0.0983
    163  SG        13.4540   36.1470   31.5650 S.3   216  CYS216     -0.0798
    164  N          7.0660   29.5620   35.9780 N.3   222  PHE222     -0.1227
    165  CA         7.9940   28.8110   35.1310 C.3   222  PHE222      0.1736
    166  C          7.9260   29.3560   33.6920 C.2   222  PHE222      0.2596
    167  O          6.9540   30.0170   33.3290 O.2   222  PHE222     -0.2718
    168  CB         7.5860   27.3300   35.1170 C.3   222  PHE222      0.0547
    169  CG         7.7740   26.6530   36.4510 C.ar  222  PHE222     -0.0202
    170  CD1        9.0010   26.1090   36.8040 C.ar  222  PHE222     -0.0042
    171  CD2        6.7290   26.5790   37.3640 C.ar  222  PHE222     -0.0042
    172  CE1        9.1790   25.4900   38.0450 C.ar  222  PHE222     -0.0003
    173  CE2        6.9050   25.9520   38.6010 C.ar  222  PHE222     -0.0003
    174  CZ         8.1300   25.4220   38.9360 C.ar  222  PHE222     -0.0000
    175  N          8.9240   29.0200   32.8790 N.am  223  GLY223     -0.1942
    176  CA         8.8890   29.3730   31.4600 C.3   223  GLY223      0.2014
    177  C          7.9510   28.4180   30.7490 C.2   223  GLY223      0.2639
    178  O          7.8130   27.2640   31.1610 O.2   223  GLY223     -0.2714
    179  N          7.2580   28.8850   29.6960 N.am  224  VAL224     -0.1963
    180  CA         6.3350   28.0440   28.9370 C.3   224  VAL224      0.1727
    181  C          6.9280   27.9020   27.5260 C.2   224  VAL224      0.2616
    182  O          7.3810   28.8930   26.9440 O.2   224  VAL224     -0.2715
    183  CB         4.8620   28.5130   28.9500 C.3   224  VAL224      0.0290
    184  CG1        3.9530   27.4790   28.2770 C.3   224  VAL224      0.0023
    185  CG2        4.3760   28.7660   30.3890 C.3   224  VAL224      0.0023
    186  N          6.9910   26.6480   27.0390 N.am  225  TYR225     -0.1974
    187  CA         7.6380   26.3170   25.7660 C.3   225  TYR225      0.1639
    188  C          6.6790   25.6180   24.8480 C.2   225  TYR225      0.2290
    189  O          5.8650   24.8150   25.3120 O.2   225  TYR225     -0.2864
    190  CB         8.8440   25.4010   26.0390 C.3   225  TYR225      0.0560
    191  CG         9.9110   26.0820   26.8660 C.ar  225  TYR225     -0.0198
    192  CD1        9.8180   26.1340   28.2660 C.ar  225  TYR225     -0.0009
    193  CD2       11.0170   26.6660   26.2620 C.ar  225  TYR225     -0.0009
    194  CE1       10.7710   26.8140   29.0240 C.ar  225  TYR225      0.0417
    195  CE2       11.9880   27.3230   27.0130 C.ar  225  TYR225      0.0417
    196  CZ        11.8450   27.4220   28.3920 C.ar  225  TYR225      0.1957
    197  OH        12.7990   28.1040   29.1160 O.3   225  TYR225     -0.2866
@<TRIPOS>BOND
     1    28    27    2
     2    27    26    1
     3    20    19    2
     4    26    25    1
     5    26    29    1
     6    37    36    2
     7    19    25   am
     8    19    18    1
     9    17    18    1
    10    18    21    1
    11    34    35    1
    12    14    13    2
    13    41    43   ar
    14    41    39   ar
    15    38    35    1
    16    38    39    1
    17    13    12    1
    18    29    30    1
    19    36    35    1
    20    43    44   ar
    21    39    40   ar
    22    32    31    1
    23    32    33    1
    24    23    22   ar
    25    15    12    1
    26    15    16    1
    27    31    30    1
    28    21    22    1
    29    12    11    1
    30    22    24   ar
    31    11     3   am
    32    44    45    1
    33    44    42   ar
    34    40    42   ar
    35     1     2    1
    36     3     4    2
    37     3     2    1
    38     2     5    1
    39    66    67    2
    40    66    65    1
    41    70    69   ar
    42    65    64    1
    43    65    68    1
    44    46    47    1
    45     5     6    1
    46   111   110    2
    47    69    68    1
    48    69    71   ar
    49     6     8   ar
    50     6     7   ar
    51    47    48    1
    52    55    54    1
    53     8    10   ar
    54   110   109    1
    55     7     9   ar
    56    50    48   am
    57    50    51    1
    58    53    52    2
    59    48    49    2
    60    10     9   ar
    61    56    54    1
    62    54    51    1
    63   112   109    1
    64   112   113    1
    65    51    52    1
    66    52    57   am
    67   109   108    1
    68   117   116    2
    69    60    59    2
    70    59    58    1
    71    57    58    1
    72   114   115    1
    73    58    61    1
    74   126   125    1
    75   116   115    1
    76   116   121   am
    77   102   101    2
    78   125   122    1
    79   122   121    1
    80   122   123    1
    81   115   118    1
    82   118   120    1
    83   118   119    1
    84   124   123    2
    85   101   100    1
    86    61    62    1
    87    61    63    1
    88   123   127   am
    89   188   189    2
    90   188   187    1
    91   187   190    1
    92   187   186    1
    93   100   103    1
    94   100    99    1
    95   190   191    1
    96   103   104    1
    97   127   128    1
    98   133   135   ar
    99   133   132   ar
   100   105   104    1
   101   105   106    1
   102    96    95    2
   103   193   191   ar
   104   193   195   ar
   105   107   106    1
   106   131   132    1
   107   131   128    1
   108   135   136   ar
   109   191   192   ar
   110   132   134   ar
   111   128   129    1
   112   182   181    2
   113   195   196   ar
   114   186   181   am
   115    99    95   am
   116    95    94    1
   117   181   180    1
   118   136   134   ar
   119   136   138   ar
   120   134   137   ar
   121    91    92    1
   122    91    88    1
   123   192   194   ar
   124   184   183    1
   125   196   194   ar
   126   196   197    1
   127   129   130    2
   128   129   141   am
   129    93    94    1
   130    93    89   am
   131    94    97    1
   132    76    77    1
   133    76    73    1
   134   138   140   ar
   135   180   183    1
   136   180   179    1
   137   183   185    1
   138    97    98    1
   139    77    78    1
   140   141   142    1
   141   137   139   ar
   142    88    89    1
   143    88    87    1
   144    89    90    2
   145   179   177   am
   146    73    74    1
   147    73    72    1
   148   140   139   ar
   149    74    75    2
   150   144   143    2
   151    98   163    1
   152    78    72    1
   153   142   143    1
   154    87    81   am
   155   177   178    2
   156   177   176    1
   157   143   145   am
   158   176   175    1
   159   163   162    1
   160    82    81    2
   161    81    80    1
   162    85    84   ar
   163   162   159    1
   164   145   146    1
   165   175   166   am
   166    84    86   ar
   167    84    83    1
   168    80    83    1
   169    80    79    1
   170   152   151    2
   171   154   155    1
   172   154   147   am
   173   146   147    1
   174   146   149    1
   175   159   158    1
   176   159   160    1
   177   158   156   am
   178   167   166    2
   179   151   153   am
   180   151   150    1
   181   155   156    1
   182   156   157    2
   183   166   165    1
   184   147   148    2
   185   150   149    1
   186   160   161    2
   187   168   165    1
   188   168   169    1
   189   165   164    1
   190   169   170   ar
   191   169   171   ar
   192   170   172   ar
   193   171   173   ar
   194   172   174   ar
   195   173   174   ar
