@<TRIPOS>MOLECULE
tmp/4jyvA00.pdb
 187 184 0 0 0
SMALL
GASTEIGER

@<TRIPOS>ATOM
      1  N          4.6900   34.2090   17.1440 N.3    41  HIS41      -0.1241
      2  CA         4.5280   35.5630   17.7280 C.3    41  HIS41       0.1621
      3  C          5.6180   36.5750   17.3200 C.2    41  HIS41       0.2264
      4  O          5.3790   37.7840   17.4170 O.2    41  HIS41      -0.2867
      5  CB         4.3660   35.5080   19.2540 C.3    41  HIS41       0.0745
      6  CG         5.6410   35.4400   20.0460 C.ar   41  HIS41       0.0817
      7  ND1        6.0150   34.2950   20.6950 N.ar   41  HIS41      -0.2268
      8  CD2        6.5350   36.4080   20.3390 C.ar   41  HIS41       0.1154
      9  CE1        7.1260   34.5880   21.3370 C.ar   41  HIS41       0.1986
     10  NE2        7.4840   35.8350   21.1350 N.ar   41  HIS41      -0.2212
     11  N          4.2600   38.8650   14.4120 N.3    44  ASP44      -0.1225
     12  CA         3.0020   39.5970   14.6310 C.3    44  ASP44       0.1805
     13  C          3.0320   41.0500   14.1480 C.2    44  ASP44       0.2597
     14  O          2.0330   41.5450   13.6480 O.2    44  ASP44      -0.2718
     15  CB         2.6470   39.6010   16.1220 C.3    44  ASP44       0.1424
     16  CG         1.9850   38.3470   16.6430 C.2    44  ASP44       0.3668
     17  OD1        1.8630   37.3630   15.8650 O.co2  44  ASP44      -0.2456
     18  OD2        1.5950   38.3370   17.8230 O.co2  44  ASP44      -0.2456
     19  N          4.1770   41.7250   14.3030 N.am   45  LYS45      -0.1979
     20  CA         4.3410   43.1480   13.9910 C.3    45  LYS45       0.1596
     21  C          5.2840   43.3880   12.8230 C.2    45  LYS45       0.2287
     22  O          5.9020   44.4460   12.7690 O.2    45  LYS45      -0.2864
     23  CB         4.8390   43.9150   15.2480 C.3    45  LYS45       0.0298
     24  CG         3.9840   43.7620   16.5070 C.3    45  LYS45       0.0038
     25  CD         2.6540   44.5120   16.4280 C.3    45  LYS45       0.0206
     26  CE         1.8040   44.2960   17.6600 C.3    45  LYS45       0.1093
     27  NZ         0.5130   45.0350   17.5780 N.3    45  LYS45      -0.1314
     28  N         -1.1820   37.9450   18.7000 N.3    85  GLY85      -0.1210
     29  CA        -1.4370   38.5420   20.0070 C.3    85  GLY85       0.1956
     30  C         -1.8020   37.5590   21.1040 C.2    85  GLY85       0.2613
     31  O         -2.0160   37.9740   22.2400 O.2    85  GLY85      -0.2717
     32  N         -1.8890   36.2530   20.7840 N.am   86  THR86      -0.1938
     33  CA        -2.2020   35.1760   21.7450 C.3    86  THR86       0.2028
     34  C         -1.0130   34.1790   21.8610 C.2    86  THR86       0.2642
     35  O          0.0340   34.3990   21.2460 O.2    86  THR86      -0.2714
     36  CB        -3.5500   34.5130   21.4550 C.3    86  THR86       0.1808
     37  OG1       -3.4410   33.7370   20.2700 O.3    86  THR86      -0.2208
     38  CG2       -4.7060   35.5140   21.3450 C.3    86  THR86       0.0379
     39  N         -1.1640   33.1220   22.6810 N.am   87  THR87      -0.1950
     40  CA        -0.0850   32.1870   23.0200 C.3    87  THR87       0.1897
     41  C         -0.1050   30.8200   22.3570 C.2    87  THR87       0.2313
     42  O          0.9650   30.2590   22.1480 O.2    87  THR87      -0.2863
     43  CB        -0.0100   31.9870   24.5450 C.3    87  THR87       0.1794
     44  OG1       -1.2670   31.5140   25.0290 O.3    87  THR87      -0.2208
     45  CG2        0.3970   33.2550   25.2780 C.3    87  THR87       0.0378
     46  N          2.3330   28.4830   19.0550 N.3    90  ASP90      -0.1239
     47  CA         3.3890   29.4600   18.8370 C.3    90  ASP90       0.1674
     48  C          4.6080   28.8550   18.1220 C.2    90  ASP90       0.2266
     49  O          5.6820   28.6480   18.7090 O.2    90  ASP90      -0.2867
     50  CB         3.7500   30.1640   20.1510 C.3    90  ASP90       0.1410
     51  CG         4.5660   31.4210   19.9880 C.2    90  ASP90       0.3668
     52  OD1        4.5890   31.9870   18.8520 O.co2  90  ASP90      -0.2456
     53  OD2        5.1720   31.8570   20.9820 O.co2  90  ASP90      -0.2456
     54  N         -6.3850   36.6940   34.3800 N.3   167  ASP167     -0.1239
     55  CA        -6.2900   36.7880   32.9100 C.3   167  ASP167      0.1674
     56  C         -5.0650   36.0360   32.3190 C.2   167  ASP167      0.2266
     57  O         -4.7980   36.1570   31.1160 O.2   167  ASP167     -0.2867
     58  CB        -6.3480   38.2540   32.4190 C.3   167  ASP167      0.1410
     59  CG        -7.7160   38.8170   32.2500 C.2   167  ASP167      0.3668
     60  OD1       -8.6980   38.1210   32.3940 O.co2 167  ASP167     -0.2456
     61  OD2       -7.7550   40.0630   31.8880 O.co2 167  ASP167     -0.2456
     62  N         -2.8130   33.2090   30.6240 N.3   169  PRO169     -0.2116
     63  CA        -3.2200   32.2280   29.6110 C.3   169  PRO169      0.1372
     64  C         -3.1760   30.7970   30.1240 C.2   169  PRO169      0.2244
     65  O         -2.4710   30.4760   31.0880 O.2   169  PRO169     -0.2868
     66  CB        -2.2320   32.4550   28.4540 C.3   169  PRO169      0.0268
     67  CG        -1.5130   33.7070   28.7760 C.3   169  PRO169      0.0207
     68  CD        -1.5420   33.8590   30.2540 C.3   169  PRO169      0.0892
     69  N         15.6470   31.6940   33.9780 N.3   186  ASP186     -0.1225
     70  CA        14.5620   31.6310   33.0060 C.3   186  ASP186      0.1805
     71  C         15.0250   32.0890   31.6320 C.2   186  ASP186      0.2598
     72  O         16.0750   32.7130   31.4850 O.2   186  ASP186     -0.2718
     73  CB        13.4140   32.5670   33.4770 C.3   186  ASP186      0.1424
     74  CG        12.0320   32.3130   32.8830 C.2   186  ASP186      0.3668
     75  OD1       11.8850   31.3490   32.0820 O.co2 186  ASP186     -0.2456
     76  OD2       11.1010   33.0800   33.2050 O.co2 186  ASP186     -0.2456
     77  N         14.2220   31.8150   30.6240 N.am  187  SER187     -0.1938
     78  CA        14.4800   32.3930   29.3060 C.3   187  SER187      0.2055
     79  C         13.6620   33.7140   29.3560 C.2   187  SER187      0.2643
     80  O         12.9010   33.9280   30.3120 O.2   187  SER187     -0.2714
     81  CB        14.1020   31.4420   28.1690 C.3   187  SER187      0.2130
     82  OG        12.7170   31.1650   28.1590 O.3   187  SER187     -0.2179
     83  N         13.8760   34.6250   28.4300 N.am  188  CYS188     -0.1953
     84  CA        13.2300   35.9330   28.5270 C.3   188  CYS188      0.1843
     85  C         12.6980   36.4160   27.1660 C.2   188  CYS188      0.2625
     86  O         12.8730   35.7070   26.1840 O.2   188  CYS188     -0.2714
     87  CB        14.2430   36.9060   29.1400 C.3   188  CYS188      0.0997
     88  SG        13.5330   38.4340   29.8050 S.3   188  CYS188     -0.0797
     89  N         11.9450   37.5470   27.1110 N.am  189  LYS189     -0.1977
     90  CA        11.2600   38.0590   25.9040 C.3   189  LYS189      0.1596
     91  C         12.1020   38.0600   24.5730 C.2   189  LYS189      0.2287
     92  O         11.5390   37.7200   23.5250 O.2   189  LYS189     -0.2864
     93  CB        10.6290   39.4490   26.1460 C.3   189  LYS189      0.0298
     94  CG        11.5980   40.6120   26.3820 C.3   189  LYS189      0.0038
     95  CD        10.9310   41.8110   27.0720 C.3   189  LYS189      0.0206
     96  CE        10.1270   42.7080   26.1530 C.3   189  LYS189      0.1093
     97  NZ        10.9830   43.7090   25.4620 N.3   189  LYS189     -0.1314
     98  N         12.7740   34.5190   22.6420 N.3   192  SER192     -0.1217
     99  CA        11.6230   34.0250   21.8670 C.3   192  SER192      0.1889
    100  C         12.0270   33.3870   20.5520 C.2   192  SER192      0.2288
    101  O         12.8370   33.9520   19.8290 O.2   192  SER192     -0.2866
    102  CB        10.6530   35.1670   21.5840 C.3   192  SER192      0.2089
    103  OG         9.9540   35.5180   22.7650 O.3   192  SER192     -0.2183
    104  N         11.2040   28.7300   22.8070 N.3   210  VAL210     -0.1231
    105  CA        11.0130   29.8500   23.7580 C.3   210  VAL210      0.1692
    106  C          9.7560   30.6120   23.2720 C.2   210  VAL210      0.2593
    107  O          9.7330   31.1020   22.1480 O.2   210  VAL210     -0.2718
    108  CB        12.2440   30.7980   23.8850 C.3   210  VAL210      0.0266
    109  CG1       11.9740   31.8770   24.9190 C.3   210  VAL210      0.0020
    110  CG2       13.5190   30.0280   24.2250 C.3   210  VAL210      0.0020
    111  N          8.7020   30.6030   24.0740 N.am  211  SER211     -0.1938
    112  CA         7.4110   31.1450   23.6800 C.3   211  SER211      0.2055
    113  C          6.9040   32.2820   24.5720 C.2   211  SER211      0.2643
    114  O          6.7290   33.3890   24.0810 O.2   211  SER211     -0.2714
    115  CB         6.3850   30.0090   23.5840 C.3   211  SER211      0.2130
    116  OG         5.0870   30.4460   23.2200 O.3   211  SER211     -0.2179
    117  N          6.6350   32.0070   25.8580 N.am  212  TRP212     -0.1959
    118  CA         6.0990   33.0110   26.7650 C.3   212  TRP212      0.1771
    119  C          6.3250   32.7090   28.2470 C.2   212  TRP212      0.2620
    120  O          6.8990   31.6850   28.6130 O.2   212  TRP212     -0.2715
    121  CB         4.6090   33.2740   26.4760 C.3   212  TRP212      0.0590
    122  CG         3.6790   32.1360   26.7450 C.ar  212  TRP212      0.0006
    123  CD1        3.3580   31.1180   25.8910 C.ar  212  TRP212      0.0946
    124  CD2        2.8020   32.0090   27.8730 C.ar  212  TRP212      0.0152
    125  NE1        2.3950   30.3200   26.4500 N.ar  212  TRP212     -0.2442
    126  CE2        2.0270   30.8480   27.6690 C.ar  212  TRP212      0.0810
    127  CE3        2.6300   32.7410   29.0650 C.ar  212  TRP212      0.0012
    128  CZ2        1.0970   30.3910   28.6220 C.ar  212  TRP212      0.0191
    129  CZ3        1.7160   32.2880   30.0040 C.ar  212  TRP212      0.0001
    130  CH2        0.9770   31.1150   29.7880 C.ar  212  TRP212      0.0015
    131  N          5.8860   33.6530   29.0660 N.am  213  GLY213     -0.1940
    132  CA         5.9180   33.6050   30.5130 C.3   213  GLY213      0.2014
    133  C          5.3820   34.9030   31.0810 C.2   213  GLY213      0.2639
    134  O          5.0440   35.8180   30.3220 O.2   213  GLY213     -0.2714
    135  N          5.2860   34.9790   32.4200 N.am  214  GLN214     -0.1963
    136  CA         4.8550   36.1770   33.1430 C.3   214  GLN214      0.1733
    137  C          6.1500   36.8290   33.6250 C.2   214  GLN214      0.2617
    138  O          6.8190   36.2720   34.4920 O.2   214  GLN214     -0.2715
    139  CB         3.9200   35.8050   34.3010 C.3   214  GLN214      0.0408
    140  CG         2.6570   35.0850   33.8240 C.3   214  GLN214      0.0908
    141  CD         1.4330   35.4340   34.6300 C.2   214  GLN214      0.2608
    142  OE1        1.1400   36.6080   34.8990 O.2   214  GLN214     -0.2717
    143  NE2        0.6660   34.4160   34.9990 N.am  214  GLN214     -0.0878
    144  N          6.5650   37.9070   32.9520 N.am  215  GLY215     -0.1940
    145  CA         7.8400   38.5740   33.2020 C.3   215  GLY215      0.2014
    146  C          8.9840   37.6160   32.9250 C.2   215  GLY215      0.2639
    147  O          8.7870   36.6260   32.2200 O.2   215  GLY215     -0.2714
    148  N         10.1650   37.8560   33.4940 N.am  216  CYS216     -0.1967
    149  CA        11.2970   36.9490   33.3350 C.3   216  CYS216      0.1712
    150  C         11.8080   36.5940   34.6840 C.2   216  CYS216      0.2296
    151  O         12.0880   37.4980   35.4730 O.2   216  CYS216     -0.2864
    152  CB        12.3880   37.5680   32.4720 C.3   216  CYS216      0.0983
    153  SG        11.8370   37.9620   30.8070 S.3   216  CYS216     -0.0798
    154  N          7.1120   29.7980   35.7870 N.3   222  PHE222     -0.1227
    155  CA         8.0180   29.0330   34.9310 C.3   222  PHE222      0.1736
    156  C          7.9340   29.5520   33.5250 C.2   222  PHE222      0.2596
    157  O          6.9270   30.1540   33.1610 O.2   222  PHE222     -0.2718
    158  CB         7.6060   27.5510   34.9270 C.3   222  PHE222      0.0547
    159  CG         7.7760   26.8690   36.2550 C.ar  222  PHE222     -0.0202
    160  CD1        8.9900   26.2900   36.6060 C.ar  222  PHE222     -0.0042
    161  CD2        6.7250   26.8120   37.1650 C.ar  222  PHE222     -0.0042
    162  CE1        9.1460   25.6540   37.8380 C.ar  222  PHE222     -0.0003
    163  CE2        6.8790   26.1740   38.3960 C.ar  222  PHE222     -0.0003
    164  CZ         8.0870   25.5960   38.7230 C.ar  222  PHE222     -0.0000
    165  N          8.9600   29.2530   32.7260 N.am  223  GLY223     -0.1942
    166  CA         8.9600   29.5560   31.3010 C.3   223  GLY223      0.2014
    167  C          7.9860   28.6210   30.6100 C.2   223  GLY223      0.2639
    168  O          7.8050   27.4830   31.0400 O.2   223  GLY223     -0.2714
    169  N          7.2750   29.1150   29.6200 N.am  224  VAL224     -0.1963
    170  CA         6.3260   28.3150   28.8340 C.3   224  VAL224      0.1727
    171  C          6.9150   28.1640   27.4110 C.2   224  VAL224      0.2616
    172  O          7.3600   29.1480   26.8120 O.2   224  VAL224     -0.2715
    173  CB         4.8690   28.8480   28.8460 C.3   224  VAL224      0.0290
    174  CG1        3.9230   27.8500   28.1530 C.3   224  VAL224      0.0023
    175  CG2        4.4000   29.1150   30.2710 C.3   224  VAL224      0.0023
    176  N          6.9800   26.9120   26.9340 N.am  225  TYR225     -0.1974
    177  CA         7.5790   26.5290   25.6630 C.3   225  TYR225      0.1639
    178  C          6.6000   25.8180   24.7500 C.2   225  TYR225      0.2290
    179  O          5.8070   25.0060   25.2130 O.2   225  TYR225     -0.2864
    180  CB         8.8100   25.6160   25.9050 C.3   225  TYR225      0.0560
    181  CG         9.8660   26.2850   26.7490 C.ar  225  TYR225     -0.0198
    182  CD1        9.7710   26.2990   28.1480 C.ar  225  TYR225     -0.0009
    183  CD2       10.9340   26.9490   26.1620 C.ar  225  TYR225     -0.0009
    184  CE1       10.6720   27.0200   28.9250 C.ar  225  TYR225      0.0417
    185  CE2       11.8550   27.6560   26.9290 C.ar  225  TYR225      0.0417
    186  CZ        11.7180   27.6960   28.3110 C.ar  225  TYR225      0.1957
    187  OH        12.6550   28.3690   29.0660 O.3   225  TYR225     -0.2866
@<TRIPOS>BOND
     1    22    21    2
     2    21    20    1
     3    14    13    2
     4    20    19    1
     5    20    23    1
     6    13    19   am
     7    13    12    1
     8    11    12    1
     9    12    15    1
    10    23    24    1
    11    17    16   ar
    12    15    16    1
    13    25    24    1
    14    25    26    1
    15    16    18   ar
    16     1     2    1
    17     3     4    2
    18     3     2    1
    19    27    26    1
    20     2     5    1
    21    48    49    2
    22    48    47    1
    23    28    29    1
    24    47    46    1
    25    47    50    1
    26    52    51   ar
    27     5     6    1
    28   101   100    2
    29    51    50    1
    30    51    53   ar
    31    29    30    1
    32     6     8   ar
    33     6     7   ar
    34    37    36    1
    35     8    10   ar
    36   100    99    1
    37     7     9   ar
    38    32    30   am
    39    32    33    1
    40    30    31    2
    41    10     9   ar
    42    35    34    2
    43    38    36    1
    44    36    33    1
    45   102    99    1
    46   102   103    1
    47    33    34    1
    48    34    39   am
    49    99    98    1
    50    42    41    2
    51   107   106    2
    52    41    40    1
    53    39    40    1
    54   104   105    1
    55    40    43    1
    56   116   115    1
    57   106   105    1
    58   106   111   am
    59    92    91    2
    60   115   112    1
    61   112   111    1
    62   112   113    1
    63   105   108    1
    64   108   110    1
    65   108   109    1
    66   114   113    2
    67    43    44    1
    68    43    45    1
    69   113   117   am
    70    91    90    1
    71   178   179    2
    72   178   177    1
    73    97    96    1
    74   177   180    1
    75   177   176    1
    76   117   118    1
    77   123   125   ar
    78   123   122   ar
    79    90    93    1
    80    90    89    1
    81   180   181    1
    82    93    94    1
    83    96    95    1
    84   183   181   ar
    85   183   185   ar
    86    86    85    2
    87    94    95    1
    88   125   126   ar
    89   121   122    1
    90   121   118    1
    91   122   124   ar
    92   181   182   ar
    93   118   119    1
    94   172   171    2
    95   185   186   ar
    96   176   171   am
    97    89    85   am
    98    85    84    1
    99   171   170    1
   100   126   124   ar
   101   126   128   ar
   102   124   127   ar
   103   182   184   ar
   104   174   173    1
   105    82    81    1
   106    81    78    1
   107   119   120    2
   108   119   131   am
   109   186   184   ar
   110   186   187    1
   111    83    84    1
   112    83    79   am
   113    66    67    1
   114    66    63    1
   115    84    87    1
   116   128   130   ar
   117    67    68    1
   118   170   173    1
   119   170   169    1
   120   173   175    1
   121   127   129   ar
   122   131   132    1
   123    87    88    1
   124    78    79    1
   125    78    77    1
   126    79    80    2
   127    63    64    1
   128    63    62    1
   129   169   167   am
   130   130   129   ar
   131    88   153    1
   132    64    65    2
   133    68    62    1
   134   134   133    2
   135   132   133    1
   136   167   168    2
   137   167   166    1
   138    77    71   am
   139   153   152    1
   140   133   135   am
   141    57    56    2
   142   166   165    1
   143    72    71    2
   144    71    70    1
   145    61    59   ar
   146    75    74   ar
   147   147   146    2
   148    59    60   ar
   149    59    58    1
   150    56    55    1
   151    58    55    1
   152   135   136    1
   153   152   149    1
   154   165   156   am
   155    74    76   ar
   156    74    73    1
   157    55    54    1
   158   146   145    1
   159   146   148   am
   160   144   145    1
   161   144   137   am
   162    70    73    1
   163    70    69    1
   164   136   137    1
   165   136   139    1
   166   157   156    2
   167   149   148    1
   168   149   150    1
   169   156   155    1
   170   137   138    2
   171   140   139    1
   172   140   141    1
   173   141   142    2
   174   141   143   am
   175   150   151    2
   176   158   155    1
   177   158   159    1
   178   155   154    1
   179   159   160   ar
   180   159   161   ar
   181   160   162   ar
   182   161   163   ar
   183   162   164   ar
   184   163   164   ar
