@<TRIPOS>MOLECULE
tmp/4jywA02.pdb
 102 99 0 0 0
SMALL
GASTEIGER

@<TRIPOS>ATOM
      1  N         11.4430   27.0600   24.7420 N.3    71  PRO71      -0.2116
      2  CA        12.5390   27.7920   25.3870 C.3    71  PRO71       0.1372
      3  C         13.1030   28.9740   24.6050 C.2    71  PRO71       0.2244
      4  O         13.1290   28.9720   23.3580 O.2    71  PRO71      -0.2868
      5  CB        13.6240   26.7200   25.5740 C.3    71  PRO71       0.0268
      6  CG        13.2400   25.5830   24.6870 C.3    71  PRO71       0.0207
      7  CD        11.7640   25.6250   24.5660 C.3    71  PRO71       0.0892
      8  N         16.1780   31.2150   23.3200 N.3    73  TYR73      -0.1241
      9  CA        17.5990   31.0470   22.9990 C.3    73  TYR73       0.1605
     10  C         18.0210   31.9710   21.8620 C.2    73  TYR73       0.2264
     11  O         17.1740   32.6050   21.2200 O.2    73  TYR73      -0.2867
     12  CB        17.9630   29.5790   22.6620 C.3    73  TYR73       0.0534
     13  CG        17.4430   29.0940   21.3260 C.ar   73  TYR73      -0.0201
     14  CD1       18.3130   28.9070   20.2470 C.ar   73  TYR73      -0.0009
     15  CD2       16.0820   28.8040   21.1450 C.ar   73  TYR73      -0.0009
     16  CE1       17.8260   28.4450   19.0340 C.ar   73  TYR73       0.0417
     17  CE2       15.5840   28.3590   19.9430 C.ar   73  TYR73       0.0417
     18  CZ        16.4510   28.1780   18.8870 C.ar   73  TYR73       0.1957
     19  OH        15.9620   27.7330   17.6760 O.3    73  TYR73      -0.2866
     20  N         19.9280   29.5090    6.4560 N.3    81  GLY81      -0.1210
     21  CA        19.0220   29.4470    7.5890 C.3    81  GLY81       0.1956
     22  C         19.2800   28.3000    8.5630 C.2    81  GLY81       0.2612
     23  O         18.4060   27.9820    9.3750 O.2    81  GLY81      -0.2717
     24  N         20.4650   27.6880    8.5040 N.am   82  ASN82      -0.1960
     25  CA        20.8680   26.7030    9.5170 C.3    82  ASN82       0.1819
     26  C         21.4130   27.3940   10.7700 C.2    82  ASN82       0.2621
     27  O         22.2950   28.2580   10.6790 O.2    82  ASN82      -0.2715
     28  CB        21.9160   25.7190    8.9810 C.3    82  ASN82       0.1195
     29  CG        21.5130   25.0750    7.6500 C.2    82  ASN82       0.2630
     30  OD1       20.3370   24.7710    7.4150 O.2    82  ASN82      -0.2716
     31  ND2       22.4980   24.8530    6.7810 N.am   82  ASN82      -0.0877
     32  N         20.8950   27.0030   11.9300 N.am   83  GLU83      -0.1963
     33  CA        21.3640   27.5780   13.1940 C.3    83  GLU83       0.1733
     34  C         22.5960   26.8070   13.6020 C.2    83  GLU83       0.2616
     35  O         22.5060   25.6590   14.0370 O.2    83  GLU83      -0.2715
     36  CB        20.2550   27.5930   14.2560 C.3    83  GLU83       0.0429
     37  CG        19.1120   28.4960   13.8260 C.3    83  GLU83       0.1163
     38  CD        17.9500   28.5860   14.8210 C.2    83  GLU83       0.3649
     39  OE1       17.7730   27.6850   15.6680 O.co2  83  GLU83      -0.2457
     40  OE2       17.1810   29.5640   14.7090 O.co2  83  GLU83      -0.2457
     41  N         23.7550   27.4310   13.3780 N.am   84  ILE84      -0.1963
     42  CA        25.0680   26.7880   13.5620 C.3    84  ILE84       0.1727
     43  C         25.6730   26.8920   14.9820 C.2    84  ILE84       0.2616
     44  O         26.6200   26.1690   15.3280 O.2    84  ILE84      -0.2715
     45  CB        26.0850   27.2630   12.4820 C.3    84  ILE84       0.0290
     46  CG1       26.4280   28.7490   12.6560 C.3    84  ILE84       0.0022
     47  CG2       25.5370   26.9520   11.0750 C.3    84  ILE84       0.0023
     48  CD1       27.4520   29.2760   11.6400 C.3    84  ILE84       0.0001
     49  N         25.1020   27.7680   15.7990 N.am   85  PHE85      -0.1960
     50  CA        25.4730   27.9030   17.2090 C.3    85  PHE85       0.1771
     51  C         24.2320   28.3290   17.9660 C.2    85  PHE85       0.2619
     52  O         23.4730   29.1330   17.4530 O.2    85  PHE85      -0.2715
     53  CB        26.5440   28.9840   17.3980 C.3    85  PHE85       0.0574
     54  CG        26.6710   29.4480   18.8230 C.ar   85  PHE85      -0.0200
     55  CD1       27.2670   28.6290   19.7820 C.ar   85  PHE85      -0.0042
     56  CD2       26.1370   30.6690   19.2160 C.ar   85  PHE85      -0.0042
     57  CE1       27.3580   29.0460   21.1050 C.ar   85  PHE85      -0.0003
     58  CE2       26.2260   31.0870   20.5400 C.ar   85  PHE85      -0.0003
     59  CZ        26.8300   30.2670   21.4800 C.ar   85  PHE85      -0.0000
     60  N         24.0410   27.7940   19.1750 N.am   86  ASN86      -0.1972
     61  CA        22.8840   28.0930   20.0220 C.3    86  ASN86       0.1688
     62  C         23.3630   28.3540   21.4260 C.2    86  ASN86       0.2292
     63  O         24.2190   27.6130   21.9340 O.2    86  ASN86      -0.2864
     64  CB        21.9420   26.8820   20.1300 C.3    86  ASN86       0.1181
     65  CG        21.2050   26.5960   18.8570 C.2    86  ASN86       0.2629
     66  OD1       20.9540   27.5000   18.0650 O.2    86  ASN86      -0.2716
     67  ND2       20.8480   25.3190   18.6480 N.am   86  ASN86      -0.0877
     68  N         20.3150   26.5950   27.1590 N.3    89  LEU89      -0.1245
     69  CA        18.9270   26.6440   27.6010 C.3    89  LEU89       0.1561
     70  C         18.7850   26.7700   29.1210 C.2    89  LEU89       0.2260
     71  O         17.6930   27.0610   29.5880 O.2    89  LEU89      -0.2867
     72  CB        18.1320   25.4350   27.0930 C.3    89  LEU89       0.0270
     73  CG        18.0820   25.2710   25.5630 C.3    89  LEU89       0.0019
     74  CD1       17.2040   24.0860   25.1930 C.3    89  LEU89       0.0001
     75  CD2       17.5810   26.5280   24.8980 C.3    89  LEU89       0.0001
     76  N         11.2710   36.9340   17.0760 N.3   115  MET115     -0.1245
     77  CA        12.3930   36.1660   16.5130 C.3   115  MET115      0.1570
     78  C         13.2160   37.0140   15.5410 C.2   115  MET115      0.2261
     79  O         13.4420   36.5970   14.3900 O.2   115  MET115     -0.2867
     80  CB        11.8710   34.9020   15.8270 C.3   115  MET115      0.0387
     81  CG        11.3210   33.8220   16.7680 C.3   115  MET115      0.0595
     82  SD        10.7930   32.4170   15.7730 S.3   115  MET115     -0.1393
     83  CE        11.4540   31.0790   16.7410 C.3   115  MET115      0.0692
     84  N         20.1510   35.4250   15.3810 N.3   289  LYS289     -0.1245
     85  CA        18.7020   35.2890   15.5460 C.3   289  LYS289      0.1561
     86  C         18.3410   35.0750   17.0080 C.2   289  LYS289      0.2260
     87  O         18.9080   34.2050   17.6720 O.2   289  LYS289     -0.2867
     88  CB        18.1350   34.1390   14.6990 C.3   289  LYS289      0.0271
     89  CG        16.6160   33.9750   14.7800 C.3   289  LYS289      0.0035
     90  CD        16.1210   33.0240   13.6800 C.3   289  LYS289      0.0206
     91  CE        14.6030   33.0690   13.5800 C.3   289  LYS289      0.1093
     92  NZ        14.1450   32.3970   12.3220 N.3   289  LYS289     -0.1314
     93  N         15.2000   34.0660   19.7700 N.3   291  HIS291     -0.1241
     94  CA        13.9250   33.3750   19.8090 C.3   291  HIS291      0.1621
     95  C         13.3930   33.6000   21.2160 C.2   291  HIS291      0.2264
     96  O         13.8510   32.9630   22.1970 O.2   291  HIS291     -0.2867
     97  CB        14.0260   31.8710   19.5440 C.3   291  HIS291      0.0745
     98  CG        14.9380   31.4950   18.4180 C.ar  291  HIS291      0.0817
     99  ND1       16.3100   31.6030   18.5120 N.ar  291  HIS291     -0.2268
    100  CD2       14.6870   30.9790   17.1910 C.ar  291  HIS291      0.1154
    101  CE1       16.8650   31.1970   17.3850 C.ar  291  HIS291      0.1986
    102  NE2       15.9020   30.8180   16.5620 N.ar  291  HIS291     -0.2212
@<TRIPOS>BOND
     1    20    21    1
     2    31    29   am
     3    30    29    2
     4    21    22    1
     5    29    28    1
     6    24    22   am
     7    24    25    1
     8    22    23    2
     9    28    25    1
    10    25    26    1
    11    27    26    2
    12    26    32   am
    13    47    45    1
    14    48    46    1
    15    32    33    1
    16    92    91    1
    17    45    46    1
    18    45    42    1
    19    33    34    1
    20    33    36    1
    21    41    42    1
    22    41    34   am
    23    42    43    1
    24    91    90    1
    25    34    35    2
    26    90    89    1
    27    37    36    1
    28    37    38    1
    29    79    78    2
    30    88    89    1
    31    88    85    1
    32    40    38   ar
    33    38    39   ar
    34    43    44    2
    35    43    49   am
    36    84    85    1
    37    78    77    1
    38    85    86    1
    39    82    83    1
    40    82    81    1
    41    49    50    1
    42    80    77    1
    43    80    81    1
    44    77    76    1
    45   102   100   ar
    46   102   101   ar
    47    86    87    2
    48   100    98   ar
    49    50    53    1
    50    50    51    1
    51   101    99   ar
    52    53    54    1
    53    52    51    2
    54    19    18    1
    55    51    60   am
    56    66    65    2
    57    98    99   ar
    58    98    97    1
    59    67    65   am
    60    54    56   ar
    61    54    55   ar
    62    65    64    1
    63    18    16   ar
    64    18    17   ar
    65    16    14   ar
    66    60    61    1
    67    56    58   ar
    68    97    94    1
    69    93    94    1
    70    55    57   ar
    71    94    95    1
    72    17    15   ar
    73    61    64    1
    74    61    62    1
    75    14    13   ar
    76    58    59   ar
    77    57    59   ar
    78    15    13   ar
    79    95    96    2
    80    11    10    2
    81    13    12    1
    82    62    63    2
    83    10     9    1
    84    12     9    1
    85     9     8    1
    86     4     3    2
    87     7     6    1
    88     7     1    1
    89     3     2    1
    90     6     5    1
    91     1     2    1
    92    75    73    1
    93    74    73    1
    94     2     5    1
    95    73    72    1
    96    72    69    1
    97    68    69    1
    98    69    70    1
    99    70    71    2
