@<TRIPOS>MOLECULE
tmp/4jyxG00.pdb
 87 81 0 0 0
SMALL
GASTEIGER

@<TRIPOS>ATOM
      1  N          5.7880   21.4210  -60.3440 N.3    77  ILE77      -0.1245
      2  CA         4.3990   21.1570  -59.9830 C.3    77  ILE77       0.1561
      3  C          3.5300   22.3740  -60.2640 C.2    77  ILE77       0.2260
      4  O          2.4480   22.2570  -60.8460 O.2    77  ILE77      -0.2867
      5  CB         4.2650   20.7820  -58.4970 C.3    77  ILE77       0.0252
      6  CG1        4.8650   19.3980  -58.2530 C.3    77  ILE77       0.0019
      7  CG2        2.8060   20.8140  -58.0660 C.3    77  ILE77       0.0019
      8  CD1        5.0080   19.0380  -56.7860 C.3    77  ILE77       0.0001
      9  N          3.1980   22.5860  -63.9900 N.3    80  ALA80      -0.1231
     10  CA         2.2190   21.6430  -64.5160 C.3    80  ALA80       0.1694
     11  C          0.7940   22.1520  -64.2690 C.2    80  ALA80       0.2592
     12  O         -0.0860   21.9600  -65.1060 O.2    80  ALA80      -0.2718
     13  CB         2.4150   20.2630  -63.9110 C.3    80  ALA80       0.0304
     14  N          0.5790   22.8190  -63.1360 N.am   81  THR81      -0.1953
     15  CA        -0.7460   23.3580  -62.7920 C.3    81  THR81       0.1897
     16  C         -1.1400   24.5120  -63.7210 C.2    81  THR81       0.2313
     17  O         -2.2840   24.5820  -64.1830 O.2    81  THR81      -0.2863
     18  CB        -0.8040   23.8100  -61.3090 C.3    81  THR81       0.1794
     19  OG1       -0.4160   22.7280  -60.4490 O.3    81  THR81      -0.2208
     20  CG2       -2.1920   24.2560  -60.9260 C.3    81  THR81       0.0378
     21  N         -2.1970   23.2510  -67.1980 N.3    84  HIS84      -0.1226
     22  CA        -3.5410   22.6870  -67.1500 C.3    84  HIS84       0.1752
     23  C         -4.5930   23.7570  -66.9280 C.2    84  HIS84       0.2596
     24  O         -5.6290   23.7440  -67.5860 O.2    84  HIS84      -0.2718
     25  CB        -3.6150   21.5840  -66.1010 C.3    84  HIS84       0.0759
     26  CG        -2.9300   20.3210  -66.5280 C.ar   84  HIS84       0.0818
     27  ND1       -3.2050   19.0970  -65.9660 N.ar   84  HIS84      -0.2268
     28  CD2       -2.0020   20.0920  -67.4880 C.ar   84  HIS84       0.1154
     29  CE1       -2.4630   18.1700  -66.5430 C.ar   84  HIS84       0.1986
     30  NE2       -1.7320   18.7460  -67.4790 N.ar   84  HIS84      -0.2212
     31  N         -4.3190   24.7030  -66.0350 N.am   85  ASP85      -0.1974
     32  CA        -5.2640   25.7920  -65.7850 C.3    85  ASP85       0.1709
     33  C         -5.5520   26.5880  -67.0630 C.2    85  ASP85       0.2293
     34  O         -6.7010   26.9020  -67.3580 O.2    85  ASP85      -0.2864
     35  CB        -4.7410   26.7290  -64.6910 C.3    85  ASP85       0.1436
     36  CG        -4.7970   26.1010  -63.3060 C.2    85  ASP85       0.3671
     37  OD1       -5.2940   24.9630  -63.1790 O.co2  85  ASP85      -0.2456
     38  OD2       -4.3380   26.7490  -62.3430 O.co2  85  ASP85      -0.2456
     39  N          1.6440   16.7580  -67.6320 N.3   114  ASP114     -0.1239
     40  CA         1.8360   15.4180  -67.0690 C.3   114  ASP114      0.1674
     41  C          3.3030   15.0210  -67.0230 C.2   114  ASP114      0.2266
     42  O          3.7660   14.4350  -66.0360 O.2   114  ASP114     -0.2867
     43  CB         1.0540   14.3720  -67.8680 C.3   114  ASP114      0.1410
     44  CG        -0.4560   14.5740  -67.7930 C.2   114  ASP114      0.3668
     45  OD1       -0.9260   15.4480  -67.0380 O.co2 114  ASP114     -0.2456
     46  OD2       -1.1860   13.8460  -68.4960 O.co2 114  ASP114     -0.2456
     47  N          4.9290   16.8620  -64.1510 N.3   117  TYR117     -0.1241
     48  CA         4.4700   16.2860  -62.8850 C.3   117  TYR117      0.1605
     49  C          5.2110   14.9890  -62.5470 C.2   117  TYR117      0.2264
     50  O          5.7280   14.8270  -61.4430 O.2   117  TYR117     -0.2867
     51  CB         2.9610   16.0190  -62.9360 C.3   117  TYR117      0.0534
     52  CG         2.4140   15.4160  -61.6640 C.ar  117  TYR117     -0.0201
     53  CD1        2.2650   16.1870  -60.5210 C.ar  117  TYR117     -0.0009
     54  CD2        2.0500   14.0750  -61.6020 C.ar  117  TYR117     -0.0009
     55  CE1        1.7670   15.6450  -59.3480 C.ar  117  TYR117      0.0417
     56  CE2        1.5510   13.5260  -60.4320 C.ar  117  TYR117      0.0417
     57  CZ         1.4150   14.3180  -59.3090 C.ar  117  TYR117      0.1957
     58  OH         0.9170   13.7910  -58.1410 O.3   117  TYR117     -0.2866
     59  N         -0.5460   17.6060  -53.9090 N.3   140  THR140     -0.1218
     60  CA        -0.9690   17.7010  -55.3130 C.3   140  THR140      0.1862
     61  C         -2.3760   17.1390  -55.5470 C.2   140  THR140      0.2287
     62  O         -3.0610   17.5610  -56.4750 O.2   140  THR140     -0.2866
     63  CB         0.0390   17.0510  -56.2920 C.3   140  THR140      0.1770
     64  OG1        0.2890   15.6850  -55.9350 O.3   140  THR140     -0.2211
     65  CG2        1.3440   17.8250  -56.2990 C.3   140  THR140      0.0375
     66  N         -4.5550   20.0620  -54.4830 N.3   143  ILE143     -0.1231
     67  CA        -4.5560   21.0470  -55.5650 C.3   143  ILE143      0.1692
     68  C         -5.5930   20.6420  -56.6170 C.2   143  ILE143      0.2591
     69  O         -6.4430   21.4500  -56.9950 O.2   143  ILE143     -0.2718
     70  CB        -3.1560   21.2200  -56.2050 C.3   143  ILE143      0.0266
     71  CG1       -2.1820   21.8590  -55.2040 C.3   143  ILE143      0.0019
     72  CG2       -3.2250   22.1010  -57.4510 C.3   143  ILE143      0.0020
     73  CD1       -0.7200   21.7070  -55.5730 C.3   143  ILE143      0.0001
     74  N         -5.5420   19.3830  -57.0510 N.am  144  ALA144     -0.1980
     75  CA        -6.4580   18.8770  -58.0810 C.3   144  ALA144      0.1597
     76  C         -7.9180   19.0100  -57.6550 C.2   144  ALA144      0.2287
     77  O         -8.7700   19.4200  -58.4420 O.2   144  ALA144     -0.2864
     78  CB        -6.1310   17.4270  -58.4150 C.3   144  ALA144      0.0319
     79  N         -8.9060   22.6530  -57.8470 N.3   147  GLU147     -0.1245
     80  CA        -9.2070   23.0630  -59.2230 C.3   147  GLU147      0.1567
     81  C        -10.6590   22.7560  -59.5860 C.2   147  GLU147      0.2260
     82  O        -11.3140   23.5600  -60.2380 O.2   147  GLU147     -0.2867
     83  CB        -8.2730   22.3800  -60.2280 C.3   147  GLU147      0.0388
     84  CG        -6.7950   22.7280  -60.0810 C.3   147  GLU147      0.1160
     85  CD        -6.4770   24.1750  -60.4020 C.2   147  GLU147      0.3649
     86  OE1       -7.3110   24.8550  -61.0430 O.co2 147  GLU147     -0.2457
     87  OE2       -5.3790   24.6310  -60.0120 O.co2 147  GLU147     -0.2457
@<TRIPOS>BOND
     1    46    44   ar
     2    43    44    1
     3    43    40    1
     4    44    45   ar
     5    39    40    1
     6    24    23    2
     7    28    30   ar
     8    28    26   ar
     9    30    29   ar
    10    34    33    2
    11    21    22    1
    12    22    23    1
    13    22    25    1
    14    40    41    1
    15    33    32    1
    16    41    42    2
    17    23    31   am
    18    29    27   ar
    19    26    25    1
    20    26    27   ar
    21    31    32    1
    22    32    35    1
    23    12    11    2
    24    35    36    1
    25    10    11    1
    26    10     9    1
    27    10    13    1
    28    11    14   am
    29    17    16    2
    30    47    48    1
    31    16    15    1
    32    36    37   ar
    33    36    38   ar
    34    14    15    1
    35    51    48    1
    36    51    52    1
    37    48    49    1
    38    15    18    1
    39    49    50    2
    40    52    54   ar
    41    52    53   ar
    42    54    56   ar
    43    18    20    1
    44    18    19    1
    45    86    85   ar
    46     4     3    2
    47    53    55   ar
    48    56    57   ar
    49    85    84    1
    50    85    87   ar
    51     1     2    1
    52     3     2    1
    53    82    81    2
    54    83    84    1
    55    83    80    1
    56     2     5    1
    57    81    80    1
    58    55    57   ar
    59    57    58    1
    60    80    79    1
    61     5     6    1
    62     5     7    1
    63    77    76    2
    64    78    75    1
    65     6     8    1
    66    75    76    1
    67    75    74    1
    68    72    70    1
    69    74    68   am
    70    69    68    2
    71    68    67    1
    72    62    61    2
    73    65    63    1
    74    63    64    1
    75    63    60    1
    76    70    67    1
    77    70    71    1
    78    73    71    1
    79    67    66    1
    80    61    60    1
    81    60    59    1
