@<TRIPOS>MOLECULE
tmp/4jyzA00.pdb
 183 179 0 0 0
SMALL
GASTEIGER

@<TRIPOS>ATOM
      1  N         16.8920   39.1050  -21.2950 N.3    25  PHE25      -0.1228
      2  CA        17.7780   39.6200  -20.2600 C.3    25  PHE25       0.1721
      3  C         17.4680   41.1160  -20.3000 C.2    25  PHE25       0.2437
      4  O         17.7260   41.7660  -21.3040 O.2    25  PHE25      -0.2733
      5  CB        19.2320   39.3780  -20.6080 C.3    25  PHE25       0.0547
      6  CG        20.1760   39.9140  -19.5820 C.ar   25  PHE25      -0.0202
      7  CD1       20.0430   39.5410  -18.2450 C.ar   25  PHE25      -0.0042
      8  CD2       21.1670   40.8190  -19.9380 C.ar   25  PHE25      -0.0042
      9  CE1       20.8790   40.0630  -17.2770 C.ar   25  PHE25      -0.0003
     10  CE2       22.0140   41.3490  -18.9720 C.ar   25  PHE25      -0.0003
     11  CZ        21.8680   40.9710  -17.6350 C.ar   25  PHE25      -0.0000
     12  N         16.9130   41.6770  -19.2120 N.am   26  PRO26      -0.2718
     13  CA        16.5650   43.1010  -19.1870 C.3    26  PRO26       0.1520
     14  C         17.3510   43.9760  -18.2110 C.2    26  PRO26       0.2440
     15  O         16.8140   44.3820  -17.1840 O.2    26  PRO26      -0.2731
     16  CB        15.1150   43.0440  -18.7830 C.3    26  PRO26       0.0310
     17  CG        15.1910   42.0040  -17.6220 C.3    26  PRO26       0.0237
     18  CD        16.3110   41.0020  -18.0460 C.3    26  PRO26       0.0939
     19  N         18.6060   44.3090  -18.5310 N.am   27  PRO27      -0.2716
     20  CA        19.4390   45.1440  -17.6530 C.3    27  PRO27       0.1536
     21  C         19.1580   46.6380  -17.7680 C.2    27  PRO27       0.2598
     22  O         19.0430   47.1490  -18.8790 O.2    27  PRO27      -0.2715
     23  CB        20.8460   44.8350  -18.1430 C.3    27  PRO27       0.0310
     24  CG        20.6330   44.7470  -19.6260 C.3    27  PRO27       0.0237
     25  CD        19.3550   43.9200  -19.7420 C.3    27  PRO27       0.0939
     26  N         19.0430   47.3490  -16.6430 N.am   28  GLU28      -0.1978
     27  CA        18.8540   48.8040  -16.7240 C.3    28  GLU28       0.1602
     28  C         20.2350   49.3880  -17.0010 C.2    28  GLU28       0.2287
     29  O         21.2120   49.0360  -16.3410 O.2    28  GLU28      -0.2864
     30  CB        18.3110   49.4100  -15.4170 C.3    28  GLU28       0.0415
     31  CG        18.1780   50.9530  -15.4920 C.3    28  GLU28       0.1163
     32  CD        17.6750   51.6360  -14.2070 C.2    28  GLU28       0.3649
     33  OE1       17.8060   51.0700  -13.1030 O.co2  28  GLU28      -0.2457
     34  OE2       17.1660   52.7710  -14.3060 O.co2  28  GLU28      -0.2457
     35  N         22.4190   51.5150  -16.0810 N.3    30  ASN30      -0.1240
     36  CA        22.7820   52.4530  -15.0220 C.3    30  ASN30       0.1653
     37  C         24.0650   52.0430  -14.3130 C.2    30  ASN30       0.2266
     38  O         24.2900   52.4220  -13.1640 O.2    30  ASN30      -0.2867
     39  CB        21.6290   52.5680  -14.0090 C.3    30  ASN30       0.1155
     40  CG        21.4440   51.3070  -13.1670 C.2    30  ASN30       0.2627
     41  OD1       21.5280   50.1840  -13.6620 O.2    30  ASN30      -0.2716
     42  ND2       21.1720   51.4960  -11.8950 N.am   30  ASN30      -0.0877
     43  N         27.7560   42.7390  -13.6300 N.3    34  HIS34      -0.1241
     44  CA        28.6140   41.9940  -12.7180 C.3    34  HIS34       0.1621
     45  C         28.3240   40.4850  -12.7940 C.2    34  HIS34       0.2264
     46  O         27.3940   40.0380  -13.4820 O.2    34  HIS34      -0.2867
     47  CB        28.4500   42.4910  -11.2810 C.3    34  HIS34       0.0745
     48  CG        27.0290   42.5520  -10.8120 C.ar   34  HIS34       0.0817
     49  ND1       26.1820   41.4660  -10.8540 N.ar   34  HIS34      -0.2268
     50  CD2       26.3150   43.5620  -10.2650 C.ar   34  HIS34       0.1154
     51  CE1       25.0070   41.8060  -10.3520 C.ar   34  HIS34       0.1986
     52  NE2       25.0620   43.0720   -9.9870 N.ar   34  HIS34      -0.2212
     53  N         26.8550   38.7030  -11.0100 N.3    36  GLY36      -0.1210
     54  CA        25.4680   38.4050  -10.6810 C.3    36  GLY36       0.1956
     55  C         24.6340   38.3910  -11.9480 C.2    36  GLY36       0.2611
     56  O         23.8520   37.4690  -12.1760 O.2    36  GLY36      -0.2717
     57  N         24.8020   39.4180  -12.7800 N.am   37  HIS37      -0.1975
     58  CA        24.0820   39.5030  -14.0390 C.3    37  HIS37       0.1656
     59  C         24.4170   38.2820  -14.8850 C.2    37  HIS37       0.2291
     60  O         23.5370   37.6840  -15.4950 O.2    37  HIS37      -0.2864
     61  CB        24.4670   40.7690  -14.7990 C.3    37  HIS37       0.0771
     62  CG        24.0640   42.0370  -14.1110 C.ar   37  HIS37       0.0820
     63  ND1       24.9790   42.9290  -13.5920 N.ar   37  HIS37      -0.2267
     64  CD2       22.8390   42.5560  -13.8440 C.ar   37  HIS37       0.1154
     65  CE1       24.3360   43.9370  -13.0340 C.ar   37  HIS37       0.1986
     66  NE2       23.0380   43.7360  -13.1720 N.ar   37  HIS37      -0.2212
     67  N         24.8650   35.3890  -14.0800 N.3    39  LYS39      -0.1231
     68  CA        24.0300   34.2660  -13.6920 C.3    39  LYS39       0.1693
     69  C         22.6950   34.3690  -14.4130 C.2    39  LYS39       0.2592
     70  O         22.1610   33.3720  -14.8960 O.2    39  LYS39      -0.2718
     71  CB        23.7930   34.2570  -12.1820 C.3    39  LYS39       0.0285
     72  CG        22.8270   33.1860  -11.7360 C.3    39  LYS39       0.0035
     73  CD        22.5830   33.2360  -10.2410 C.3    39  LYS39       0.0206
     74  CE        21.6640   32.1230   -9.8000 C.3    39  LYS39       0.1093
     75  NZ        21.3780   32.2110   -8.3450 N.3    39  LYS39      -0.1314
     76  N         22.1710   35.5850  -14.4910 N.am   40  SER40      -0.1952
     77  CA        20.8880   35.8330  -15.1330 C.3    40  SER40       0.1924
     78  C         20.9950   35.6770  -16.6510 C.2    40  SER40       0.2314
     79  O         20.0340   35.2940  -17.3180 O.2    40  SER40      -0.2863
     80  CB        20.4100   37.2450  -14.7900 C.3    40  SER40       0.2116
     81  OG        19.0860   37.4750  -15.2400 O.3    40  SER40      -0.2180
     82  N         16.0000   48.0620  -19.9160 N.3    60  ASP60      -0.1239
     83  CA        14.8350   48.5340  -19.1960 C.3    60  ASP60       0.1674
     84  C         15.1870   49.9700  -18.8290 C.2    60  ASP60       0.2266
     85  O         15.5290   50.2650  -17.6820 O.2    60  ASP60      -0.2867
     86  CB        14.6270   47.6790  -17.9440 C.3    60  ASP60       0.1410
     87  CG        13.1980   47.2080  -17.8030 C.2    60  ASP60       0.3668
     88  OD1       12.2970   47.9770  -18.2120 O.co2  60  ASP60      -0.2456
     89  OD2       12.9740   46.0910  -17.2790 O.co2  60  ASP60      -0.2456
     90  N         11.9910   35.7750  -16.4890 N.3   222  LEU222     -0.1231
     91  CA        12.8170   35.3770  -15.3540 C.3   222  LEU222      0.1693
     92  C         13.5800   36.4740  -14.5950 C.2   222  LEU222      0.2592
     93  O         14.4860   37.1070  -15.1330 O.2   222  LEU222     -0.2718
     94  CB        13.7990   34.2870  -15.8100 C.3   222  LEU222      0.0284
     95  CG        13.1630   33.1500  -16.6360 C.3   222  LEU222      0.0019
     96  CD1       14.1600   32.0200  -16.8050 C.3   222  LEU222      0.0001
     97  CD2       11.9180   32.6220  -15.9450 C.3   222  LEU222      0.0001
     98  N         13.2180   36.6630  -13.3280 N.am  223  CYS223     -0.1956
     99  CA        13.8630   37.6510  -12.4780 C.3   223  CYS223      0.1843
    100  C         14.2120   37.0990  -11.0760 C.2   223  CYS223      0.2626
    101  O         14.0660   35.8990  -10.7940 O.2   223  CYS223     -0.2714
    102  CB        12.9660   38.8690  -12.3270 C.3   223  CYS223      0.0997
    103  SG        11.4090   38.4570  -11.5180 S.3   223  CYS223     -0.0797
    104  N         14.6700   37.9860  -10.1980 N.am  224  THR224     -0.1950
    105  CA        15.0570   37.5840   -8.8560 C.3   224  THR224      0.1897
    106  C         13.9180   37.6380   -7.8480 C.2   224  THR224      0.2313
    107  O         12.8500   38.1950   -8.1040 O.2   224  THR224     -0.2863
    108  CB        16.2290   38.4370   -8.3540 C.3   224  THR224      0.1794
    109  OG1       15.9550   39.8130   -8.6250 O.3   224  THR224     -0.2208
    110  CG2       17.5270   38.0520   -9.0700 C.3   224  THR224      0.0378
    111  N         13.3470   39.3380   -5.1190 N.3   226  GLU226     -0.1231
    112  CA        12.7680   40.5850   -4.6330 C.3   226  GLU226      0.1699
    113  C         11.5820   41.0850   -5.4450 C.2   226  GLU226      0.2592
    114  O         10.9840   42.1090   -5.1010 O.2   226  GLU226     -0.2718
    115  CB        13.8260   41.7000   -4.5140 C.3   226  GLU226      0.0402
    116  CG        14.2800   42.3760   -5.8040 C.3   226  GLU226      0.1161
    117  CD        15.5330   41.7390   -6.3810 C.2   226  GLU226      0.3649
    118  OE1       16.2610   42.4240   -7.1380 O.co2 226  GLU226     -0.2457
    119  OE2       15.7900   40.5450   -6.0780 O.co2 226  GLU226     -0.2457
    120  N         11.2290   40.3630   -6.5040 N.am  227  PHE227     -0.1976
    121  CA        10.1020   40.7540   -7.3510 C.3   227  PHE227      0.1639
    122  C          8.8780   39.8650   -7.2080 C.2   227  PHE227      0.2290
    123  O          7.9030   40.0350   -7.9370 O.2   227  PHE227     -0.2864
    124  CB        10.5200   40.7830   -8.8180 C.3   227  PHE227      0.0560
    125  CG        11.4080   41.9250   -9.1640 C.ar  227  PHE227     -0.0200
    126  CD1       10.8860   43.1940   -9.3400 C.ar  227  PHE227     -0.0042
    127  CD2       12.7740   41.7350   -9.3050 C.ar  227  PHE227     -0.0042
    128  CE1       11.7150   44.2590   -9.6540 C.ar  227  PHE227     -0.0003
    129  CE2       13.6090   42.7940   -9.6170 C.ar  227  PHE227     -0.0003
    130  CZ        13.0810   44.0570   -9.7930 C.ar  227  PHE227     -0.0000
    131  N         14.0070   33.5620   -9.1290 N.3   252  PHE252     -0.1241
    132  CA        15.0640   32.7460   -8.5610 C.3   252  PHE252      0.1605
    133  C         15.9230   33.6320   -7.6570 C.2   252  PHE252      0.2264
    134  O         15.9220   34.8490   -7.8030 O.2   252  PHE252     -0.2867
    135  CB        15.9210   32.1400   -9.6660 C.3   252  PHE252      0.0534
    136  CG        16.6120   33.1520  -10.5120 C.ar  252  PHE252     -0.0203
    137  CD1       15.9400   33.7850  -11.5450 C.ar  252  PHE252     -0.0042
    138  CD2       17.9370   33.4950  -10.2600 C.ar  252  PHE252     -0.0042
    139  CE1       16.5720   34.7510  -12.3260 C.ar  252  PHE252     -0.0003
    140  CE2       18.5830   34.4630  -11.0330 C.ar  252  PHE252     -0.0003
    141  CZ        17.8950   35.0920  -12.0690 C.ar  252  PHE252     -0.0000
    142  N         19.0750   35.6010   -6.0550 N.3   254  ARG254     -0.1231
    143  CA        20.2230   36.2800   -6.6460 C.3   254  ARG254      0.1694
    144  C         21.5310   35.6920   -6.1280 C.2   254  ARG254      0.2591
    145  O         21.5710   35.0640   -5.0660 O.2   254  ARG254     -0.2718
    146  CB        20.1910   37.7900   -6.3500 C.3   254  ARG254      0.0321
    147  CG        20.1860   38.1420   -4.8630 C.3   254  ARG254      0.0489
    148  CD        20.9660   39.4330   -4.5180 C.3   254  ARG254      0.2205
    149  NE        20.7770   40.5060   -5.5000 N.pl3 254  ARG254     -0.0865
    150  CZ        19.5970   40.8990   -5.9760 C.cat 254  ARG254      0.5346
    151  NH1       18.4840   40.3030   -5.5610 N.pl3 254  ARG254      0.1354
    152  NH2       19.5330   41.8900   -6.8660 N.pl3 254  ARG254      0.1354
    153  N         22.5970   35.8820   -6.8950 N.am  255  LEU255     -0.1980
    154  CA        23.9100   35.4010   -6.5000 C.3   255  LEU255      0.1596
    155  C         24.5560   36.4160   -5.5700 C.2   255  LEU255      0.2287
    156  O         24.3820   37.6250   -5.7300 O.2   255  LEU255     -0.2864
    157  CB        24.8180   35.2170   -7.7220 C.3   255  LEU255      0.0297
    158  CG        26.3330   35.1650   -7.4540 C.3   255  LEU255      0.0022
    159  CD1       26.6870   33.8840   -6.7370 C.3   255  LEU255      0.0001
    160  CD2       27.1090   35.2480   -8.7610 C.3   255  LEU255      0.0001
    161  N         27.6850   43.1590   -4.5510 N.3   262  MET262     -0.1230
    162  CA        27.0070   42.9050   -5.8120 C.3   262  MET262      0.1702
    163  C         26.0990   44.0510   -6.2370 C.2   262  MET262      0.2593
    164  O         25.7050   44.1360   -7.3880 O.2   262  MET262     -0.2718
    165  CB        26.1940   41.6040   -5.6840 C.3   262  MET262      0.0401
    166  CG        26.1120   40.7690   -6.9550 C.3   262  MET262      0.0596
    167  SD        27.7420   40.3840   -7.6100 S.3   262  MET262     -0.1393
    168  CE        28.2550   39.0800   -6.4980 C.3   262  MET262      0.0692
    169  N         25.7660   44.9220   -5.2960 N.am  263  SER263     -0.1938
    170  CA        24.8960   46.0710   -5.5330 C.3   263  SER263      0.2055
    171  C         25.4670   47.0700   -6.5280 C.2   263  SER263      0.2642
    172  O         26.5980   47.5180   -6.3810 O.2   263  SER263     -0.2714
    173  CB        24.6320   46.7760   -4.2020 C.3   263  SER263      0.2130
    174  OG        24.1970   48.1070   -4.3960 O.3   263  SER263     -0.2179
    175  N         24.6840   47.4250   -7.5420 N.am  264  LYS264     -0.1977
    176  CA        25.1420   48.3890   -8.5420 C.3   264  LYS264      0.1596
    177  C         25.5630   49.7060   -7.8810 C.2   264  LYS264      0.2287
    178  O         26.6240   50.2580   -8.1910 O.2   264  LYS264     -0.2864
    179  CB        24.0310   48.6690   -9.5550 C.3   264  LYS264      0.0298
    180  CG        23.8620   47.6140  -10.6370 C.3   264  LYS264      0.0038
    181  CD        24.4590   48.0600  -11.9690 C.3   264  LYS264      0.0206
    182  CE        23.7350   47.3760  -13.1160 C.3   264  LYS264      0.1093
    183  NZ        22.2500   47.6060  -13.0400 N.3   264  LYS264     -0.1314
@<TRIPOS>BOND
     1     4     3    2
     2     1     2    1
     3     5     2    1
     4     5     6    1
     5     3     2    1
     6     3    12   am
     7     8     6   ar
     8     8    10   ar
     9    82    83    1
    10    25    24    1
    11    25    19    1
    12    24    23    1
    13     6     7   ar
    14    12    13    1
    15    12    18    1
    16    83    84    1
    17    83    86    1
    18    13    16    1
    19    13    14    1
    20    10    11   ar
    21    22    21    2
    22    84    85    2
    23    16    17    1
    24    19    14   am
    25    19    20    1
    26     7     9   ar
    27    88    87   ar
    28    14    15    2
    29    23    20    1
    30    18    17    1
    31    86    87    1
    32    87    89   ar
    33    21    20    1
    34    21    26   am
    35    11     9   ar
    36    79    78    2
    37    28    27    1
    38    28    29    2
    39    96    95    1
    40    27    26    1
    41    27    30    1
    42    78    77    1
    43    95    97    1
    44    95    94    1
    45    90    91    1
    46    35    36    1
    47    94    91    1
    48    60    59    2
    49    31    30    1
    50    31    32    1
    51    91    92    1
    52    81    80    1
    53    93    92    2
    54    77    80    1
    55    77    76    1
    56    36    37    1
    57    36    39    1
    58    70    69    2
    59    59    58    1
    60    61    62    1
    61    61    58    1
    62    92    98   am
    63    76    69   am
    64    69    68    1
    65    37    38    2
    66    34    32   ar
    67    32    33   ar
    68    62    64   ar
    69    62    63   ar
    70    67    68    1
    71    58    57    1
    72    39    40    1
    73    64    66   ar
    74    68    71    1
    75    41    40    2
    76    43    44    1
    77    63    65   ar
    78    46    45    2
    79    98    99    1
    80    66    65   ar
    81    40    42   am
    82   182   183    1
    83   182   181    1
    84    45    44    1
    85    57    55   am
    86    44    47    1
    87    99   102    1
    88    99   100    1
    89   102   103    1
    90   139   141   ar
    91   139   137   ar
    92    71    72    1
    93    56    55    2
    94   141   140   ar
    95   181   180    1
    96    55    54    1
    97    72    73    1
    98   137   136   ar
    99    47    48    1
   100   100   101    2
   101   100   104   am
   102   140   138   ar
   103    53    54    1
   104    49    48   ar
   105    49    51   ar
   106    48    50   ar
   107   180   179    1
   108   136   138   ar
   109   136   135    1
   110    51    52   ar
   111    50    52   ar
   112    73    74    1
   113   104   105    1
   114    74    75    1
   115   130   128   ar
   116   130   129   ar
   117   135   132    1
   118   128   126   ar
   119   129   127   ar
   120   179   176    1
   121   126   125   ar
   122   127   125   ar
   123   125   124    1
   124   131   132    1
   125   110   108    1
   126   105   108    1
   127   105   106    1
   128   124   121    1
   129   160   158    1
   130   109   108    1
   131   132   133    1
   132   176   177    1
   133   176   175    1
   134   178   177    2
   135   107   106    2
   136   123   122    2
   137   134   133    2
   138   157   158    1
   139   157   154    1
   140   167   166    1
   141   167   168    1
   142   175   171   am
   143   158   159    1
   144   164   163    2
   145   121   122    1
   146   121   120    1
   147   118   117   ar
   148   166   165    1
   149   153   154    1
   150   153   144   am
   151   152   150    1
   152   143   146    1
   153   143   144    1
   154   143   142    1
   155   171   172    2
   156   171   170    1
   157   120   113   am
   158   154   155    1
   159   117   119   ar
   160   117   116    1
   161   146   147    1
   162   163   162    1
   163   163   169   am
   164   144   145    2
   165   150   151    1
   166   150   149    2
   167   162   165    1
   168   162   161    1
   169   116   115    1
   170   156   155    2
   171   170   169    1
   172   170   173    1
   173   149   148    1
   174   113   114    2
   175   113   112    1
   176   111   112    1
   177   147   148    1
   178   112   115    1
   179   174   173    1
