@<TRIPOS>MOLECULE
tmp/4jz0A06.pdb
 153 147 0 0 0
SMALL
GASTEIGER

@<TRIPOS>ATOM
      1  N         21.5490   50.1860   36.4470 N.3   155  PHE155     -0.1241
      2  CA        20.4130   49.2880   36.4670 C.3   155  PHE155      0.1605
      3  C         20.0620   48.7900   35.0540 C.2   155  PHE155      0.2264
      4  O         20.0280   49.5730   34.0840 O.2   155  PHE155     -0.2867
      5  CB        19.1940   50.0040   37.1170 C.3   155  PHE155      0.0534
      6  CG        17.8910   49.2020   37.0330 C.ar  155  PHE155     -0.0203
      7  CD1       17.7890   47.9830   37.6880 C.ar  155  PHE155     -0.0042
      8  CD2       16.7480   49.7170   36.3770 C.ar  155  PHE155     -0.0042
      9  CE1       16.5950   47.2210   37.6660 C.ar  155  PHE155     -0.0003
     10  CE2       15.5760   48.9740   36.3540 C.ar  155  PHE155     -0.0003
     11  CZ        15.5050   47.7110   36.9970 C.ar  155  PHE155     -0.0000
     12  N         32.3740   40.5490   36.8750 N.3   180  TYR180     -0.1241
     13  CA        31.7910   39.5350   37.7820 C.3   180  TYR180      0.1605
     14  C         32.7640   38.3940   38.1170 C.2   180  TYR180      0.2264
     15  O         32.3360   37.3190   38.5230 O.2   180  TYR180     -0.2867
     16  CB        30.4850   38.9600   37.2030 C.3   180  TYR180      0.0534
     17  CG        29.4260   40.0300   37.1420 C.ar  180  TYR180     -0.0201
     18  CD1       29.2430   40.7970   35.9950 C.ar  180  TYR180     -0.0009
     19  CD2       28.6680   40.3400   38.2840 C.ar  180  TYR180     -0.0009
     20  CE1       28.2690   41.8510   35.9670 C.ar  180  TYR180      0.0417
     21  CE2       27.7000   41.3830   38.2730 C.ar  180  TYR180      0.0417
     22  CZ        27.5090   42.1130   37.1090 C.ar  180  TYR180      0.1957
     23  OH        26.5580   43.0900   37.1300 O.3   180  TYR180     -0.2866
     24  N         12.2430   42.5000   51.3310 N.3   323  HIS323     -0.1241
     25  CA        11.4980   41.5300   50.5180 C.3   323  HIS323      0.1621
     26  C         11.8540   40.0570   50.8470 C.2   323  HIS323      0.2264
     27  O         12.8500   39.7740   51.5220 O.2   323  HIS323     -0.2867
     28  CB        11.6150   41.8480   49.0030 C.3   323  HIS323      0.0745
     29  CG        12.9560   41.5530   48.3500 C.ar  323  HIS323      0.0817
     30  ND1       13.1100   40.4700   47.5120 N.ar  323  HIS323     -0.2268
     31  CD2       14.1000   42.2840   48.2210 C.ar  323  HIS323      0.1154
     32  CE1       14.3120   40.4930   46.9640 C.ar  323  HIS323      0.1986
     33  NE2       14.9430   41.5750   47.3830 N.ar  323  HIS323     -0.2212
     34  N         20.3240   37.5260   48.3650 N.3   333  ASP333     -0.1239
     35  CA        19.3070   38.5200   47.9560 C.3   333  ASP333      0.1674
     36  C         17.9790   37.7810   47.7830 C.2   333  ASP333      0.2266
     37  O         17.7960   37.1100   46.7710 O.2   333  ASP333     -0.2867
     38  CB        19.7780   39.2050   46.6640 C.3   333  ASP333      0.1410
     39  CG        18.7340   40.1260   46.1020 C.2   333  ASP333      0.3668
     40  OD1       17.8400   40.4250   46.9140 O.co2 333  ASP333     -0.2456
     41  OD2       18.7380   40.4950   44.8930 O.co2 333  ASP333     -0.2456
     42  N          9.2970   42.1010   45.0330 N.3   370  GLU370     -0.1231
     43  CA        10.2780   43.1500   44.8760 C.3   370  GLU370      0.1699
     44  C         11.0550   42.9690   43.5800 C.2   370  GLU370      0.2592
     45  O         11.3740   43.9740   42.8970 O.2   370  GLU370     -0.2718
     46  CB        11.2330   43.1430   46.0380 C.3   370  GLU370      0.0402
     47  CG        12.2130   44.3700   46.0270 C.3   370  GLU370      0.1161
     48  CD        13.4810   44.1830   45.2330 C.2   370  GLU370      0.3649
     49  OE1       13.7510   43.0680   44.7080 O.co2 370  GLU370     -0.2457
     50  OE2       14.2390   45.1800   45.1430 O.co2 370  GLU370     -0.2457
     51  N         11.4020   41.7200   43.2480 N.am  371  GLU371     -0.1979
     52  CA        12.3000   41.4760   42.0920 C.3   371  GLU371      0.1602
     53  C         11.6440   41.8320   40.7680 C.2   371  GLU371      0.2287
     54  O         12.3290   42.0070   39.7360 O.2   371  GLU371     -0.2864
     55  CB        12.7990   40.0110   42.0770 C.3   371  GLU371      0.0415
     56  CG        13.7170   39.6800   43.3020 C.3   371  GLU371      0.1163
     57  CD        15.1430   40.3480   43.2120 C.2   371  GLU371      0.3649
     58  OE1       15.3670   41.1070   42.2630 O.co2 371  GLU371     -0.2457
     59  OE2       16.0670   40.1400   44.0590 O.co2 371  GLU371     -0.2457
     60  N          9.5260   46.1840   42.6970 N.3   374  LEU374     -0.1245
     61  CA         9.1570   46.7640   44.0060 C.3   374  LEU374      0.1561
     62  C          7.6360   46.7270   44.1760 C.2   374  LEU374      0.2260
     63  O          7.0470   47.6430   44.7650 O.2   374  LEU374     -0.2867
     64  CB         9.6960   48.2260   44.2080 C.3   374  LEU374      0.0270
     65  CG        11.0980   48.5170   43.6100 C.3   374  LEU374      0.0019
     66  CD1       11.4730   50.0380   43.7780 C.3   374  LEU374      0.0001
     67  CD2       12.1850   47.6380   44.2420 C.3   374  LEU374      0.0001
     68  N         16.9220   44.4930   52.9310 N.3   399  ASP399     -0.1225
     69  CA        17.3020   43.4980   51.9300 C.3   399  ASP399      0.1805
     70  C         18.6900   42.9250   52.3020 C.2   399  ASP399      0.2598
     71  O         19.0450   42.9430   53.4680 O.2   399  ASP399     -0.2718
     72  CB        17.2900   44.1350   50.5390 C.3   399  ASP399      0.1424
     73  CG        17.1850   43.1130   49.4190 C.2   399  ASP399      0.3668
     74  OD1       17.1570   41.9160   49.7180 O.co2 399  ASP399     -0.2456
     75  OD2       17.1840   43.4950   48.2390 O.co2 399  ASP399     -0.2456
     76  N         19.4230   42.3740   51.3260 N.am  400  SER400     -0.1952
     77  CA        20.7170   41.6970   51.5420 C.3   400  SER400      0.1924
     78  C         21.5380   42.3300   52.6890 C.2   400  SER400      0.2314
     79  O         21.8310   43.5460   52.6680 O.2   400  SER400     -0.2863
     80  CB        21.5180   41.7240   50.2460 C.3   400  SER400      0.2116
     81  OG        20.7010   41.1990   49.2210 O.3   400  SER400     -0.2180
     82  N         15.8970   51.1210   43.3120 N.3   464  GLY464     -0.1210
     83  CA        16.1130   49.7060   43.0070 C.3   464  GLY464      0.1956
     84  C         15.9410   48.8650   44.2570 C.2   464  GLY464      0.2611
     85  O         16.4530   47.7450   44.3620 O.2   464  GLY464     -0.2717
     86  N         15.2000   49.4070   45.2300 N.am  465  ASN465     -0.1974
     87  CA        14.8340   48.5910   46.4250 C.3   465  ASN465      0.1688
     88  C         13.5890   49.1440   47.1100 C.2   465  ASN465      0.2292
     89  O         13.1110   50.2020   46.7190 O.2   465  ASN465     -0.2864
     90  CB        16.0040   48.3980   47.4050 C.3   465  ASN465      0.1181
     91  CG        16.0490   46.9660   47.9230 C.2   465  ASN465      0.2629
     92  OD1       15.1460   46.5240   48.6810 O.2   465  ASN465     -0.2716
     93  ND2       17.0520   46.1930   47.4490 N.am  465  ASN465     -0.0877
     94  N         24.2310   47.7120   55.2590 N.3   482  ARG482     -0.1245
     95  CA        24.6330   46.3220   55.0190 C.3   482  ARG482      0.1563
     96  C         26.1490   46.2340   55.0920 C.2   482  ARG482      0.2260
     97  O         26.8270   47.2600   55.0650 O.2   482  ARG482     -0.2867
     98  CB        24.1260   45.8510   53.6190 C.3   482  ARG482      0.0307
     99  CG        24.7460   46.5700   52.4110 C.3   482  ARG482      0.0489
    100  CD        24.4260   45.7550   51.1290 C.3   482  ARG482      0.2205
    101  NE        22.9670   45.5870   50.9560 N.pl3 482  ARG482     -0.0865
    102  CZ        22.3400   45.5920   49.7810 C.cat 482  ARG482      0.5346
    103  NH1       23.0170   45.7700   48.6440 N.pl3 482  ARG482      0.1354
    104  NH2       21.0290   45.4430   49.7410 N.pl3 482  ARG482      0.1354
    105  N         28.5250   45.0200   42.3200 N.3   492  GLY492     -0.1210
    106  CA        27.8580   44.2870   43.4240 C.3   492  GLY492      0.1956
    107  C         28.6680   43.0530   43.8430 C.2   492  GLY492      0.2611
    108  O         29.8590   43.1760   44.1500 O.2   492  GLY492     -0.2717
    109  N         28.0590   41.8550   43.8360 N.am  493  TYR493     -0.1976
    110  CA        28.8020   40.5880   44.1210 C.3   493  TYR493      0.1639
    111  C         28.5840   39.6250   42.9350 C.2   493  TYR493      0.2290
    112  O         27.5580   39.7090   42.2860 O.2   493  TYR493     -0.2864
    113  CB        28.3450   39.9560   45.4450 C.3   493  TYR493      0.0560
    114  CG        26.8540   39.6710   45.5330 C.ar  493  TYR493     -0.0198
    115  CD1       26.3560   38.3890   45.2680 C.ar  493  TYR493     -0.0009
    116  CD2       25.9350   40.6890   45.8400 C.ar  493  TYR493     -0.0009
    117  CE1       24.9700   38.1170   45.3390 C.ar  493  TYR493      0.0417
    118  CE2       24.5410   40.4190   45.9160 C.ar  493  TYR493      0.0417
    119  CZ        24.0860   39.1300   45.6800 C.ar  493  TYR493      0.1957
    120  OH        22.7220   38.8440   45.7210 O.3   493  TYR493     -0.2866
    121  N         25.2360   37.3220   42.0750 N.3   496  TYR496     -0.1241
    122  CA        23.9490   38.0040   42.1510 C.3   496  TYR496      0.1605
    123  C         22.9220   37.4910   41.1240 C.2   496  TYR496      0.2264
    124  O         23.1830   37.5080   39.9130 O.2   496  TYR496     -0.2867
    125  CB        24.2550   39.4870   41.9500 C.3   496  TYR496      0.0534
    126  CG        23.0710   40.4140   41.7710 C.ar  496  TYR496     -0.0201
    127  CD1       22.2160   40.7350   42.8580 C.ar  496  TYR496     -0.0009
    128  CD2       22.8430   41.0330   40.5380 C.ar  496  TYR496     -0.0009
    129  CE1       21.1350   41.6550   42.6740 C.ar  496  TYR496      0.0417
    130  CE2       21.7820   41.9730   40.3650 C.ar  496  TYR496      0.0417
    131  CZ        20.9600   42.2570   41.4230 C.ar  496  TYR496      0.1957
    132  OH        19.9380   43.1380   41.1740 O.3   496  TYR496     -0.2866
    133  N         18.7940   53.8330   37.7470 N.3   641  LYS641     -0.1231
    134  CA        17.8420   53.7600   38.8820 C.3   641  LYS641      0.1693
    135  C         18.5470   53.4590   40.2230 C.2   641  LYS641      0.2592
    136  O         18.0560   53.8460   41.2770 O.2   641  LYS641     -0.2718
    137  CB        16.8160   52.6470   38.5550 C.3   641  LYS641      0.0285
    138  CG        15.6820   52.5780   39.5960 C.3   641  LYS641      0.0035
    139  CD        14.6270   51.5050   39.1680 C.3   641  LYS641      0.0206
    140  CE        13.3550   51.6380   40.0320 C.3   641  LYS641      0.1093
    141  NZ        12.3930   50.4910   39.7170 N.3   641  LYS641     -0.1314
    142  N         19.6710   52.7200   40.2080 N.am  642  TYR642     -0.1976
    143  CA        20.3450   52.4120   41.4680 C.3   642  TYR642      0.1639
    144  C         20.9480   53.6240   42.1520 C.2   642  TYR642      0.2290
    145  O         21.0660   53.6140   43.3540 O.2   642  TYR642     -0.2864
    146  CB        21.4810   51.3970   41.3160 C.3   642  TYR642      0.0560
    147  CG        21.0170   49.9830   40.8940 C.ar  642  TYR642     -0.0198
    148  CD1       19.8790   49.3900   41.4430 C.ar  642  TYR642     -0.0009
    149  CD2       21.7890   49.2460   39.9880 C.ar  642  TYR642     -0.0009
    150  CE1       19.4940   48.0860   41.0660 C.ar  642  TYR642      0.0417
    151  CE2       21.4350   47.9500   39.6080 C.ar  642  TYR642      0.0417
    152  CZ        20.2740   47.3860   40.1410 C.ar  642  TYR642      0.1957
    153  OH        19.9150   46.1200   39.7300 O.3   642  TYR642     -0.2866
@<TRIPOS>BOND
     1     4     3    2
     2     3     2    1
     3    20    18   ar
     4    20    22   ar
     5    18    17   ar
     6    10     8   ar
     7    10    11   ar
     8     8     6   ar
     9     1     2    1
    10     2     5    1
    11    12    13    1
    12    11     9   ar
    13     6     5    1
    14     6     7   ar
    15    22    23    1
    16    22    21   ar
    17    17    16    1
    18    17    19   ar
    19    16    13    1
    20     9     7   ar
    21   133   134    1
    22    13    14    1
    23    14    15    2
    24    21    19   ar
    25   137   134    1
    26   137   138    1
    27   134   135    1
    28   139   138    1
    29   139   140    1
    30   151   149   ar
    31   151   152   ar
    32   141   140    1
    33   153   152    1
    34    54    53    2
    35   124   123    2
    36   149   147   ar
    37   152   150   ar
    38   142   135   am
    39   142   143    1
    40   135   136    2
    41   130   128   ar
    42   130   131   ar
    43   128   126   ar
    44    53    52    1
    45   147   146    1
    46   147   148   ar
    47   150   148   ar
    48   123   122    1
    49   132   131    1
    50   146   143    1
    51   131   129   ar
    52   143   144    1
    53   126   125    1
    54   126   127   ar
    55   125   122    1
    56   121   122    1
    57    55    52    1
    58    55    56    1
    59    52    51    1
    60   144   145    2
    61    58    57   ar
    62   112   111    2
    63   105   106    1
    64   129   127   ar
    65    60    61    1
    66    45    44    2
    67   111   110    1
    68    83    82    1
    69    83    84    1
    70    57    56    1
    71    57    59   ar
    72    51    44   am
    73   106   107    1
    74    44    43    1
    75    65    66    1
    76    65    64    1
    77    65    67    1
    78   109   107   am
    79   109   110    1
    80   107   108    2
    81    61    62    1
    82    61    64    1
    83   110   113    1
    84    62    63    2
    85    84    85    2
    86    84    86   am
    87    49    48   ar
    88    43    42    1
    89    43    46    1
    90    41    39   ar
    91    50    48   ar
    92    86    87    1
    93    48    47    1
    94   115   117   ar
    95   115   114   ar
    96   117   119   ar
    97   113   114    1
    98   114   116   ar
    99   119   120    1
   100   119   118   ar
   101   116   118   ar
   102    47    46    1
   103    39    38    1
   104    39    40   ar
   105    87    88    1
   106    87    90    1
   107    38    35    1
   108    89    88    2
   109    37    36    2
   110    32    33   ar
   111    32    30   ar
   112    33    31   ar
   113    90    91    1
   114    93    91   am
   115    30    29   ar
   116    36    35    1
   117    91    92    2
   118    35    34    1
   119    31    29   ar
   120    75    73   ar
   121    29    28    1
   122   103   102    1
   123    28    25    1
   124    81    80    1
   125    73    74   ar
   126    73    72    1
   127   104   102    1
   128   102   101    2
   129    80    77    1
   130    25    26    1
   131    25    24    1
   132    72    69    1
   133    26    27    2
   134   101   100    1
   135   100    99    1
   136    76    77    1
   137    76    70   am
   138    77    78    1
   139    69    70    1
   140    69    68    1
   141    70    71    2
   142    99    98    1
   143    79    78    2
   144    98    95    1
   145    95    96    1
   146    95    94    1
   147    97    96    2
