@<TRIPOS>MOLECULE
tmp/4jz1A00.pdb
 216 212 0 0 0
SMALL
GASTEIGER

@<TRIPOS>ATOM
      1  N         19.9000   66.2540   12.9350 N.3    26  ILE26      -0.1231
      2  CA        19.0250   66.3540   14.1380 C.3    26  ILE26       0.1692
      3  C         18.7240   65.0270   14.7650 C.2    26  ILE26       0.2592
      4  O         18.7510   64.8800   15.9800 O.2    26  ILE26      -0.2718
      5  CB        17.6560   67.0840   13.8450 C.3    26  ILE26       0.0266
      6  CG1       17.8870   68.5340   13.3970 C.3    26  ILE26       0.0019
      7  CG2       16.7890   67.1540   15.1270 C.3    26  ILE26       0.0020
      8  CD1       18.7070   69.3680   14.3970 C.3    26  ILE26       0.0001
      9  N         18.2950   64.0880   13.9120 N.am   27  CYS27      -0.1970
     10  CA        17.9350   62.7780   14.3350 C.3    27  CYS27       0.1712
     11  C         18.4530   61.7160   13.3830 C.2    27  CYS27       0.2296
     12  O         18.8040   62.0040   12.2380 O.2    27  CYS27      -0.2864
     13  CB        16.4340   62.6260   14.5010 C.3    27  CYS27       0.0983
     14  SG        15.9110   63.3710   16.0940 S.3    27  CYS27      -0.0798
     15  N          9.3030   62.0210   18.3260 N.3    42  HIS42      -0.1226
     16  CA         9.6830   63.2110   19.0750 C.3    42  HIS42       0.1752
     17  C         10.6450   64.0820   18.2920 C.2    42  HIS42       0.2596
     18  O         10.8310   65.2140   18.6430 O.2    42  HIS42      -0.2718
     19  CB        10.2240   62.8340   20.5070 C.3    42  HIS42       0.0759
     20  CG        11.6910   62.5080   20.5670 C.ar   42  HIS42       0.0818
     21  ND1       12.1510   61.2450   20.7440 N.ar   42  HIS42      -0.2268
     22  CD2       12.8230   63.3310   20.5390 C.ar   42  HIS42       0.1154
     23  CE1       13.5140   61.2680   20.7910 C.ar   42  HIS42       0.1986
     24  NE2       13.9150   62.5370   20.6670 N.ar   42  HIS42      -0.2212
     25  N         11.2140   63.5480   17.2330 N.am   43  CYS43      -0.1970
     26  CA        12.0350   64.3890   16.3540 C.3    43  CYS43       0.1712
     27  C         11.1840   65.3290   15.4850 C.2    43  CYS43       0.2296
     28  O         11.6930   66.2870   14.9220 O.2    43  CYS43      -0.2864
     29  CB        12.9020   63.5150   15.4370 C.3    43  CYS43       0.0983
     30  SG        14.0860   62.4760   16.2880 S.3    43  CYS43      -0.0798
     31  N          8.2980   67.2460   16.0510 N.3    45  ILE45      -0.1245
     32  CA         7.3430   68.1050   16.7810 C.3    45  ILE45       0.1561
     33  C          7.6850   69.5960   16.6100 C.2    45  ILE45       0.2260
     34  O          8.7880   70.0120   16.9230 O.2    45  ILE45      -0.2867
     35  CB         7.3660   67.7550   18.2880 C.3    45  ILE45       0.0252
     36  CG1        6.9040   66.3140   18.4930 C.3    45  ILE45       0.0019
     37  CG2        6.4970   68.7120   19.0950 C.3    45  ILE45       0.0019
     38  CD1        7.2100   65.7880   19.8720 C.3    45  ILE45       0.0001
     39  N          8.3500   73.6030   17.4340 N.3    47  ASP47      -0.1239
     40  CA         8.6370   74.4240   18.6030 C.3    47  ASP47       0.1674
     41  C          8.4030   75.8510   18.0990 C.2    47  ASP47       0.2266
     42  O          8.1650   76.0460   16.9040 O.2    47  ASP47      -0.2867
     43  CB        10.0290   74.1690   19.2120 C.3    47  ASP47       0.1410
     44  CG        11.1680   74.6520   18.3630 C.2    47  ASP47       0.3668
     45  OD1       10.9650   75.5230   17.5010 O.co2  47  ASP47      -0.2456
     46  OD2       12.2950   74.1640   18.5960 O.co2  47  ASP47      -0.2456
     47  N          9.4070   71.4580   13.0090 N.3    52  TYR52      -0.1241
     48  CA         9.9790   70.1260   12.7810 C.3    52  TYR52       0.1605
     49  C          8.9630   69.1140   12.2620 C.2    52  TYR52       0.2264
     50  O          9.3390   68.0520   11.7490 O.2    52  TYR52      -0.2867
     51  CB        10.6140   69.6190   14.0690 C.3    52  TYR52       0.0534
     52  CG        11.8200   70.4190   14.5090 C.ar   52  TYR52      -0.0201
     53  CD1       13.0690   70.2460   13.8990 C.ar   52  TYR52      -0.0009
     54  CD2       11.7140   71.3710   15.5390 C.ar   52  TYR52      -0.0009
     55  CE1       14.1770   70.9870   14.3050 C.ar   52  TYR52       0.0417
     56  CE2       12.8140   72.1190   15.9300 C.ar   52  TYR52       0.0417
     57  CZ        14.0330   71.9190   15.3190 C.ar   52  TYR52       0.1957
     58  OH        15.1400   72.6320   15.7160 O.3    52  TYR52      -0.2866
     59  N          4.8090   63.7870   26.5570 N.3    92  PHE92      -0.1227
     60  CA         5.1880   63.9520   27.9590 C.3    92  PHE92       0.1736
     61  C          5.9210   62.7050   28.4300 C.2    92  PHE92       0.2596
     62  O          6.9770   62.7870   29.0700 O.2    92  PHE92      -0.2718
     63  CB         3.9350   64.1800   28.7870 C.3    92  PHE92       0.0547
     64  CG         4.1920   64.5460   30.2280 C.ar   92  PHE92      -0.0202
     65  CD1        4.1190   63.5740   31.2340 C.ar   92  PHE92      -0.0042
     66  CD2        4.5470   65.8750   30.5850 C.ar   92  PHE92      -0.0042
     67  CE1        4.3880   63.9210   32.5680 C.ar   92  PHE92      -0.0003
     68  CE2        4.7530   66.2200   31.9300 C.ar   92  PHE92      -0.0003
     69  CZ         4.6930   65.2290   32.9050 C.ar   92  PHE92      -0.0000
     70  N          5.3690   61.5340   28.1230 N.am   93  THR93      -0.1939
     71  CA         5.9800   60.2670   28.5320 C.3    93  THR93       0.2028
     72  C          6.9070   59.6590   27.4540 C.2    93  THR93       0.2642
     73  O          7.7330   58.7830   27.7530 O.2    93  THR93      -0.2714
     74  CB         4.9100   59.2220   28.8980 C.3    93  THR93       0.1808
     75  OG1        4.0950   58.9210   27.7410 O.3    93  THR93      -0.2208
     76  CG2        4.0790   59.6650   30.0590 C.3    93  THR93       0.0379
     77  N          6.7870   60.1350   26.2180 N.am   94  PHE94      -0.1973
     78  CA         7.4280   59.5120   25.0480 C.3    94  PHE94       0.1639
     79  C          6.8860   58.1040   24.8050 C.2    94  PHE94       0.2290
     80  O          7.5290   57.3220   24.1340 O.2    94  PHE94      -0.2864
     81  CB         8.9760   59.5000   25.1280 C.3    94  PHE94       0.0560
     82  CG         9.6470   60.8000   24.6990 C.ar   94  PHE94      -0.0200
     83  CD1        8.9790   62.0680   24.7600 C.ar   94  PHE94      -0.0042
     84  CD2       10.9670   60.7820   24.2360 C.ar   94  PHE94      -0.0042
     85  CE1        9.6360   63.2630   24.3870 C.ar   94  PHE94      -0.0003
     86  CE2       11.5920   61.9900   23.8040 C.ar   94  PHE94      -0.0003
     87  CZ        10.9240   63.1980   23.8570 C.ar   94  PHE94      -0.0000
     88  N         27.5440   63.1290   27.5360 N.3   141  TYR141     -0.1241
     89  CA        26.3930   63.9210   27.9700 C.3   141  TYR141      0.1605
     90  C         26.8280   65.4100   28.0590 C.2   141  TYR141      0.2264
     91  O         27.8940   65.7300   28.6200 O.2   141  TYR141     -0.2867
     92  CB        25.6860   63.3960   29.2590 C.3   141  TYR141      0.0534
     93  CG        24.5630   64.3530   29.6140 C.ar  141  TYR141     -0.0201
     94  CD1       23.4030   64.4250   28.8140 C.ar  141  TYR141     -0.0009
     95  CD2       24.7120   65.3010   30.6770 C.ar  141  TYR141     -0.0009
     96  CE1       22.4040   65.3690   29.0700 C.ar  141  TYR141      0.0417
     97  CE2       23.6950   66.2470   30.9430 C.ar  141  TYR141      0.0417
     98  CZ        22.5450   66.2640   30.1410 C.ar  141  TYR141      0.1957
     99  OH        21.5300   67.1740   30.3730 O.3   141  TYR141     -0.2866
    100  N          8.0060   55.6540   34.6120 N.3   169  GLN169     -0.1245
    101  CA         8.3270   56.1580   33.3110 C.3   169  GLN169      0.1566
    102  C          8.4080   55.1430   32.1930 C.2   169  GLN169      0.2260
    103  O          8.5900   55.5670   31.0810 O.2   169  GLN169     -0.2867
    104  CB         9.6040   57.0090   33.3450 C.3   169  GLN169      0.0367
    105  CG         9.5180   58.1500   34.3600 C.3   169  GLN169      0.0905
    106  CD        10.8920   58.7190   34.6450 C.2   169  GLN169      0.2608
    107  OE1       11.4390   59.3940   33.7990 O.2   169  GLN169     -0.2717
    108  NE2       11.4200   58.4920   35.8510 N.am  169  GLN169     -0.0878
    109  N         26.2500   53.9160   25.7100 N.3   185  ASP185     -0.1225
    110  CA        24.8660   54.3880   25.6800 C.3   185  ASP185      0.1805
    111  C         24.7020   55.1930   24.4330 C.2   185  ASP185      0.2598
    112  O         25.6850   55.6750   23.8640 O.2   185  ASP185     -0.2718
    113  CB        24.5400   55.3350   26.8700 C.3   185  ASP185      0.1424
    114  CG        23.0240   55.3830   27.2420 C.2   185  ASP185      0.3668
    115  OD1       22.1710   54.8390   26.4960 O.co2 185  ASP185     -0.2456
    116  OD2       22.6840   56.0260   28.2780 O.co2 185  ASP185     -0.2456
    117  N         23.4520   55.3520   23.9920 N.am  186  SER186     -0.1938
    118  CA        23.2100   56.3870   22.9700 C.3   186  SER186      0.2055
    119  C         23.0550   57.7510   23.6720 C.2   186  SER186      0.2643
    120  O         22.9760   57.8350   24.9580 O.2   186  SER186     -0.2714
    121  CB        21.9360   56.0300   22.1260 C.3   186  SER186      0.2130
    122  OG        20.8710   55.6200   23.0040 O.3   186  SER186     -0.2179
    123  N         22.9100   58.8180   22.8930 N.am  187  CYS187     -0.1953
    124  CA        22.8210   60.1200   23.5340 C.3   187  CYS187      0.1843
    125  C         22.0650   61.1430   22.6060 C.2   187  CYS187      0.2625
    126  O         21.6110   60.7190   21.5180 O.2   187  CYS187     -0.2714
    127  CB        24.2570   60.4890   23.9990 C.3   187  CYS187      0.0997
    128  SG        24.3180   61.8410   25.1230 S.3   187  CYS187     -0.0797
    129  N         21.7770   62.3860   23.0700 N.am  188  GLN188     -0.1963
    130  CA        21.1940   63.4240   22.1890 C.3   188  GLN188      0.1733
    131  C         21.7020   63.2910   20.7120 C.2   188  GLN188      0.2616
    132  O         22.9210   63.1500   20.4770 O.2   188  GLN188     -0.2715
    133  CB        21.4640   64.8410   22.7500 C.3   188  GLN188      0.0408
    134  CG        20.8270   65.9880   21.9090 C.3   188  GLN188      0.0908
    135  CD        21.1540   67.4500   22.3800 C.2   188  GLN188      0.2608
    136  OE1       21.3140   68.3630   21.5640 O.2   188  GLN188     -0.2717
    137  NE2       21.2010   67.6700   23.6600 N.am  188  GLN188     -0.0878
    138  N         20.7720   63.2780   19.7510 N.am  189  GLY189     -0.1955
    139  CA        21.0630   63.2080   18.3090 C.3   189  GLY189      0.1869
    140  C         21.1620   61.7860   17.7780 C.2   189  GLY189      0.2309
    141  O         21.1480   61.5940   16.5960 O.2   189  GLY189     -0.2863
    142  N         18.9380   59.8130   18.7860 N.3   191  SER191     -0.1217
    143  CA        17.4750   59.6460   18.7590 C.3   191  SER191      0.1889
    144  C         16.9490   59.4390   17.3250 C.2   191  SER191      0.2288
    145  O         17.4140   60.1470   16.3860 O.2   191  SER191     -0.2866
    146  CB        16.8750   60.9000   19.3060 C.3   191  SER191      0.2089
    147  OG        17.2280   61.1080   20.6570 O.3   191  SER191     -0.2183
    148  N         16.0220   54.5070   18.9910 N.3   210  VAL210     -0.1231
    149  CA        16.5840   55.3500   20.0470 C.3   210  VAL210      0.1692
    150  C         15.5950   56.4360   20.4960 C.2   210  VAL210      0.2593
    151  O         15.1240   57.2360   19.6530 O.2   210  VAL210     -0.2718
    152  CB        17.8720   56.1030   19.5880 C.3   210  VAL210      0.0266
    153  CG1       18.4540   56.8200   20.7940 C.3   210  VAL210      0.0020
    154  CG2       18.8950   55.1360   18.9500 C.3   210  VAL210      0.0020
    155  N         15.2280   56.4470   21.7770 N.am  211  SER211     -0.1938
    156  CA        14.0890   57.3140   22.1810 C.3   211  SER211      0.2055
    157  C         14.5470   58.3740   23.2110 C.2   211  SER211      0.2643
    158  O         14.6340   59.5110   22.8960 O.2   211  SER211     -0.2714
    159  CB        12.8260   56.4800   22.6530 C.3   211  SER211      0.2130
    160  OG        11.8040   57.3680   23.1520 O.3   211  SER211     -0.2179
    161  N         14.8840   57.9310   24.4280 N.am  212  TRP212     -0.1959
    162  CA        15.3110   58.7990   25.4830 C.3   212  TRP212      0.1771
    163  C         16.1770   58.1420   26.5400 C.2   212  TRP212      0.2620
    164  O         16.4300   56.9520   26.5110 O.2   212  TRP212     -0.2715
    165  CB        14.1210   59.4630   26.1720 C.3   212  TRP212      0.0590
    166  CG        13.2440   58.4880   26.9100 C.ar  212  TRP212      0.0006
    167  CD1       12.2310   57.6800   26.3720 C.ar  212  TRP212      0.0946
    168  CD2       13.2040   58.2430   28.3770 C.ar  212  TRP212      0.0152
    169  NE1       11.5810   56.9710   27.3820 N.ar  212  TRP212     -0.2442
    170  CE2       12.1250   57.2700   28.6070 C.ar  212  TRP212      0.0810
    171  CE3       13.9180   58.7430   29.4950 C.ar  212  TRP212      0.0012
    172  CZ2       11.8210   56.7920   29.8990 C.ar  212  TRP212      0.0191
    173  CZ3       13.5790   58.2830   30.7840 C.ar  212  TRP212      0.0001
    174  CH2       12.5690   57.3000   30.9840 C.ar  212  TRP212      0.0015
    175  N         16.6830   58.9440   27.4790 N.am  213  GLY213     -0.1940
    176  CA        17.3860   58.4070   28.6570 C.3   213  GLY213      0.2014
    177  C         17.6520   59.5890   29.5840 C.2   213  GLY213      0.2639
    178  O         17.4800   60.7810   29.2070 O.2   213  GLY213     -0.2714
    179  N         18.0440   59.2540   30.7950 N.am  214  ASP214     -0.1957
    180  CA        18.3220   60.2660   31.8210 C.3   214  ASP214      0.1840
    181  C         19.8450   60.5360   31.8710 C.2   214  ASP214      0.2623
    182  O         20.6950   59.6280   32.0650 O.2   214  ASP214     -0.2715
    183  CB        17.6960   59.8410   33.1860 C.3   214  ASP214      0.1450
    184  CG        18.1670   60.7270   34.3860 C.2   214  ASP214      0.3671
    185  OD1       18.8610   61.7090   34.1540 O.co2 214  ASP214     -0.2456
    186  OD2       17.8450   60.4440   35.5600 O.co2 214  ASP214     -0.2456
    187  N         20.4130   61.7230   31.1960 N.am  215  GLY215     -0.1940
    188  CA        21.7800   62.0100   30.7390 C.3   215  GLY215      0.2014
    189  C         22.1270   60.8480   29.7880 C.2   215  GLY215      0.2639
    190  O         21.2540   60.3520   29.0190 O.2   215  GLY215     -0.2714
    191  N         23.3610   60.3790   29.8720 N.am  216  CYS216     -0.1967
    192  CA        23.8130   59.3870   28.9120 C.3   216  CYS216      0.1712
    193  C         24.9510   58.6620   29.5540 C.2   216  CYS216      0.2296
    194  O         25.8920   59.3190   30.1160 O.2   216  CYS216     -0.2864
    195  CB        24.3380   60.0440   27.6240 C.3   216  CYS216      0.0983
    196  SG        23.2660   61.2460   26.7400 S.3   216  CYS216     -0.0798
    197  N         21.1060   54.2490   34.7060 N.3   221  LYS221     -0.1245
    198  CA        20.2730   55.0070   33.7420 C.3   221  LYS221      0.1561
    199  C         20.4850   54.5390   32.2620 C.2   221  LYS221      0.2260
    200  O         20.9930   55.2820   31.4030 O.2   221  LYS221     -0.2867
    201  CB        20.5560   56.5330   33.9680 C.3   221  LYS221      0.0271
    202  CG        19.9680   57.0110   35.3170 C.3   221  LYS221      0.0035
    203  CD        20.5690   58.3440   35.8370 C.3   221  LYS221      0.0206
    204  CE        19.8860   58.7880   37.1700 C.3   221  LYS221      0.1093
    205  NZ        18.4090   58.5370   36.9990 N.3   221  LYS221     -0.1314
    206  N         19.7210   53.3960   28.3430 N.3   223  GLY223     -0.1210
    207  CA        19.0110   54.1180   27.2940 C.3   223  GLY223      0.1956
    208  C         17.6850   53.4170   27.1490 C.2   223  GLY223      0.2611
    209  O         17.6050   52.1990   27.3710 O.2   223  GLY223     -0.2717
    210  N         16.6490   54.1860   26.8050 N.am  224  VAL224     -0.1979
    211  CA        15.2850   53.6400   26.6490 C.3   224  VAL224      0.1595
    212  C         14.9260   53.7570   25.1820 C.2   224  VAL224      0.2287
    213  O         15.2280   54.7960   24.5510 O.2   224  VAL224     -0.2864
    214  CB        14.2940   54.4800   27.4910 C.3   224  VAL224      0.0276
    215  CG1       12.8780   53.9710   27.2940 C.3   224  VAL224      0.0022
    216  CG2       14.6560   54.3640   28.9780 C.3   224  VAL224      0.0022
@<TRIPOS>BOND
     1    50    49    2
     2    12    11    2
     3    49    48    1
     4    48    47    1
     5    48    51    1
     6     1     2    1
     7    11    10    1
     8     6     5    1
     9     6     8    1
    10     5     2    1
    11     5     7    1
    12    53    55   ar
    13    53    52   ar
    14     9    10    1
    15     9     3   am
    16    51    52    1
    17     2     3    1
    18    55    57   ar
    19    10    13    1
    20    13    14    1
    21    52    54   ar
    22     3     4    2
    23    28    27    2
    24    57    58    1
    25    57    56   ar
    26    29    30    1
    27    29    26    1
    28    27    26    1
    29    54    56   ar
    30    31    32    1
    31    14    30    1
    32    26    25    1
    33   145   144    2
    34   141   140    2
    35    33    32    1
    36    33    34    2
    37    32    35    1
    38    42    41    2
    39    25    17   am
    40   144   143    1
    41    39    40    1
    42    45    44   ar
    43   140   139    1
    44    41    40    1
    45    35    36    1
    46    35    37    1
    47    17    18    2
    48    17    16    1
    49   139   138    1
    50    15    16    1
    51    44    46   ar
    52    44    43    1
    53    36    38    1
    54    40    43    1
    55   143   142    1
    56   143   146    1
    57   154   152    1
    58   148   149    1
    59    16    19    1
    60   146   147    1
    61   152   149    1
    62   152   153    1
    63   151   150    2
    64   138   131   am
    65   149   150    1
    66   132   131    2
    67   150   155   am
    68    19    20    1
    69    22    20   ar
    70    22    24   ar
    71    20    21   ar
    72    24    23   ar
    73   131   130    1
    74    21    23   ar
    75   126   125    2
    76   136   135    2
    77   155   156    1
    78   134   135    1
    79   134   133    1
    80   121   118    1
    81   121   122    1
    82   156   159    1
    83   156   157    1
    84   130   133    1
    85   130   129    1
    86   135   137   am
    87   125   129   am
    88   125   124    1
    89   159   160    1
    90   123   124    1
    91   123   119   am
    92   158   157    2
    93   118   119    1
    94   118   117    1
    95   157   161   am
    96   124   127    1
    97   119   120    2
    98    86    87   ar
    99    86    84   ar
   100    87    85   ar
   101   112   111    2
   102   117   111   am
   103   127   128    1
   104    80    79    2
   105    84    82   ar
   106    85    83   ar
   107   161   162    1
   108   111   110    1
   109   213   212    2
   110    82    83   ar
   111    82    81    1
   112    79    78    1
   113    78    81    1
   114    78    77    1
   115   128   196    1
   116   212   211    1
   117   162   165    1
   118   162   163    1
   119   110   109    1
   120   110   113    1
   121   165   166    1
   122    77    72   am
   123   167   166   ar
   124   167   169   ar
   125   115   114   ar
   126   164   163    2
   127   163   175   am
   128    59    60    1
   129   211   210    1
   130   211   214    1
   131   196   195    1
   132   210   208   am
   133   113   114    1
   134   166   168   ar
   135   208   207    1
   136   208   209    2
   137   114   116   ar
   138   207   206    1
   139   215   214    1
   140   169   170   ar
   141    72    73    2
   142    72    71    1
   143   175   176    1
   144   214   216    1
   145    88    89    1
   146   195   192    1
   147    75    74    1
   148    60    61    1
   149    60    63    1
   150    89    90    1
   151    89    92    1
   152    90    91    2
   153    70    61   am
   154    70    71    1
   155   168   170   ar
   156   168   171   ar
   157    61    62    2
   158    71    74    1
   159   170   172   ar
   160   176   177    1
   161    63    64    1
   162    94    96   ar
   163    94    93   ar
   164    74    76    1
   165   192   193    1
   166   192   191    1
   167   190   189    2
   168    96    98   ar
   169   178   177    2
   170    92    93    1
   171   171   173   ar
   172   193   194    2
   173   177   179   am
   174    93    95   ar
   175   189   191   am
   176   189   188    1
   177   172   174   ar
   178    98    99    1
   179    98    97   ar
   180    64    66   ar
   181    64    65   ar
   182    66    68   ar
   183    95    97   ar
   184   188   187    1
   185   173   174   ar
   186   179   180    1
   187   103   102    2
   188   187   181   am
   189    65    67   ar
   190   200   199    2
   191   180   181    1
   192   180   183    1
   193   181   182    2
   194    68    69   ar
   195   102   101    1
   196   199   198    1
   197    67    69   ar
   198   183   184    1
   199   101   104    1
   200   101   100    1
   201   104   105    1
   202   198   201    1
   203   198   197    1
   204   107   106    2
   205   201   202    1
   206   185   184   ar
   207   105   106    1
   208   184   186   ar
   209   106   108   am
   210   202   203    1
   211   203   204    1
   212   205   204    1
