@<TRIPOS>MOLECULE
tmp/4jz6A00.pdb
 112 107 0 0 0
SMALL
GASTEIGER

@<TRIPOS>ATOM
      1  N         68.9240  -19.2050   25.7430 N.3    97  TRP97      -0.1241
      2  CA        68.4320  -18.2240   24.7740 C.3    97  TRP97       0.1605
      3  C         68.4670  -16.8080   25.3360 C.2    97  TRP97       0.2264
      4  O         68.7660  -15.8480   24.6180 O.2    97  TRP97      -0.2867
      5  CB        67.0090  -18.5980   24.3310 C.3    97  TRP97       0.0550
      6  CG        66.3310  -17.6300   23.3870 C.ar   97  TRP97       0.0003
      7  CD1       65.2020  -16.8960   23.6330 C.ar   97  TRP97       0.0946
      8  CD2       66.7300  -17.3090   22.0460 C.ar   97  TRP97       0.0152
      9  NE1       64.8790  -16.1350   22.5330 N.ar   97  TRP97      -0.2442
     10  CE2       65.8000  -16.3720   21.5460 C.ar   97  TRP97       0.0810
     11  CE3       67.7850  -17.7160   21.2230 C.ar   97  TRP97       0.0012
     12  CZ2       65.8970  -15.8400   20.2570 C.ar   97  TRP97       0.0191
     13  CZ3       67.8790  -17.1850   19.9400 C.ar   97  TRP97       0.0001
     14  CH2       66.9400  -16.2620   19.4710 C.ar   97  TRP97       0.0015
     15  N         72.1480  -15.7300   25.5430 N.3   100  PHE100     -0.1241
     16  CA        72.5840  -15.4010   24.1930 C.3   100  PHE100      0.1605
     17  C         72.0540  -14.0390   23.7490 C.2   100  PHE100      0.2264
     18  O         72.7810  -13.2560   23.1300 O.2   100  PHE100     -0.2867
     19  CB        72.1540  -16.4660   23.1860 C.3   100  PHE100      0.0534
     20  CG        72.3130  -16.0290   21.7630 C.ar  100  PHE100     -0.0203
     21  CD1       71.2280  -15.5420   21.0470 C.ar  100  PHE100     -0.0042
     22  CD2       73.5580  -16.0720   21.1450 C.ar  100  PHE100     -0.0042
     23  CE1       71.3770  -15.1190   19.7270 C.ar  100  PHE100     -0.0003
     24  CE2       73.7160  -15.6540   19.8220 C.ar  100  PHE100     -0.0003
     25  CZ        72.6220  -15.1790   19.1120 C.ar  100  PHE100     -0.0000
     26  N         60.3880  -12.3860   20.2320 N.3   150  ASN150     -0.1225
     27  CA        61.1510  -13.6390   20.2120 C.3   150  ASN150      0.1785
     28  C         62.6580  -13.4910   20.4280 C.2   150  ASN150      0.2597
     29  O         63.2160  -14.0610   21.3680 O.2   150  ASN150     -0.2718
     30  CB        60.8480  -14.4450   18.9460 C.3   150  ASN150      0.1169
     31  CG        61.0860  -13.6520   17.6860 C.2   150  ASN150      0.2627
     32  OD1       61.0480  -12.4220   17.7040 O.2   150  ASN150     -0.2716
     33  ND2       61.3360  -14.3490   16.5780 N.am  150  ASN150     -0.0877
     34  N         63.3180  -12.7380   19.5570 N.am  151  GLY151     -0.1957
     35  CA        64.6850  -12.3190   19.8110 C.3   151  GLY151      0.1869
     36  C         64.5870  -11.1160   20.7270 C.2   151  GLY151      0.2309
     37  O         65.0180  -10.0130   20.3890 O.2   151  GLY151     -0.2863
     38  N         67.9120   -8.8400   21.4670 N.3   154  VAL154     -0.1231
     39  CA        68.7680   -8.4870   20.3390 C.3   154  VAL154      0.1692
     40  C         68.0100   -7.7670   19.2120 C.2   154  VAL154      0.2591
     41  O         68.5680   -6.8940   18.5420 O.2   154  VAL154     -0.2718
     42  CB        69.5640   -9.7070   19.8100 C.3   154  VAL154      0.0266
     43  CG1       68.6400  -10.7100   19.1380 C.3   154  VAL154      0.0020
     44  CG2       70.6810   -9.2570   18.8670 C.3   154  VAL154      0.0020
     45  N         66.7360   -8.1080   19.0290 N.am  155  LEU155     -0.1980
     46  CA        65.9200   -7.4730   17.9960 C.3   155  LEU155      0.1596
     47  C         65.6080   -6.0160   18.3370 C.2   155  LEU155      0.2287
     48  O         65.4750   -5.1670   17.4560 O.2   155  LEU155     -0.2864
     49  CB        64.6330   -8.2620   17.7570 C.3   155  LEU155      0.0297
     50  CG        64.8530   -9.6750   17.2150 C.3   155  LEU155      0.0022
     51  CD1       63.5330  -10.3090   16.8040 C.3   155  LEU155      0.0001
     52  CD2       65.8230   -9.6450   16.0590 C.3   155  LEU155      0.0001
     53  N         69.3230   -4.1300   17.9660 N.3   158  ARG158     -0.1245
     54  CA        69.6160   -3.8350   16.5720 C.3   158  ARG158      0.1563
     55  C         68.8100   -2.6180   16.0890 C.2   158  ARG158      0.2260
     56  O         69.3310   -1.7730   15.3590 O.2   158  ARG158     -0.2867
     57  CB        69.3620   -5.0810   15.7010 C.3   158  ARG158      0.0307
     58  CG        68.1170   -5.0130   14.8200 C.3   158  ARG158      0.0489
     59  CD        67.2420   -6.2530   14.8780 C.3   158  ARG158      0.2205
     60  NE        67.6580   -7.3150   13.9680 N.pl3 158  ARG158     -0.0865
     61  CZ        66.8180   -8.0470   13.2360 C.cat 158  ARG158      0.5346
     62  NH1       65.5070   -7.8290   13.2830 N.pl3 158  ARG158      0.1354
     63  NH2       67.2890   -9.0030   12.4520 N.pl3 158  ARG158      0.1354
     64  N         59.9890   -5.6800   12.2750 N.3   228  THR228     -0.1218
     65  CA        60.3240   -7.0840   12.3920 C.3   228  THR228      0.1862
     66  C         59.1020   -7.8000   12.9420 C.2   228  THR228      0.2287
     67  O         58.5480   -7.4060   13.9710 O.2   228  THR228     -0.2866
     68  CB        61.5600   -7.3000   13.2920 C.3   228  THR228      0.1770
     69  OG1       62.7060   -6.6780   12.6910 O.3   228  THR228     -0.2211
     70  CG2       61.8420   -8.7880   13.4730 C.3   228  THR228      0.0375
     71  N         61.9710  -18.8800   16.4150 N.3   284  ILE284     -0.1231
     72  CA        62.8930  -17.9520   15.7790 C.3   284  ILE284      0.1692
     73  C         62.4800  -17.8580   14.3210 C.2   284  ILE284      0.2592
     74  O         62.1110  -18.8690   13.7310 O.2   284  ILE284     -0.2718
     75  CB        64.3460  -18.4550   15.8900 C.3   284  ILE284      0.0266
     76  CG1       64.6090  -18.9890   17.3020 C.3   284  ILE284      0.0019
     77  CG2       65.3280  -17.3530   15.5280 C.3   284  ILE284      0.0020
     78  CD1       66.0050  -19.5270   17.5150 C.3   284  ILE284      0.0001
     79  N         62.5210  -16.6600   13.7370 N.am  285  CYS285     -0.1956
     80  CA        62.0800  -16.5020   12.3450 C.3   285  CYS285      0.1843
     81  C         62.9640  -17.3230   11.4100 C.2   285  CYS285      0.2625
     82  O         62.5300  -17.7180   10.3280 O.2   285  CYS285     -0.2714
     83  CB        62.0430  -15.0300   11.9080 C.3   285  CYS285      0.0997
     84  SG        60.8090  -13.9940   12.7460 S.3   285  CYS285     -0.0797
     85  N         64.1950  -17.5910   11.8470 N.am  286  MET286     -0.1977
     86  CA        65.1160  -18.4220   11.0760 C.3   286  MET286      0.1605
     87  C         65.2330  -19.8590   11.5930 C.2   286  MET286      0.2287
     88  O         66.1410  -20.5870   11.1790 O.2   286  MET286     -0.2864
     89  CB        66.5070  -17.7830   11.0040 C.3   286  MET286      0.0413
     90  CG        67.1150  -17.3970   12.3500 C.3   286  MET286      0.0598
     91  SD        68.8470  -16.8890   12.2000 S.3   286  MET286     -0.1393
     92  CE        69.1130  -16.1110   13.7980 C.3   286  MET286      0.0692
     93  N         73.7050  -15.5860   13.3550 N.3   441  ASN441     -0.1240
     94  CA        73.6720  -14.1360   13.2040 C.3   441  ASN441      0.1653
     95  C         74.8940  -13.5250   13.8470 C.2   441  ASN441      0.2266
     96  O         75.1280  -13.6920   15.0460 O.2   441  ASN441     -0.2867
     97  CB        72.4050  -13.5330   13.8150 C.3   441  ASN441      0.1155
     98  CG        72.2750  -12.0260   13.5670 C.2   441  ASN441      0.2627
     99  OD1       71.7490  -11.2950   14.4150 O.2   441  ASN441     -0.2716
    100  ND2       72.7450  -11.5610   12.4170 N.am  441  ASN441     -0.0877
    101  N         72.1740   -9.0940    7.9550 N.3   447  TYR447     -0.1241
    102  CA        71.0970  -10.0230    8.2620 C.3   447  TYR447      0.1605
    103  C         69.7730   -9.5840    7.6360 C.2   447  TYR447      0.2264
    104  O         69.2500   -8.5050    7.9350 O.2   447  TYR447     -0.2867
    105  CB        70.9420  -10.2090    9.7700 C.3   447  TYR447      0.0534
    106  CG        69.9770  -11.3090   10.1190 C.ar  447  TYR447     -0.0201
    107  CD1       70.4070  -12.6250   10.2260 C.ar  447  TYR447     -0.0009
    108  CD2       68.6280  -11.0400   10.3260 C.ar  447  TYR447     -0.0009
    109  CE1       69.5220  -13.6450   10.5380 C.ar  447  TYR447      0.0417
    110  CE2       67.7370  -12.0510   10.6370 C.ar  447  TYR447      0.0417
    111  CZ        68.1870  -13.3510   10.7410 C.ar  447  TYR447      0.1957
    112  OH        67.2980  -14.3540   11.0560 O.3   447  TYR447     -0.2866
@<TRIPOS>BOND
     1   103   104    2
     2   103   102    1
     3   101   102    1
     4   102   105    1
     5   105   106    1
     6   106   107   ar
     7   106   108   ar
     8   107   109   ar
     9   108   110   ar
    10    82    81    2
    11   109   111   ar
    12   110   111   ar
    13   111   112    1
    14    89    86    1
    15    89    90    1
    16    86    87    1
    17    86    85    1
    18    88    87    2
    19    81    85   am
    20    81    80    1
    21    83    80    1
    22    83    84    1
    23    91    90    1
    24    91    92    1
    25    64    65    1
    26    80    79    1
    27    65    66    1
    28    65    68    1
    29   100    98   am
    30    63    61    1
    31    69    68    1
    32    66    67    2
    33    94    93    1
    34    94    97    1
    35    94    95    1
    36    61    62    1
    37    61    60    2
    38    68    70    1
    39    98    97    1
    40    98    99    2
    41    74    73    2
    42    79    73   am
    43    95    96    2
    44    60    59    1
    45    73    72    1
    46    58    59    1
    47    58    57    1
    48    56    55    2
    49    77    75    1
    50    57    54    1
    51    72    75    1
    52    72    71    1
    53    75    76    1
    54    52    50    1
    55    55    54    1
    56    54    53    1
    57    33    31   am
    58    51    50    1
    59    50    49    1
    60    76    78    1
    61    48    47    2
    62    31    32    2
    63    31    30    1
    64    49    46    1
    65    46    47    1
    66    46    45    1
    67    41    40    2
    68    44    42    1
    69    30    27    1
    70    45    40   am
    71    25    23   ar
    72    25    24   ar
    73    43    42    1
    74    40    39    1
    75    14    13   ar
    76    14    12   ar
    77    34    35    1
    78    34    28   am
    79    23    21   ar
    80    42    39    1
    81    35    36    1
    82    24    22   ar
    83    13    11   ar
    84    27    26    1
    85    27    28    1
    86    12    10   ar
    87    39    38    1
    88    37    36    2
    89    28    29    2
    90    21    20   ar
    91    22    20   ar
    92    11     8   ar
    93    10     8   ar
    94    10     9   ar
    95    20    19    1
    96     8     6   ar
    97     9     7   ar
    98    18    17    2
    99    19    16    1
   100     6     7   ar
   101     6     5    1
   102    17    16    1
   103    16    15    1
   104     5     2    1
   105     4     3    2
   106     2     3    1
   107     2     1    1
