@<TRIPOS>MOLECULE
tmp/4jz7D00.pdb
 157 150 0 0 0
SMALL
GASTEIGER

@<TRIPOS>ATOM
      1  N         47.8000   64.9720   13.1410 N.3    12  GLY12      -0.1210
      2  CA        48.0790   64.3290   14.4140 C.3    12  GLY12       0.1956
      3  C         47.6360   65.1540   15.6080 C.2    12  GLY12       0.2612
      4  O         46.9560   66.1730   15.4520 O.2    12  GLY12      -0.2717
      5  N         48.0210   64.7280   16.8090 N.am   13  GLY13      -0.1942
      6  CA        47.5880   65.4140   18.0100 C.3    13  GLY13       0.2014
      7  C         47.9100   66.9090   18.0220 C.2    13  GLY13       0.2638
      8  O         47.1270   67.7170   18.5390 O.2    13  GLY13      -0.2714
      9  N         49.0630   67.2940   17.4790 N.am   14  ASN14      -0.1972
     10  CA        49.5130   68.6760   17.6300 C.3    14  ASN14       0.1688
     11  C         48.7510   69.6860   16.7780 C.2    14  ASN14       0.2292
     12  O         49.0890   70.8740   16.7360 O.2    14  ASN14      -0.2864
     13  CB        51.0230   68.7710   17.3840 C.3    14  ASN14       0.1181
     14  CG        51.4190   68.2550   16.0280 C.2    14  ASN14       0.2629
     15  OD1       50.7600   67.3900   15.4730 O.2    14  ASN14      -0.2716
     16  ND2       52.4910   68.7950   15.4760 N.am   14  ASN14      -0.0877
     17  N         43.0740   63.0210   14.2850 N.3    54  GLY54      -0.1225
     18  CA        42.8900   62.1870   15.4570 C.3    54  GLY54       0.1811
     19  C         41.8900   62.8790   16.3830 C.2    54  GLY54       0.2280
     20  O         41.4970   64.0270   16.1210 O.2    54  GLY54      -0.2866
     21  N         41.8410   61.6710   20.0810 N.3    56  GLY56      -0.1210
     22  CA        42.1240   61.0710   21.3860 C.3    56  GLY56       0.1940
     23  C         41.7700   61.8970   22.6140 C.2    56  GLY56       0.2453
     24  O         40.9270   61.5060   23.4370 O.2    56  GLY56      -0.2732
     25  N         42.4110   63.0650   22.7590 N.am   57  PRO57      -0.2728
     26  CA        42.1220   63.9540   23.8820 C.3    57  PRO57       0.1401
     27  C         40.7310   64.5810   23.7850 C.2    57  PRO57       0.2269
     28  O         40.1270   64.9540   24.8060 O.2    57  PRO57      -0.2865
     29  CB        43.2010   65.0470   23.7430 C.3    57  PRO57       0.0296
     30  CG        44.3060   64.3800   23.0340 C.3    57  PRO57       0.0237
     31  CD        43.6130   63.4910   22.0280 C.3    57  PRO57       0.0939
     32  N         43.3260   56.5580   13.6950 N.3   216  LYS216     -0.1231
     33  CA        43.0640   57.5760   12.6840 C.3   216  LYS216      0.1693
     34  C         44.0120   57.3680   11.5020 C.2   216  LYS216      0.2592
     35  O         43.6270   57.5830   10.3520 O.2   216  LYS216     -0.2718
     36  CB        43.2170   58.9720   13.2940 C.3   216  LYS216      0.0285
     37  CG        44.1980   59.8710   12.5670 C.3   216  LYS216      0.0035
     38  CD        45.5910   59.8440   13.1720 C.3   216  LYS216      0.0206
     39  CE        46.5190   60.7340   12.3680 C.3   216  LYS216      0.1093
     40  NZ        47.5930   61.3700   13.1870 N.3   216  LYS216     -0.1314
     41  N         45.2470   56.9460   11.7850 N.am  217  ASP217     -0.1974
     42  CA        46.2250   56.6780   10.7210 C.3   217  ASP217      0.1709
     43  C         45.8710   55.5010    9.7970 C.2   217  ASP217      0.2293
     44  O         45.9440   55.6260    8.5720 O.2   217  ASP217     -0.2864
     45  CB        47.6560   56.5710   11.2770 C.3   217  ASP217      0.1436
     46  CG        48.2660   57.9490   11.5700 C.2   217  ASP217      0.3671
     47  OD1       48.0180   58.8630   10.7570 O.co2 217  ASP217     -0.2456
     48  OD2       48.9530   58.1440   12.6050 O.co2 217  ASP217     -0.2456
     49  N         50.8250   63.8940    9.0810 N.3   235  LEU235     -0.1231
     50  CA        51.5860   64.9960    9.6780 C.3   235  LEU235      0.1693
     51  C         51.6610   64.8420   11.1900 C.2   235  LEU235      0.2593
     52  O         50.6390   64.7250   11.8630 O.2   235  LEU235     -0.2718
     53  CB        51.0030   66.3480    9.2860 C.3   235  LEU235      0.0284
     54  CG        50.9750   66.5490    7.7770 C.3   235  LEU235      0.0019
     55  CD1       50.4170   67.9270    7.4510 C.3   235  LEU235      0.0001
     56  CD2       52.3720   66.3550    7.1910 C.3   235  LEU235      0.0001
     57  N         52.8740   64.8730   11.7260 N.am  236  THR236     -0.1939
     58  CA        53.0510   64.5450   13.1290 C.3   236  THR236      0.2028
     59  C         53.8620   65.6160   13.8530 C.2   236  THR236      0.2642
     60  O         53.8110   66.7970   13.4660 O.2   236  THR236     -0.2714
     61  CB        53.6170   63.1050   13.2600 C.3   236  THR236      0.1808
     62  OG1       53.7440   62.7350   14.6380 O.3   236  THR236     -0.2208
     63  CG2       54.9410   62.9680   12.5440 C.3   236  THR236      0.0379
     64  N         54.5970   65.2220   14.8940 N.am  237  ASP237     -0.1957
     65  CA        55.4000   66.1990   15.6320 C.3   237  ASP237      0.1840
     66  C         56.9190   65.9340   15.5600 C.2   237  ASP237      0.2621
     67  O         57.7050   66.6600   16.1750 O.2   237  ASP237     -0.2715
     68  CB        54.9120   66.3870   17.0820 C.3   237  ASP237      0.1450
     69  CG        55.1540   65.1640   17.9650 C.2   237  ASP237      0.3671
     70  OD1       55.3490   64.0460   17.4270 O.co2 237  ASP237     -0.2456
     71  OD2       55.1340   65.3240   19.2100 O.co2 237  ASP237     -0.2456
     72  N         57.3190   64.9290   14.7740 N.am  238  VAL238     -0.1977
     73  CA        58.7260   64.7880   14.3870 C.3   238  VAL238      0.1596
     74  C         58.8760   64.8710   12.8630 C.2   238  VAL238      0.2287
     75  O         57.9320   64.5500   12.1180 O.2   238  VAL238     -0.2864
     76  CB        59.3920   63.4830   14.8970 C.3   238  VAL238      0.0276
     77  CG1       59.2550   63.3600   16.4000 C.3   238  VAL238      0.0022
     78  CG2       58.8240   62.2620   14.1800 C.3   238  VAL238      0.0022
     79  N         60.8930   63.3120   10.7550 N.3   240  ASN240     -0.1240
     80  CA        61.1840   62.0660   10.0390 C.3   240  ASN240      0.1653
     81  C         60.8260   60.8800   10.9200 C.2   240  ASN240      0.2266
     82  O         60.6490   61.0350   12.1230 O.2   240  ASN240     -0.2867
     83  CB        62.6870   61.9340    9.7230 C.3   240  ASN240      0.1155
     84  CG        63.2130   63.0220    8.7720 C.2   240  ASN240      0.2627
     85  OD1       63.3190   64.1990    9.1460 O.2   240  ASN240     -0.2716
     86  ND2       63.5890   62.6180    7.5590 N.am  240  ASN240     -0.0877
     87  N         62.5540   57.4530   12.3950 N.3   242  CYS242     -0.1235
     88  CA        63.9170   56.9680   12.6580 C.3   242  CYS242      0.1677
     89  C         63.9720   55.4620   12.9750 C.2   242  CYS242      0.2270
     90  O         62.9670   54.8520   13.3360 O.2   242  CYS242     -0.2867
     91  CB        64.4890   57.6580   13.8900 C.3   242  CYS242      0.0956
     92  SG        64.2650   59.4070   13.9760 S.3   242  CYS242     -0.0801
     93  N         65.2260   54.7170   17.5220 N.3   245  TYR245     -0.1241
     94  CA        64.7630   56.0740   17.8820 C.3   245  TYR245      0.1605
     95  C         65.4360   56.5820   19.1510 C.2   245  TYR245      0.2264
     96  O         65.5430   55.8570   20.1430 O.2   245  TYR245     -0.2867
     97  CB        63.2280   56.1470   18.0640 C.3   245  TYR245      0.0534
     98  CG        62.7510   57.5450   18.4450 C.ar  245  TYR245     -0.0201
     99  CD1       63.2160   58.6540   17.7520 C.ar  245  TYR245     -0.0009
    100  CD2       61.8670   57.7550   19.4990 C.ar  245  TYR245     -0.0009
    101  CE1       62.8220   59.9300   18.0820 C.ar  245  TYR245      0.0417
    102  CE2       61.4610   59.0370   19.8440 C.ar  245  TYR245      0.0417
    103  CZ        61.9480   60.1250   19.1230 C.ar  245  TYR245      0.1957
    104  OH        61.5770   61.4300   19.4150 O.3   245  TYR245     -0.2866
    105  N         61.6770   48.3950   14.7770 N.3   269  HIS269     -0.1226
    106  CA        62.0280   49.7830   15.0870 C.3   269  HIS269      0.1752
    107  C         60.8550   50.6970   15.4390 C.2   269  HIS269      0.2596
    108  O         61.0020   51.5970   16.2640 O.2   269  HIS269     -0.2718
    109  CB        62.8790   50.3960   13.9670 C.3   269  HIS269      0.0759
    110  CG        64.1790   49.6830   13.7410 C.ar  269  HIS269      0.0818
    111  ND1       65.3730   50.1260   14.2700 N.ar  269  HIS269     -0.2268
    112  CD2       64.4700   48.5540   13.0480 C.ar  269  HIS269      0.1154
    113  CE1       66.3420   49.3030   13.9120 C.ar  269  HIS269      0.1986
    114  NE2       65.8220   48.3420   13.1680 N.ar  269  HIS269     -0.2212
    115  N         59.6960   50.4960   14.8240 N.am  270  PHE270     -0.1962
    116  CA        58.5670   51.4070   15.0560 C.3   270  PHE270      0.1771
    117  C         57.6220   50.9710   16.1960 C.2   270  PHE270      0.2619
    118  O         56.9140   49.9610   16.0820 O.2   270  PHE270     -0.2715
    119  CB        57.8180   51.6300   13.7550 C.3   270  PHE270      0.0574
    120  CG        58.7250   51.7770   12.5770 C.ar  270  PHE270     -0.0200
    121  CD1       59.5690   52.8660   12.4780 C.ar  270  PHE270     -0.0042
    122  CD2       58.7590   50.8090   11.5810 C.ar  270  PHE270     -0.0042
    123  CE1       60.4200   52.9990   11.3890 C.ar  270  PHE270     -0.0003
    124  CE2       59.6120   50.9390   10.4910 C.ar  270  PHE270     -0.0003
    125  CZ        60.4420   52.0330   10.3980 C.ar  270  PHE270     -0.0000
    126  N         57.6360   51.7510   17.2840 N.am  271  ALA271     -0.1977
    127  CA        56.9040   51.4610   18.5320 C.3   271  ALA271      0.1597
    128  C         55.3730   51.5000   18.3740 C.2   271  ALA271      0.2287
    129  O         54.7950   52.5550   18.0660 O.2   271  ALA271     -0.2864
    130  CB        57.3310   52.4290   19.6150 C.3   271  ALA271      0.0319
    131  N         52.5140   52.0480   19.6090 N.3   273  GLY273     -0.1210
    132  CA        51.4920   52.9660   20.0820 C.3   273  GLY273      0.1956
    133  C         51.5540   54.2850   19.3330 C.2   273  GLY273      0.2613
    134  O         50.5400   54.9720   19.1490 O.2   273  GLY273     -0.2717
    135  N         52.7550   54.6140   18.8650 N.am  274  SER274     -0.1938
    136  CA        53.0340   55.8860   18.2260 C.3   274  SER274      0.2055
    137  C         53.2340   55.7150   16.7150 C.2   274  SER274      0.2642
    138  O         52.2780   55.7590   15.9390 O.2   274  SER274     -0.2714
    139  CB        54.2900   56.4980   18.8450 C.3   274  SER274      0.2130
    140  OG        55.3730   55.5830   18.7630 O.3   274  SER274     -0.2179
    141  N         54.4860   55.4710   16.3220 N.am  275  MET275     -0.1976
    142  CA        54.9160   55.5100   14.9240 C.3   275  MET275      0.1605
    143  C         54.7450   54.1860   14.1730 C.2   275  MET275      0.2287
    144  O         54.7610   54.1580   12.9400 O.2   275  MET275     -0.2864
    145  CB        56.3690   55.9730   14.8670 C.3   275  MET275      0.0413
    146  CG        57.0190   55.9910   13.4760 C.3   275  MET275      0.0598
    147  SD        56.4780   57.3750   12.4320 S.3   275  MET275     -0.1393
    148  CE        57.1830   58.8020   13.2780 C.3   275  MET275      0.0692
    149  N         51.7360   54.3060   11.9830 N.3   278  LYS278     -0.1245
    150  CA        51.9710   55.2490   10.8930 C.3   278  LYS278      0.1561
    151  C         52.7420   54.6240    9.7550 C.2   278  LYS278      0.2260
    152  O         52.3710   54.7520    8.5980 O.2   278  LYS278     -0.2867
    153  CB        52.7250   56.4690   11.3930 C.3   278  LYS278      0.0271
    154  CG        51.9980   57.2400   12.4690 C.3   278  LYS278      0.0035
    155  CD        52.9060   58.3050   13.0270 C.3   278  LYS278      0.0206
    156  CE        52.1120   59.4920   13.4530 C.3   278  LYS278      0.1093
    157  NZ        50.8220   59.0240   14.0190 N.3   278  LYS278     -0.1314
@<TRIPOS>BOND
     1    56    54    1
     2    55    54    1
     3    86    84   am
     4    54    53    1
     5    44    43    2
     6   152   151    2
     7    84    85    2
     8    84    83    1
     9    49    50    1
    10    53    50    1
    11    50    51    1
    12    83    80    1
    13   151   150    1
    14    43    42    1
    15    80    79    1
    16    80    81    1
    17    35    34    2
    18   125   124   ar
    19   125   123   ar
    20   124   122   ar
    21    42    45    1
    22    42    41    1
    23    47    46   ar
    24   150   153    1
    25   150   149    1
    26    81    82    2
    27    51    57   am
    28    51    52    2
    29    45    46    1
    30   123   121   ar
    31   153   154    1
    32    34    41   am
    33    34    33    1
    34    46    48   ar
    35   122   120   ar
    36    57    58    1
    37    75    74    2
    38    39    38    1
    39    39    40    1
    40    87    88    1
    41   147   148    1
    42   147   146    1
    43   154   155    1
    44   121   120   ar
    45    63    61    1
    46    37    38    1
    47    37    36    1
    48   120   119    1
    49    88    89    1
    50    88    91    1
    51    33    36    1
    52    33    32    1
    53    74    73    1
    54   144   143    2
    55    89    90    2
    56   155   156    1
    57   112   114   ar
    58   112   110   ar
    59    58    61    1
    60    58    59    1
    61     1     2    1
    62   114   113   ar
    63    61    62    1
    64   156   157    1
    65    60    59    2
    66   146   145    1
    67   110   109    1
    68   110   111   ar
    69   119   116    1
    70    59    64   am
    71    91    92    1
    72   113   111   ar
    73   109   106    1
    74   143   142    1
    75    78    76    1
    76    17    18    1
    77    73    72    1
    78    73    76    1
    79     2     3    1
    80    72    66   am
    81   105   106    1
    82   115   116    1
    83   115   107   am
    84   145   142    1
    85    64    65    1
    86    76    77    1
    87   142   141    1
    88   116   117    1
    89   106   107    1
    90   107   108    2
    91     4     3    2
    92    18    19    1
    93    15    14    2
    94    16    14   am
    95    66    65    1
    96    66    67    2
    97     3     5   am
    98    65    68    1
    99   138   137    2
   100    14    13    1
   101   118   117    2
   102    20    19    2
   103   117   126   am
   104   141   137   am
   105   137   136    1
   106    12    11    2
   107    11    10    1
   108     5     6    1
   109    68    69    1
   110   126   127    1
   111    13    10    1
   112    70    69   ar
   113     9    10    1
   114     9     7   am
   115    93    94    1
   116    99   101   ar
   117    99    98   ar
   118    94    97    1
   119    94    95    1
   120    69    71   ar
   121     6     7    1
   122     7     8    2
   123    97    98    1
   124   129   128    2
   125   101   103   ar
   126   136   139    1
   127   136   135    1
   128   128   127    1
   129    98   100   ar
   130   127   130    1
   131   140   139    1
   132   135   133   am
   133   103   104    1
   134   103   102   ar
   135   134   133    2
   136    95    96    2
   137   133   132    1
   138   100   102   ar
   139   131   132    1
   140    21    22    1
   141    22    23    1
   142    31    25    1
   143    31    30    1
   144    23    25   am
   145    23    24    2
   146    25    26    1
   147    30    29    1
   148    29    26    1
   149    27    26    1
   150    27    28    2
