@<TRIPOS>MOLECULE
tmp/4jz7B00.pdb
 170 165 0 0 0
SMALL
GASTEIGER

@<TRIPOS>ATOM
      1  N         18.8080   64.7080   66.8230 N.3    11  LEU11      -0.1231
      2  CA        18.2520   65.5260   65.7540 C.3    11  LEU11       0.1693
      3  C         18.1430   64.7320   64.4360 C.2    11  LEU11       0.2593
      4  O         18.8870   63.7700   64.2060 O.2    11  LEU11      -0.2718
      5  CB        19.0950   66.7910   65.5560 C.3    11  LEU11       0.0284
      6  CG        18.6620   68.1250   66.1850 C.3    11  LEU11       0.0019
      7  CD1       17.6810   67.9260   67.3080 C.3    11  LEU11       0.0001
      8  CD2       19.8690   68.9250   66.6610 C.3    11  LEU11       0.0001
      9  N         17.2290   65.1580   63.5630 N.am   12  GLY12      -0.1942
     10  CA        16.9810   64.4690   62.3040 C.3    12  GLY12       0.2014
     11  C         17.3390   65.3300   61.1120 C.2    12  GLY12       0.2639
     12  O         17.9110   66.4090   61.2720 O.2    12  GLY12      -0.2714
     13  N         17.0210   64.8530   59.9110 N.am   13  GLY13      -0.1939
     14  CA        17.4500   65.5350   58.7040 C.3    13  GLY13       0.2014
     15  C         17.1310   67.0280   58.6720 C.2    13  GLY13       0.2638
     16  O         17.9020   67.8220   58.1170 O.2    13  GLY13      -0.2714
     17  N         15.9780   67.4100   59.2190 N.am   14  ASN14      -0.1972
     18  CA        15.4960   68.7870   59.1200 C.3    14  ASN14       0.1688
     19  C         16.2170   69.7850   60.0370 C.2    14  ASN14       0.2292
     20  O         15.8740   70.9700   60.0860 O.2    14  ASN14      -0.2864
     21  CB        13.9860   68.8100   59.3700 C.3    14  ASN14       0.1181
     22  CG        13.6320   68.2670   60.7300 C.2    14  ASN14       0.2629
     23  OD1       14.4230   67.5520   61.3250 O.2    14  ASN14      -0.2716
     24  ND2       12.4570   68.6070   61.2350 N.am   14  ASN14      -0.0877
     25  N         21.8170   63.1380   62.3780 N.3    54  GLY54      -0.1210
     26  CA        22.0790   62.2180   61.2790 C.3    54  GLY54       0.1956
     27  C         23.0760   62.8610   60.3300 C.2    54  GLY54       0.2612
     28  O         23.4870   64.0040   60.5540 O.2    54  GLY54      -0.2717
     29  N         23.4300   62.1800   59.2480 N.am   55  ASN55      -0.1960
     30  CA        24.3860   62.7860   58.3260 C.3    55  ASN55       0.1819
     31  C         24.1580   62.4560   56.8530 C.2    55  ASN55       0.2622
     32  O         24.8530   62.9920   55.9800 O.2    55  ASN55      -0.2715
     33  CB        25.8300   62.4500   58.7460 C.3    55  ASN55       0.1195
     34  CG        26.1010   60.9560   58.7460 C.2    55  ASN55       0.2630
     35  OD1       25.1730   60.1540   58.6490 O.2    55  ASN55      -0.2716
     36  ND2       27.3740   60.5760   58.8490 N.am   55  ASN55      -0.0877
     37  N         23.1880   61.5830   56.5830 N.am   56  GLY56      -0.1940
     38  CA        22.9270   61.0890   55.2340 C.3    56  GLY56       0.1998
     39  C         23.1720   62.0440   54.0720 C.2    56  GLY56       0.2480
     40  O         23.9840   61.7920   53.1790 O.2    56  GLY56      -0.2729
     41  N         22.4470   63.1590   54.0570 N.am   57  PRO57      -0.2726
     42  CA        22.6260   64.0720   52.9320 C.3    57  PRO57       0.1402
     43  C         24.0540   64.6030   52.8540 C.2    57  PRO57       0.2269
     44  O         24.5640   64.8680   51.7630 O.2    57  PRO57      -0.2865
     45  CB        21.6560   65.2000   53.2580 C.3    57  PRO57       0.0296
     46  CG        20.5930   64.5100   54.0540 C.3    57  PRO57       0.0237
     47  CD        21.3120   63.5370   54.9070 C.3    57  PRO57       0.0939
     48  N         21.4290   56.6870   63.0540 N.3   185  LYS185     -0.1231
     49  CA        21.7470   57.7000   64.0330 C.3   185  LYS185      0.1693
     50  C         20.8690   57.5140   65.2940 C.2   185  LYS185      0.2592
     51  O         21.2940   57.8160   66.4230 O.2   185  LYS185     -0.2718
     52  CB        21.6140   59.0770   63.3850 C.3   185  LYS185      0.0285
     53  CG        20.6240   59.9820   64.0340 C.3   185  LYS185      0.0035
     54  CD        19.2470   59.9390   63.4070 C.3   185  LYS185      0.0206
     55  CE        18.3520   60.8950   64.1960 C.3   185  LYS185      0.1093
     56  NZ        17.2170   61.4320   63.4220 N.3   185  LYS185     -0.1314
     57  N         19.6680   56.9660   65.1180 N.am  186  ASP186     -0.1974
     58  CA        18.7900   56.6990   66.2720 C.3   186  ASP186      0.1709
     59  C         19.1680   55.4950   67.1510 C.2   186  ASP186      0.2293
     60  O         19.1490   55.6020   68.3750 O.2   186  ASP186     -0.2864
     61  CB        17.3350   56.6460   65.8160 C.3   186  ASP186      0.1436
     62  CG        16.8690   57.9930   65.3180 C.2   186  ASP186      0.3671
     63  OD1       17.2290   58.9720   66.0090 O.co2 186  ASP186     -0.2456
     64  OD2       16.2070   58.0960   64.2470 O.co2 186  ASP186     -0.2456
     65  N         12.1120   64.8830   65.0360 N.3   205  THR205     -0.1203
     66  CA        11.8900   64.5720   63.6220 C.3   205  THR205      0.1994
     67  C         11.0680   65.6580   62.9050 C.2   205  THR205      0.2618
     68  O         11.1200   66.8270   63.3040 O.2   205  THR205     -0.2717
     69  CB        11.3030   63.1370   63.4800 C.3   205  THR205      0.1784
     70  OG1       11.3770   62.7020   62.1150 O.3   205  THR205     -0.2211
     71  CG2        9.8630   63.0670   63.9930 C.3   205  THR205      0.0376
     72  N         10.3380   65.2910   61.8480 N.am  206  ASP206     -0.1959
     73  CA         9.4960   66.2820   61.1470 C.3   206  ASP206      0.1840
     74  C          7.9930   66.0260   61.3140 C.2   206  ASP206      0.2621
     75  O          7.1670   66.7090   60.7090 O.2   206  ASP206     -0.2715
     76  CB         9.8880   66.4780   59.6650 C.3   206  ASP206      0.1450
     77  CG         9.6320   65.2350   58.7900 C.2   206  ASP206      0.3671
     78  OD1        9.7160   64.0930   59.3060 O.co2 206  ASP206     -0.2456
     79  OD2        9.3670   65.4070   57.5690 O.co2 206  ASP206     -0.2456
     80  N          7.6500   65.0620   62.1660 N.am  207  VAL207     -0.1977
     81  CA         6.2490   64.8150   62.4890 C.3   207  VAL207      0.1596
     82  C          6.0400   64.8980   63.9960 C.2   207  VAL207      0.2287
     83  O          6.9650   64.6470   64.7700 O.2   207  VAL207     -0.2864
     84  CB         5.7670   63.4500   61.9790 C.3   207  VAL207      0.0276
     85  CG1        5.9860   63.3570   60.4640 C.3   207  VAL207      0.0022
     86  CG2        6.4810   62.3220   62.6990 C.3   207  VAL207      0.0022
     87  N          4.0330   63.1030   65.9760 N.3   209  ASN209     -0.1225
     88  CA         3.7860   61.8490   66.6790 C.3   209  ASN209      0.1785
     89  C          4.1280   60.6630   65.7990 C.2   209  ASN209      0.2597
     90  O          4.0710   60.7590   64.5800 O.2   209  ASN209     -0.2718
     91  CB         2.3010   61.7110   67.0720 C.3   209  ASN209      0.1169
     92  CG         1.7850   62.8890   67.8940 C.2   209  ASN209      0.2627
     93  OD1        1.6200   64.0070   67.3870 O.2   209  ASN209     -0.2716
     94  ND2        1.4910   62.6300   69.1610 N.am  209  ASN209     -0.0877
     95  N          4.4860   59.5410   66.4220 N.am  210  ALA210     -0.1966
     96  CA         4.4640   58.2570   65.7260 C.3   210  ALA210      0.1728
     97  C          3.0030   57.8570   65.5420 C.2   210  ALA210      0.2616
     98  O          2.1990   58.0110   66.4760 O.2   210  ALA210     -0.2715
     99  CB         5.1900   57.2110   66.5240 C.3   210  ALA210      0.0334
    100  N          2.6600   57.3540   64.3550 N.am  211  CYS211     -0.1968
    101  CA         1.2900   56.9000   64.1030 C.3   211  CYS211      0.1712
    102  C          1.2010   55.3970   63.8440 C.2   211  CYS211      0.2296
    103  O          2.1950   54.7470   63.5230 O.2   211  CYS211     -0.2864
    104  CB         0.7070   57.6400   62.9140 C.3   211  CYS211      0.0983
    105  SG         0.7530   59.3980   63.1190 S.3   211  CYS211     -0.0798
    106  N         -0.3460   54.7750   59.2810 N.3   214  TYR214     -0.1241
    107  CA         0.0940   56.0920   58.8140 C.3   214  TYR214      0.1605
    108  C         -0.5140   56.4250   57.4590 C.2   214  TYR214      0.2264
    109  O         -0.4590   55.6120   56.5260 O.2   214  TYR214     -0.2867
    110  CB         1.6400   56.1890   58.7040 C.3   214  TYR214      0.0534
    111  CG         2.0970   57.6190   58.4550 C.ar  214  TYR214     -0.0201
    112  CD1        1.6650   58.6310   59.2990 C.ar  214  TYR214     -0.0009
    113  CD2        2.9050   57.9680   57.3740 C.ar  214  TYR214     -0.0009
    114  CE1        2.0220   59.9470   59.1030 C.ar  214  TYR214      0.0417
    115  CE2        3.2800   59.3100   57.1670 C.ar  214  TYR214      0.0417
    116  CZ         2.8230   60.2910   58.0530 C.ar  214  TYR214      0.1957
    117  OH         3.1300   61.6330   57.9400 O.3   214  TYR214     -0.2866
    118  N          3.4600   48.4780   61.9360 N.3   238  HIS238     -0.1226
    119  CA         2.9950   49.8370   61.6710 C.3   238  HIS238      0.1752
    120  C          4.1260   50.8160   61.3420 C.2   238  HIS238      0.2596
    121  O          3.8670   51.9120   60.8440 O.2   238  HIS238     -0.2718
    122  CB         2.2060   50.3810   62.8640 C.3   238  HIS238      0.0759
    123  CG         0.9660   49.6080   63.1670 C.ar  238  HIS238      0.0818
    124  ND1        0.8760   48.7300   64.2250 N.ar  238  HIS238     -0.2268
    125  CD2       -0.2340   49.5680   62.5390 C.ar  238  HIS238      0.1154
    126  CE1       -0.3260   48.1850   64.2410 C.ar  238  HIS238      0.1986
    127  NE2       -1.0160   48.6740   63.2250 N.ar  238  HIS238     -0.2212
    128  N          5.3700   50.4400   61.6290 N.am  239  PHE239     -0.1962
    129  CA         6.4850   51.3810   61.4680 C.3   239  PHE239      0.1771
    130  C          7.4750   51.0310   60.3480 C.2   239  PHE239      0.2619
    131  O          8.3720   50.2000   60.5180 O.2   239  PHE239     -0.2715
    132  CB         7.2350   51.5360   62.7970 C.3   239  PHE239      0.0574
    133  CG         6.3230   51.6230   64.0010 C.ar  239  PHE239     -0.0200
    134  CD1        5.4310   52.6850   64.1440 C.ar  239  PHE239     -0.0042
    135  CD2        6.3530   50.6380   64.9860 C.ar  239  PHE239     -0.0042
    136  CE1        4.5910   52.7600   65.2460 C.ar  239  PHE239     -0.0003
    137  CE2        5.5160   50.7100   66.0920 C.ar  239  PHE239     -0.0003
    138  CZ         4.6370   51.7750   66.2220 C.ar  239  PHE239     -0.0000
    139  N          7.2920   51.6850   59.2030 N.am  240  ALA240     -0.1977
    140  CA         8.1500   51.5100   58.0310 C.3   240  ALA240      0.1597
    141  C          9.6460   51.5080   58.3680 C.2   240  ALA240      0.2287
    142  O         10.1730   52.4460   58.9740 O.2   240  ALA240     -0.2864
    143  CB         7.8280   52.5810   56.9670 C.3   240  ALA240      0.0319
    144  N         12.1760   52.2290   56.8510 N.3   242  GLY242     -0.1210
    145  CA        13.0070   53.2990   56.3220 C.3   242  GLY242      0.1956
    146  C         13.1090   54.5050   57.2490 C.2   242  GLY242      0.2613
    147  O         14.1110   55.2130   57.2550 O.2   242  GLY242     -0.2717
    148  N         12.0830   54.7070   58.0740 N.am  243  SER243     -0.1938
    149  CA        11.8920   55.9750   58.7640 C.3   243  SER243      0.2055
    150  C         11.6020   55.7910   60.2580 C.2   243  SER243      0.2642
    151  O         12.4560   56.0290   61.1070 O.2   243  SER243     -0.2714
    152  CB        10.7320   56.7000   58.1090 C.3   243  SER243      0.2130
    153  OG         9.6530   55.7950   57.9400 O.3   243  SER243     -0.2179
    154  N         10.3790   55.3750   60.5670 N.am  244  MET244     -0.1976
    155  CA         9.9120   55.3360   61.9490 C.3   244  MET244      0.1605
    156  C         10.2740   54.0520   62.6710 C.2   244  MET244      0.2287
    157  O         10.4200   54.0460   63.8940 O.2   244  MET244     -0.2864
    158  CB         8.4020   55.5330   62.0050 C.3   244  MET244      0.0413
    159  CG         7.9020   55.9200   63.3870 C.3   244  MET244      0.0598
    160  SD         8.7450   57.4000   63.9860 S.3   244  MET244     -0.1393
    161  CE         8.0470   58.6560   62.9020 C.3   244  MET244      0.0692
    162  N         13.3540   54.2930   64.6960 N.3   247  LYS247     -0.1245
    163  CA        13.1120   55.2830   65.7540 C.3   247  LYS247      0.1561
    164  C         12.3870   54.6560   66.9470 C.2   247  LYS247      0.2260
    165  O         12.7960   54.8300   68.0910 O.2   247  LYS247     -0.2867
    166  CB        12.3190   56.4800   65.2220 C.3   247  LYS247      0.0271
    167  CG        13.0580   57.3340   64.2110 C.3   247  LYS247      0.0035
    168  CD        12.0940   58.2600   63.4960 C.3   247  LYS247      0.0206
    169  CE        12.7310   59.6000   63.2210 C.3   247  LYS247      0.1093
    170  NZ        14.0800   59.4080   62.6460 N.3   247  LYS247     -0.1314
@<TRIPOS>BOND
     1    44    43    2
     2    43    42    1
     3    42    45    1
     4    42    41    1
     5    40    39    2
     6    45    46    1
     7    46    47    1
     8    41    39   am
     9    41    47    1
    10    39    38    1
    11    38    37    1
    12    32    31    2
    13   145   144    1
    14   145   146    1
    15   109   108    2
    16    37    31   am
    17    31    30    1
    18   143   140    1
    19   115   113   ar
    20   115   116   ar
    21   146   147    2
    22   146   148   am
    23   113   111   ar
    24   108   107    1
    25    79    77   ar
    26   153   152    1
    27   117   116    1
    28   140   141    1
    29   140   139    1
    30   116   114   ar
    31   148   149    1
    32   152   149    1
    33    16    15    2
    34    30    33    1
    35    30    29    1
    36   141   142    2
    37   111   110    1
    38   111   112   ar
    39    35    34    2
    40    15    14    1
    41    15    17   am
    42   110   107    1
    43    14    13    1
    44    34    33    1
    45    34    36   am
    46   149   150    1
    47    77    78   ar
    48    77    76    1
    49   107   106    1
    50   114   112   ar
    51    18    17    1
    52    18    21    1
    53    18    19    1
    54   139   130   am
    55    29    27   am
    56    21    22    1
    57    76    73    1
    58    13    11   am
    59    19    20    2
    60   150   154   am
    61   150   151    2
    62    27    28    2
    63    27    26    1
    64   130   131    2
    65   130   129    1
    66    85    84    1
    67   154   155    1
    68    75    74    2
    69    22    24   am
    70    22    23    2
    71   121   120    2
    72    11    12    2
    73    11    10    1
    74    73    74    1
    75    73    72    1
    76    26    25    1
    77    74    80   am
    78   120   128   am
    79   120   119    1
    80   129   128    1
    81   129   132    1
    82   119   118    1
    83   119   122    1
    84    72    67   am
    85   155   158    1
    86   155   156    1
    87    84    81    1
    88    84    86    1
    89   158   159    1
    90    70    69    1
    91    80    81    1
    92    10     9    1
    93    81    82    1
    94   125   123   ar
    95   125   127   ar
    96   170   169    1
    97   156   157    2
    98   132   133    1
    99   122   123    1
   100   161   160    1
   101    67    68    2
   102    67    66    1
   103   104   105    1
   104   104   101    1
   105    48    49    1
   106   123   124   ar
   107   169   168    1
   108   127   126   ar
   109    52    49    1
   110    52    53    1
   111   159   160    1
   112    54    53    1
   113    54    55    1
   114    56    55    1
   115    69    66    1
   116    69    71    1
   117   168   167    1
   118   103   102    2
   119     9     3   am
   120    66    65    1
   121   102   101    1
   122    82    83    2
   123   133   134   ar
   124   133   135   ar
   125    49    50    1
   126   101   100    1
   127   134   136   ar
   128     4     3    2
   129   167   166    1
   130   124   126   ar
   131    64    62   ar
   132   100    97   am
   133     3     2    1
   134    90    89    2
   135   162   163    1
   136   135   137   ar
   137    57    50   am
   138    57    58    1
   139   166   163    1
   140   136   138   ar
   141    50    51    2
   142    62    61    1
   143    62    63   ar
   144    97    96    1
   145    97    98    2
   146     5     2    1
   147     5     6    1
   148    96    95    1
   149    96    99    1
   150   163   164    1
   151     2     1    1
   152    89    95   am
   153    89    88    1
   154    61    58    1
   155    87    88    1
   156   137   138   ar
   157     6     8    1
   158     6     7    1
   159    58    59    1
   160    88    91    1
   161   164   165    2
   162    91    92    1
   163    59    60    2
   164    93    92    2
   165    92    94   am
