@<TRIPOS>MOLECULE
tmp/4jz9A00.pdb
 103 98 0 0 0
SMALL
GASTEIGER

@<TRIPOS>ATOM
      1  N         52.5750   68.0020   62.7550 N.3    12  GLY12      -0.1210
      2  CA        52.7600   68.6200   61.4660 C.3    12  GLY12       0.1956
      3  C         52.2280   67.7610   60.3440 C.2    12  GLY12       0.2612
      4  O         51.5660   66.7440   60.5750 O.2    12  GLY12      -0.2717
      5  N         52.5150   68.1920   59.1220 N.am   13  GLY13      -0.1956
      6  CA        52.1100   67.4680   57.9320 C.3    13  GLY13       0.1869
      7  C         52.6260   66.0440   57.9280 C.2    13  GLY13       0.2309
      8  O         52.0530   65.1750   57.2870 O.2    13  GLY13      -0.2863
      9  N         51.2780   62.9920   56.0940 N.3    17  LEU17      -0.1245
     10  CA        52.0080   62.8070   54.8450 C.3    17  LEU17       0.1561
     11  C         53.5360   62.7820   55.0450 C.2    17  LEU17       0.2260
     12  O         54.0910   63.5680   55.8240 O.2    17  LEU17      -0.2867
     13  CB        51.6150   63.8750   53.7970 C.3    17  LEU17       0.0270
     14  CG        50.6440   63.4170   52.7140 C.3    17  LEU17       0.0019
     15  CD1       50.4110   61.9020   52.7740 C.3    17  LEU17       0.0001
     16  CD2       49.3470   64.1730   52.8540 C.3    17  LEU17       0.0001
     17  N         47.9850   70.3920   61.6670 N.3    54  GLY54      -0.1210
     18  CA        47.6750   71.1710   60.4800 C.3    54  GLY54       0.1956
     19  C         46.7000   70.4080   59.5820 C.2    54  GLY54       0.2612
     20  O         46.3440   69.2590   59.8760 O.2    54  GLY54      -0.2717
     21  N         46.2640   71.0280   58.4880 N.am   55  ASN55      -0.1960
     22  CA        45.4140   70.3190   57.5400 C.3    55  ASN55       0.1819
     23  C         45.6360   70.6990   56.0820 C.2    55  ASN55       0.2622
     24  O         44.7910   70.3710   55.2190 O.2    55  ASN55      -0.2715
     25  CB        43.9300   70.4770   57.9070 C.3    55  ASN55       0.1195
     26  CG        43.4450   71.9060   57.8050 C.2    55  ASN55       0.2630
     27  OD1       44.2190   72.8380   57.6270 O.2    55  ASN55      -0.2716
     28  ND2       42.1500   72.0830   57.9350 N.am   55  ASN55      -0.0877
     29  N         46.7560   71.3790   55.8140 N.am   56  GLY56      -0.1940
     30  CA        47.1070   71.8480   54.4870 C.3    56  GLY56       0.1998
     31  C         46.7140   70.8990   53.3650 C.2    56  GLY56       0.2480
     32  O         45.8480   71.2100   52.5500 O.2    56  GLY56      -0.2729
     33  N         47.3310   69.7180   53.3320 N.am   57  PRO57      -0.2726
     34  CA        47.0820   68.7500   52.2560 C.3    57  PRO57       0.1402
     35  C         45.6340   68.2280   52.2500 C.2    57  PRO57       0.2269
     36  O         45.0130   68.0390   51.1880 O.2    57  PRO57      -0.2865
     37  CB        48.0730   67.6100   52.5820 C.3    57  PRO57       0.0296
     38  CG        49.0750   68.2210   53.5300 C.3    57  PRO57       0.0237
     39  CD        48.2800   69.1970   54.3280 C.3    57  PRO57       0.0939
     40  N         49.1260   81.4500   52.6140 N.3   131  LYS131     -0.1231
     41  CA        49.2800   80.0660   53.0570 C.3   131  LYS131      0.1678
     42  C         49.0670   79.0060   51.9820 C.2   131  LYS131      0.2434
     43  O         47.9840   78.9110   51.3860 O.2   131  LYS131     -0.2733
     44  CB        48.4450   79.7550   54.3120 C.3   131  LYS131      0.0284
     45  CG        48.7670   78.3810   54.9060 C.3   131  LYS131      0.0035
     46  CD        47.9230   78.0330   56.1620 C.3   131  LYS131      0.0206
     47  CE        48.7390   77.2360   57.2010 C.3   131  LYS131      0.1093
     48  NZ        49.3500   75.9880   56.6260 N.3   131  LYS131     -0.1314
     49  N         50.1200   78.2040   51.7360 N.am  132  PRO132     -0.2729
     50  CA        50.0860   77.0250   50.8640 C.3   132  PRO132      0.1401
     51  C         49.1830   75.9070   51.3970 C.2   132  PRO132      0.2269
     52  O         49.2230   75.5260   52.5760 O.2   132  PRO132     -0.2865
     53  CB        51.5540   76.5640   50.8240 C.3   132  PRO132      0.0296
     54  CG        52.1860   77.1710   52.0190 C.3   132  PRO132      0.0237
     55  CD        51.4870   78.4830   52.2150 C.3   132  PRO132      0.0939
     56  N         51.0090   69.9430   45.1140 N.3   136  PHE136     -0.1241
     57  CA        51.8100   70.7870   44.2350 C.3   136  PHE136      0.1605
     58  C         51.3870   70.6540   42.7580 C.2   136  PHE136      0.2264
     59  O         51.0810   69.5550   42.2780 O.2   136  PHE136     -0.2867
     60  CB        53.3010   70.4610   44.4340 C.3   136  PHE136      0.0534
     61  CG        53.7180   70.3590   45.8980 C.ar  136  PHE136     -0.0203
     62  CD1       53.4000   69.2260   46.6550 C.ar  136  PHE136     -0.0042
     63  CD2       54.4240   71.3890   46.5130 C.ar  136  PHE136     -0.0042
     64  CE1       53.7720   69.1220   48.0000 C.ar  136  PHE136     -0.0003
     65  CE2       54.8000   71.2920   47.8530 C.ar  136  PHE136     -0.0003
     66  CZ        54.4700   70.1540   48.5960 C.ar  136  PHE136     -0.0000
     67  N         51.6780   75.9890   44.5010 N.3   163  ARG163     -0.1245
     68  CA        50.5510   75.6690   45.4020 C.3   163  ARG163      0.1563
     69  C         49.5230   76.8080   45.5620 C.2   163  ARG163      0.2260
     70  O         49.8980   77.9830   45.6320 O.2   163  ARG163     -0.2867
     71  CB        51.0500   75.2290   46.7970 C.3   163  ARG163      0.0307
     72  CG        51.5550   73.7760   46.9150 C.3   163  ARG163      0.0489
     73  CD        50.9790   73.0300   48.1500 C.3   163  ARG163      0.2205
     74  NE        51.7200   73.2210   49.4080 N.pl3 163  ARG163     -0.0865
     75  CZ        51.4000   72.6590   50.5830 C.cat 163  ARG163      0.5346
     76  NH1       50.3380   71.8570   50.7020 N.pl3 163  ARG163      0.1354
     77  NH2       52.1470   72.9020   51.6570 N.pl3 163  ARG163      0.1354
     78  N         48.3450   76.6220   61.9930 N.3   216  LYS216     -0.1231
     79  CA        48.3830   75.6090   63.0470 C.3   216  LYS216      0.1693
     80  C         49.1790   76.0680   64.2900 C.2   216  LYS216      0.2592
     81  O         48.6610   76.0700   65.4100 O.2   216  LYS216     -0.2718
     82  CB        48.9940   74.3050   62.4870 C.3   216  LYS216      0.0285
     83  CG        49.7810   73.4550   63.5190 C.3   216  LYS216      0.0035
     84  CD        50.4930   72.2360   62.9110 C.3   216  LYS216      0.0206
     85  CE        51.9650   72.5020   62.5820 C.3   216  LYS216      0.1093
     86  NZ        52.8830   71.9110   63.5700 N.3   216  LYS216     -0.1314
     87  N         50.4350   76.4550   64.0850 N.am  217  ASP217     -0.1974
     88  CA        51.3300   76.7730   65.1870 C.3   217  ASP217      0.1709
     89  C         50.8910   77.9790   65.9950 C.2   217  ASP217      0.2293
     90  O         50.8120   77.9080   67.2160 O.2   217  ASP217     -0.2864
     91  CB        52.7570   76.9430   64.6660 C.3   217  ASP217      0.1436
     92  CG        53.2930   75.6630   64.0320 C.2   217  ASP217      0.3671
     93  OD1       52.9760   74.5830   64.5730 O.co2 217  ASP217     -0.2456
     94  OD2       54.0030   75.7170   63.0000 O.co2 217  ASP217     -0.2456
     95  N         56.8830   78.8400   63.4500 N.3   278  LYS278     -0.1245
     96  CA        57.1360   77.8530   64.4810 C.3   278  LYS278      0.1561
     97  C         57.9610   78.4580   65.6170 C.2   278  LYS278      0.2260
     98  O         57.7810   78.1380   66.8080 O.2   278  LYS278     -0.2867
     99  CB        57.8520   76.6430   63.8950 C.3   278  LYS278      0.0271
    100  CG        56.9300   75.5460   63.3980 C.3   278  LYS278      0.0035
    101  CD        57.7230   74.3240   62.9280 C.3   278  LYS278      0.0206
    102  CE        57.2120   73.7850   61.5880 C.3   278  LYS278      0.1093
    103  NZ        55.7890   73.3060   61.6150 N.3   278  LYS278     -0.1314
@<TRIPOS>BOND
     1    59    58    2
     2    58    57    1
     3    57    60    1
     4    57    56    1
     5    60    61    1
     6    67    68    1
     7    68    69    1
     8    68    71    1
     9    69    70    2
    10    61    63   ar
    11    61    62   ar
    12    63    65   ar
    13    62    64   ar
    14    71    72    1
    15    72    73    1
    16    65    66   ar
    17    64    66   ar
    18    73    74    1
    19    74    75    2
    20    75    76    1
    21    75    77    1
    22    53    50    1
    23    53    54    1
    24    50    51    1
    25    50    49    1
    26    36    35    2
    27    43    42    2
    28    51    52    2
    29    49    42   am
    30    49    55    1
    31    42    41    1
    32    54    55    1
    33    35    34    1
    34    34    37    1
    35    34    33    1
    36    32    31    2
    37    37    38    1
    38    40    41    1
    39    14    15    1
    40    14    16    1
    41    14    13    1
    42    41    44    1
    43    33    31   am
    44    33    39    1
    45    31    30    1
    46    38    39    1
    47    13    10    1
    48    44    45    1
    49    30    29    1
    50    10    11    1
    51    10     9    1
    52    45    46    1
    53    11    12    2
    54    24    23    2
    55    29    23   am
    56    23    22    1
    57    46    47    1
    58    48    47    1
    59     8     7    2
    60    22    25    1
    61    22    21    1
    62    27    26    2
    63    26    25    1
    64    26    28   am
    65     7     6    1
    66     6     5    1
    67    21    19   am
    68     5     3   am
    69    19    20    2
    70    19    18    1
    71     3     4    2
    72     3     2    1
    73    18    17    1
    74     2     1    1
    75   102   103    1
    76   102   101    1
    77    78    79    1
    78    82    79    1
    79    82    83    1
    80    85    84    1
    81    85    86    1
    82    84    83    1
    83   101   100    1
    84    94    92   ar
    85    79    80    1
    86   100    99    1
    87    95    96    1
    88    99    96    1
    89    92    93   ar
    90    92    91    1
    91    87    80   am
    92    87    88    1
    93    80    81    2
    94    96    97    1
    95    91    88    1
    96    88    89    1
    97    97    98    2
    98    89    90    2
