@<TRIPOS>MOLECULE
tmp/4jzbB01.pdb
 197 185 0 0 0
SMALL
GASTEIGER

@<TRIPOS>ATOM
      1  N         68.0860   26.1170   33.5350 N.3    92  HIS92      -0.1226
      2  CA        66.8270   26.7680   33.8960 C.3    92  HIS92       0.1752
      3  C         65.9790   25.8810   34.8130 C.2    92  HIS92       0.2596
      4  O         65.5620   26.3200   35.8960 O.2    92  HIS92      -0.2718
      5  CB        66.0420   27.1350   32.6130 C.3    92  HIS92       0.0759
      6  CG        64.5730   27.3360   32.8290 C.ar   92  HIS92       0.0818
      7  ND1       64.0620   28.3930   33.5540 N.ar   92  HIS92      -0.2268
      8  CD2       63.5050   26.6140   32.4100 C.ar   92  HIS92       0.1154
      9  CE1       62.7410   28.3100   33.5750 C.ar   92  HIS92       0.1986
     10  NE2       62.3800   27.2400   32.8860 N.ar   92  HIS92      -0.2212
     11  N         65.7240   24.6430   34.3780 N.am   93  PHE93      -0.1962
     12  CA        64.9010   23.7050   35.1510 C.3    93  PHE93       0.1771
     13  C         65.4910   23.4490   36.5330 C.2    93  PHE93       0.2619
     14  O         64.7570   23.3840   37.5130 O.2    93  PHE93      -0.2715
     15  CB        64.7350   22.3580   34.4280 C.3    93  PHE93       0.0574
     16  CG        63.8650   22.4080   33.1830 C.ar   93  PHE93      -0.0200
     17  CD1       64.1160   21.5300   32.1230 C.ar   93  PHE93      -0.0042
     18  CD2       62.8060   23.3060   33.0710 C.ar   93  PHE93      -0.0042
     19  CE1       63.3220   21.5430   30.9650 C.ar   93  PHE93      -0.0003
     20  CE2       61.9980   23.3380   31.9100 C.ar   93  PHE93      -0.0003
     21  CZ        62.2590   22.4500   30.8630 C.ar   93  PHE93      -0.0000
     22  N         66.8130   23.2950   36.6100 N.am   94  LEU94      -0.1977
     23  CA        67.4420   22.9510   37.8900 C.3    94  LEU94       0.1596
     24  C         67.4610   24.1040   38.8860 C.2    94  LEU94       0.2287
     25  O         67.2840   23.8770   40.0840 O.2    94  LEU94      -0.2864
     26  CB        68.8480   22.3570   37.7040 C.3    94  LEU94       0.0297
     27  CG        69.0440   21.1090   36.8220 C.3    94  LEU94       0.0022
     28  CD1       70.4840   20.6190   36.9250 C.3    94  LEU94       0.0001
     29  CD2       68.0810   19.9780   37.1840 C.3    94  LEU94       0.0001
     30  N         65.1520   26.4420   39.0590 N.3    96  GLU96      -0.1231
     31  CA        63.7770   26.5080   39.5470 C.3    96  GLU96       0.1699
     32  C         63.4270   25.3000   40.4040 C.2    96  GLU96       0.2592
     33  O         62.7650   25.4530   41.4240 O.2    96  GLU96      -0.2718
     34  CB        62.7620   26.6650   38.4000 C.3    96  GLU96       0.0402
     35  CG        63.0470   27.8090   37.4080 C.3    96  GLU96       0.1161
     36  CD        62.9730   29.2300   37.9930 C.2    96  GLU96       0.3649
     37  OE1       62.6250   29.4390   39.1830 O.co2  96  GLU96      -0.2457
     38  OE2       63.2710   30.1700   37.2190 O.co2  96  GLU96      -0.2457
     39  N         63.8680   24.1090   39.9920 N.am   97  ASP97      -0.1960
     40  CA        63.6310   22.9010   40.7930 C.3    97  ASP97       0.1840
     41  C         64.2480   22.9850   42.1940 C.2    97  ASP97       0.2622
     42  O         63.6060   22.6330   43.1830 O.2    97  ASP97      -0.2715
     43  CB        64.1780   21.6630   40.0920 C.3    97  ASP97       0.1450
     44  CG        63.8840   20.3940   40.8650 C.2    97  ASP97       0.3671
     45  OD1       64.8340   19.7540   41.3390 O.co2  97  ASP97      -0.2456
     46  OD2       62.7000   20.0570   41.0120 O.co2  97  ASP97      -0.2456
     47  N         65.4980   23.4380   42.2770 N.am   98  ASP98      -0.1971
     48  CA        66.1820   23.5390   43.5640 C.3    98  ASP98       0.1709
     49  C         65.4540   24.4700   44.5330 C.2    98  ASP98       0.2293
     50  O         65.4100   24.2040   45.7360 O.2    98  ASP98      -0.2864
     51  CB        67.6530   23.9350   43.3780 C.3    98  ASP98       0.1436
     52  CG        68.5000   22.7820   42.8470 C.2    98  ASP98       0.3671
     53  OD1       68.0680   21.6120   42.9700 O.co2  98  ASP98      -0.2456
     54  OD2       69.5900   23.0460   42.3030 O.co2  98  ASP98      -0.2456
     55  N         62.0800   25.0230   44.3070 N.3   100  MET100     -0.1230
     56  CA        60.8280   24.3070   44.5860 C.3   100  MET100      0.1702
     57  C         61.0300   23.1620   45.5680 C.2   100  MET100      0.2592
     58  O         60.1790   22.9270   46.4370 O.2   100  MET100     -0.2718
     59  CB        60.1880   23.8010   43.2840 C.3   100  MET100      0.0401
     60  CG        59.5310   24.9190   42.4540 C.3   100  MET100      0.0596
     61  SD        58.7040   24.3360   40.9510 S.3   100  MET100     -0.1393
     62  CE        59.9810   24.5320   39.7290 C.3   100  MET100      0.0692
     63  N         62.1610   22.4690   45.4420 N.am  101  ASP101     -0.1974
     64  CA        62.4830   21.3430   46.3220 C.3   101  ASP101      0.1709
     65  C         63.1600   21.7550   47.6390 C.2   101  ASP101      0.2293
     66  O         63.4070   20.8990   48.5010 O.2   101  ASP101     -0.2864
     67  CB        63.3720   20.3290   45.5970 C.3   101  ASP101      0.1436
     68  CG        62.6120   19.4880   44.5790 C.2   101  ASP101      0.3671
     69  OD1       61.3640   19.5480   44.5140 O.co2 101  ASP101     -0.2456
     70  OD2       63.2770   18.7480   43.8250 O.co2 101  ASP101     -0.2456
     71  N         66.2290   22.5830   48.0800 N.3   103  SER103     -0.1217
     72  CA        67.4200   21.7280   48.1130 C.3   103  SER103      0.1889
     73  C         68.6900   22.4540   48.5600 C.2   103  SER103      0.2288
     74  O         68.7510   23.6830   48.5440 O.2   103  SER103     -0.2866
     75  CB        67.6410   21.0630   46.7470 C.3   103  SER103      0.2089
     76  OG        66.6020   20.1480   46.4420 O.3   103  SER103     -0.2183
     77  N         73.8840   21.0960   44.4870 N.3   106  ARG106     -0.1245
     78  CA        73.7290   20.7410   43.0830 C.3   106  ARG106      0.1563
     79  C         75.1210   20.7260   42.4610 C.2   106  ARG106      0.2260
     80  O         75.8650   21.6990   42.5920 O.2   106  ARG106     -0.2867
     81  CB        72.8490   21.7860   42.3740 C.3   106  ARG106      0.0307
     82  CG        72.7790   21.6770   40.8510 C.3   106  ARG106      0.0489
     83  CD        71.9950   20.4590   40.3950 C.3   106  ARG106      0.2205
     84  NE        70.5700   20.5540   40.7140 N.pl3 106  ARG106     -0.0865
     85  CZ        69.6840   19.5790   40.5030 C.cat 106  ARG106      0.5346
     86  NH1       70.0640   18.4220   39.9670 N.pl3 106  ARG106      0.1354
     87  NH2       68.4090   19.7660   40.8220 N.pl3 106  ARG106      0.1354
     88  N         57.7440   19.4680   29.6790 N.3   162  THR162     -0.1203
     89  CA        58.4790   19.3320   30.9360 C.3   162  THR162      0.1994
     90  C         57.7780   20.0360   32.1130 C.2   162  THR162      0.2618
     91  O         57.7220   19.4790   33.2220 O.2   162  THR162     -0.2717
     92  CB        59.9600   19.7930   30.7850 C.3   162  THR162      0.1784
     93  OG1       60.5380   19.1960   29.6090 O.3   162  THR162     -0.2211
     94  CG2       60.7840   19.3810   32.0020 C.3   162  THR162      0.0376
     95  N         57.2630   21.2460   31.8780 N.am  163  THR163     -0.1952
     96  CA        56.4680   21.9700   32.8980 C.3   163  THR163      0.1897
     97  C         55.2050   21.1890   33.3010 C.2   163  THR163      0.2313
     98  O         54.7910   21.2300   34.4550 O.2   163  THR163     -0.2863
     99  CB        56.0920   23.4400   32.4810 C.3   163  THR163      0.1794
    100  OG1       55.2100   23.4340   31.3510 O.3   163  THR163     -0.2208
    101  CG2       57.3270   24.2580   32.1570 C.3   163  THR163      0.0378
    102  N         56.4260   18.4130   35.4560 N.3   166  GLN166     -0.1245
    103  CA        56.6840   19.0140   36.7660 C.3   166  GLN166      0.1566
    104  C         55.3950   19.2540   37.5650 C.2   166  GLN166      0.2260
    105  O         55.3730   19.0500   38.7850 O.2   166  GLN166     -0.2867
    106  CB        57.5180   20.3050   36.6330 C.3   166  GLN166      0.0367
    107  CG        57.8650   20.9880   37.9710 C.3   166  GLN166      0.0905
    108  CD        58.7820   20.1600   38.8700 C.2   166  GLN166      0.2608
    109  OE1       59.1110   19.0130   38.5650 O.2   166  GLN166     -0.2717
    110  NE2       59.2080   20.7570   39.9860 N.am  166  GLN166     -0.0878
    111  N         54.5830   16.0270   38.9990 N.3   169  ASP169     -0.1239
    112  CA        55.5230   15.7880   40.0990 C.3   169  ASP169      0.1674
    113  C         55.1020   16.5000   41.3950 C.2   169  ASP169      0.2266
    114  O         55.0070   15.8670   42.4570 O.2   169  ASP169     -0.2867
    115  CB        56.9430   16.1890   39.6740 C.3   169  ASP169      0.1410
    116  CG        57.9710   15.9910   40.7850 C.2   169  ASP169      0.3668
    117  OD1       58.7340   15.0180   40.7070 O.co2 169  ASP169     -0.2456
    118  OD2       58.0080   16.8040   41.7350 O.co2 169  ASP169     -0.2456
    119  N         58.3790   14.7950   32.7010 N.3   206  LYS206     -0.1231
    120  CA        59.3430   15.6850   33.3690 C.3   206  LYS206      0.1693
    121  C         60.7930   15.4580   32.9400 C.2   206  LYS206      0.2592
    122  O         61.6220   16.3570   33.0870 O.2   206  LYS206     -0.2718
    123  CB        59.2200   15.6480   34.9110 C.3   206  LYS206      0.0285
    124  CG        60.0530   14.5720   35.6020 C.3   206  LYS206      0.0035
    125  CD        60.1590   14.8010   37.1160 C.3   206  LYS206      0.0206
    126  CE        60.9080   13.6460   37.8060 C.3   206  LYS206      0.1093
    127  NZ        60.9270   13.8060   39.3050 N.3   206  LYS206     -0.1314
    128  N         61.0960   14.2840   32.3830 N.am  207  THR207     -0.1953
    129  CA        62.4950   13.9400   32.0870 C.3   207  THR207      0.1897
    130  C         62.7670   13.4410   30.6610 C.2   207  THR207      0.2313
    131  O         63.7080   13.9000   30.0150 O.2   207  THR207     -0.2863
    132  CB        63.0430   12.8980   33.1230 C.3   207  THR207      0.1794
    133  OG1       63.1450   13.5100   34.4130 O.3   207  THR207     -0.2208
    134  CG2       64.4290   12.3470   32.7080 C.3   207  THR207      0.0378
    135  N         62.9080   16.0750   27.4550 N.3   210  TYR210     -0.1241
    136  CA        64.0230   17.0230   27.3580 C.3   210  TYR210      0.1605
    137  C         65.4120   16.3890   27.4460 C.2   210  TYR210      0.2264
    138  O         66.3880   16.9550   26.9590 O.2   210  TYR210     -0.2867
    139  CB        63.8400   18.2010   28.3280 C.3   210  TYR210      0.0534
    140  CG        64.4610   18.0760   29.7000 C.ar  210  TYR210     -0.0201
    141  CD1       65.7000   18.6700   29.9780 C.ar  210  TYR210     -0.0009
    142  CD2       63.7920   17.4260   30.7310 C.ar  210  TYR210     -0.0009
    143  CE1       66.2610   18.5970   31.2350 C.ar  210  TYR210      0.0417
    144  CE2       64.3550   17.3440   32.0040 C.ar  210  TYR210      0.0417
    145  CZ        65.5880   17.9310   32.2430 C.ar  210  TYR210      0.1957
    146  OH        66.1410   17.8660   33.4960 O.3   210  TYR210     -0.2866
    147  N         65.3640    8.3090   34.6220 N.3   246  GLN246     -0.1245
    148  CA        64.7530    8.8800   35.8210 C.3   246  GLN246      0.1566
    149  C         64.6170    7.8460   36.9350 C.2   246  GLN246      0.2260
    150  O         64.7770    8.1780   38.1090 O.2   246  GLN246     -0.2867
    151  CB        63.3950    9.5270   35.5280 C.3   246  GLN246      0.0367
    152  CG        62.8410   10.3510   36.7080 C.3   246  GLN246      0.0905
    153  CD        63.7840   11.4550   37.1600 C.2   246  GLN246      0.2608
    154  OE1       64.3380   12.1910   36.3420 O.2   246  GLN246     -0.2717
    155  NE2       63.9630   11.5790   38.4710 N.am  246  GLN246     -0.0878
    156  N         67.8220    7.9110   38.5900 N.3   249  ASP249     -0.1225
    157  CA        67.8400    9.0950   39.4500 C.3   249  ASP249      0.1805
    158  C         67.1110    8.8120   40.7700 C.2   249  ASP249      0.2597
    159  O         67.6420    9.1010   41.8380 O.2   249  ASP249     -0.2718
    160  CB        67.2210   10.3020   38.7300 C.3   249  ASP249      0.1424
    161  CG        67.4810   11.6100   39.4530 C.2   249  ASP249      0.3668
    162  OD1       68.6640   11.9990   39.5540 O.co2 249  ASP249     -0.2456
    163  OD2       66.5030   12.2490   39.9170 O.co2 249  ASP249     -0.2456
    164  N         65.9130    8.2240   40.6820 N.am  250  ASP250     -0.1974
    165  CA        65.1130    7.8710   41.8530 C.3   250  ASP250      0.1709
    166  C         65.8440    6.9020   42.7870 C.2   250  ASP250      0.2293
    167  O         65.8520    7.1010   44.0120 O.2   250  ASP250     -0.2864
    168  CB        63.7730    7.2540   41.4350 C.3   250  ASP250      0.1436
    169  CG        62.7970    8.2750   40.8600 C.2   250  ASP250      0.3671
    170  OD1       63.1470    9.4720   40.7050 O.co2 250  ASP250     -0.2456
    171  OD2       61.6620    7.8630   40.5590 O.co2 250  ASP250     -0.2456
    172  N         74.5130   15.9640   44.8440 N.3   263  LYS263     -0.1245
    173  CA        73.2360   16.5570   45.2540 C.3   263  LYS263      0.1561
    174  C         72.6350   15.7610   46.4150 C.2   263  LYS263      0.2260
    175  O         72.8990   14.5680   46.5450 O.2   263  LYS263     -0.2867
    176  CB        72.2540   16.6200   44.0700 C.3   263  LYS263      0.0271
    177  CG        71.9800   15.2820   43.3710 C.3   263  LYS263      0.0035
    178  CD        71.1890   15.4750   42.0750 C.3   263  LYS263      0.0206
    179  CE        70.6560   14.1410   41.5670 C.3   263  LYS263      0.1093
    180  NZ        70.0020   14.2550   40.2160 N.3   263  LYS263     -0.1314
    181  N         63.7230   12.8040   48.5240 N.3   267  ASP267     -0.1239
    182  CA        62.5060   12.1270   48.0730 C.3   267  ASP267      0.1674
    183  C         61.7270   11.5260   49.2510 C.2   267  ASP267      0.2266
    184  O         60.4970   11.6380   49.3120 O.2   267  ASP267     -0.2867
    185  CB        62.8160   11.0400   47.0380 C.3   267  ASP267      0.1410
    186  CG        63.1250   11.6010   45.6600 C.2   267  ASP267      0.3668
    187  OD1       63.0360   12.8410   45.4580 O.co2 267  ASP267     -0.2456
    188  OD2       63.4690   10.7850   44.7720 O.co2 267  ASP267     -0.2456
    189  N         57.9150   11.7470   48.0700 N.3   272  LYS272     -0.1245
    190  CA        57.8850   11.7260   46.6040 C.3   272  LYS272      0.1561
    191  C         57.3880   10.4020   46.0350 C.2   272  LYS272      0.2260
    192  O         57.6480    9.3350   46.6030 O.2   272  LYS272     -0.2867
    193  CB        59.2590   12.0780   46.0220 C.3   272  LYS272      0.0271
    194  CG        59.7000   13.5250   46.2700 C.3   272  LYS272      0.0035
    195  CD        59.3150   14.4500   45.1150 C.3   272  LYS272      0.0206
    196  CE        58.1400   15.3180   45.4680 C.3   272  LYS272      0.1093
    197  NZ        57.6620   16.1120   44.3080 N.3   272  LYS272     -0.1314
@<TRIPOS>BOND
     1   138   137    2
     2   136   137    1
     3   136   135    1
     4   136   139    1
     5   139   140    1
     6    93    92    1
     7    88    89    1
     8   140   141   ar
     9   140   142   ar
    10   141   143   ar
    11   131   130    2
    12   130   129    1
    13   142   144   ar
    14    92    89    1
    15    92    94    1
    16    21    19   ar
    17    21    20   ar
    18    89    90    1
    19    19    17   ar
    20   143   145   ar
    21   100    99    1
    22    95    90   am
    23    95    96    1
    24    20    18   ar
    25   144   145   ar
    26   129   128    1
    27   129   132    1
    28    90    91    2
    29    17    16   ar
    30   101    99    1
    31   145   146    1
    32   128   121   am
    33     8     6   ar
    34     8    10   ar
    35    99    96    1
    36     5     6    1
    37     5     2    1
    38   119   120    1
    39   134   132    1
    40     6     7   ar
    41    10     9   ar
    42    96    97    1
    43   121   122    2
    44   121   120    1
    45    18    16   ar
    46   132   133    1
    47    16    15    1
    48    97    98    2
    49   120   123    1
    50     1     2    1
    51     7     9   ar
    52     2     3    1
    53    11     3   am
    54    11    12    1
    55    15    12    1
    56   147   148    1
    57     3     4    2
    58   123   124    1
    59    12    13    1
    60   102   103    1
    61   151   148    1
    62   151   152    1
    63   124   125    1
    64   148   149    1
    65   154   153    2
    66    13    22   am
    67    13    14    2
    68    22    23    1
    69   106   103    1
    70   106   107    1
    71   152   153    1
    72   103   104    1
    73    27    28    1
    74    27    29    1
    75    27    26    1
    76   149   150    2
    77   125   126    1
    78   153   155   am
    79    38    36   ar
    80    35    36    1
    81    35    34    1
    82   104   105    2
    83    26    23    1
    84   126   127    1
    85    23    24    1
    86   107   108    1
    87    36    37   ar
    88    34    31    1
    89   109   108    2
    90   156   157    1
    91   160   157    1
    92   160   161    1
    93   108   110   am
    94    24    25    2
    95   111   112    1
    96    30    31    1
    97   157   158    1
    98   161   162   ar
    99   161   163   ar
   100    31    32    1
   101   115   112    1
   102   115   116    1
   103    62    61    1
   104    86    85    1
   105    39    32   am
   106    39    40    1
   107    43    40    1
   108    43    44    1
   109   112   113    1
   110   180   179    1
   111    83    84    1
   112    83    82    1
   113    32    33    2
   114    85    84    2
   115    85    87    1
   116   171   169   ar
   117   164   158   am
   118   164   165    1
   119   170   169   ar
   120   117   116   ar
   121   158   159    2
   122   116   118   ar
   123    40    41    1
   124    82    81    1
   125   169   168    1
   126    44    46   ar
   127    44    45   ar
   128    61    60    1
   129   113   114    2
   130   168   165    1
   131   179   178    1
   132   165   166    1
   133   178   177    1
   134    41    47   am
   135    41    42    2
   136    47    48    1
   137    54    52   ar
   138    81    78    1
   139    60    59    1
   140    79    80    2
   141    79    78    1
   142   166   167    2
   143    52    53   ar
   144    52    51    1
   145    78    77    1
   146    59    56    1
   147   177   176    1
   148    51    48    1
   149    48    49    1
   150    70    68   ar
   151   176   173    1
   152    55    56    1
   153   197   196    1
   154    69    68   ar
   155    49    50    2
   156    68    67    1
   157    56    57    1
   158   188   186   ar
   159   172   173    1
   160   195   196    1
   161   195   194    1
   162   173   174    1
   163    63    57   am
   164    63    64    1
   165   187   186   ar
   166    57    58    2
   167    67    64    1
   168   186   185    1
   169   193   194    1
   170   193   190    1
   171   191   192    2
   172   191   190    1
   173    64    65    1
   174   174   175    2
   175    76    75    1
   176   190   189    1
   177    75    72    1
   178   185   182    1
   179    65    66    2
   180   182   181    1
   181   182   183    1
   182    71    72    1
   183    72    73    1
   184    74    73    2
   185   183   184    2
