@<TRIPOS>MOLECULE
tmp/4jzdA00.pdb
 210 205 0 0 0
SMALL
GASTEIGER

@<TRIPOS>ATOM
      1  N         90.8020   29.8470   45.9420 N.3    24  GLN24      -0.1231
      2  CA        89.5300   30.1790   46.5740 C.3    24  GLN24       0.1698
      3  C         89.3100   31.7020   46.6180 C.2    24  GLN24       0.2592
      4  O         90.1120   32.4420   47.1930 O.2    24  GLN24      -0.2718
      5  CB        89.4980   29.6120   47.9960 C.3    24  GLN24       0.0381
      6  CG        88.1550   29.8000   48.7050 C.3    24  GLN24       0.0905
      7  CD        88.0850   29.0510   50.0120 C.2    24  GLN24       0.2608
      8  OE1       88.9130   28.1990   50.3250 O.2    24  GLN24      -0.2717
      9  NE2       87.0800   29.3360   50.7990 N.am   24  GLN24      -0.0878
     10  N         88.1960   32.1540   46.0470 N.am   25  LEU25      -0.1966
     11  CA        87.8870   33.5760   46.0910 C.3    25  LEU25       0.1728
     12  C         86.7270   33.8620   47.0500 C.2    25  LEU25       0.2616
     13  O         86.8720   34.6590   47.9690 O.2    25  LEU25      -0.2715
     14  CB        87.5480   34.0920   44.6650 C.3    25  LEU25       0.0311
     15  CG        86.9950   35.5380   44.5950 C.3    25  LEU25       0.0022
     16  CD1       88.1390   36.5480   44.7090 C.3    25  LEU25       0.0001
     17  CD2       86.2180   35.7730   43.2920 C.3    25  LEU25       0.0001
     18  N         85.5580   33.2430   46.7940 N.am   26  CYS26      -0.1968
     19  CA        84.2890   33.5560   47.4520 C.3    26  CYS26       0.1712
     20  C         83.3230   32.3990   47.2170 C.2    26  CYS26       0.2296
     21  O         83.6200   31.4700   46.4730 O.2    26  CYS26      -0.2864
     22  CB        83.7230   34.8520   46.8370 C.3    26  CYS26       0.0983
     23  SG        84.2290   36.3910   47.6810 S.3    26  CYS26      -0.0798
     24  N         81.6980   42.7850   46.5470 N.3    41  HIS41      -0.1226
     25  CA        83.0500   42.9780   47.1040 C.3    41  HIS41       0.1752
     26  C         84.0830   41.9070   46.6990 C.2    41  HIS41       0.2596
     27  O         85.2770   42.1590   46.7560 O.2    41  HIS41      -0.2718
     28  CB        82.9900   43.1570   48.6260 C.3    41  HIS41       0.0759
     29  CG        82.9320   41.8580   49.3960 C.ar   41  HIS41       0.0818
     30  ND1       81.8240   41.5120   50.1380 N.ar   41  HIS41      -0.2268
     31  CD2       83.8820   40.9070   49.5690 C.ar   41  HIS41       0.1154
     32  CE1       82.1380   40.3800   50.7390 C.ar   41  HIS41       0.1986
     33  NE2       83.3640   39.9780   50.4160 N.ar   41  HIS41      -0.2212
     34  N         83.6200   40.7130   46.3090 N.am   42  CYS42      -0.1970
     35  CA        84.4610   39.5880   45.8660 C.3    42  CYS42       0.1712
     36  C         85.3030   39.9310   44.6540 C.2    42  CYS42       0.2296
     37  O         86.3160   39.2870   44.4150 O.2    42  CYS42      -0.2864
     38  CB        83.5700   38.3860   45.5680 C.3    42  CYS42       0.0983
     39  SG        82.8050   37.6800   47.0410 S.3    42  CYS42      -0.0798
     40  N         86.4150   43.2270   43.8290 N.3    44  ASP44      -0.1225
     41  CA        87.1720   44.4920   43.9590 C.3    44  ASP44       0.1805
     42  C         88.6130   44.4250   43.4490 C.2    44  ASP44       0.2597
     43  O         89.1100   45.4230   42.9560 O.2    44  ASP44      -0.2718
     44  CB        87.2190   44.9950   45.4080 C.3    44  ASP44       0.1424
     45  CG        85.9360   45.5470   45.9870 C.2    44  ASP44       0.3668
     46  OD1       84.9190   45.6210   45.2380 O.co2  44  ASP44      -0.2456
     47  OD2       85.9180   45.8520   47.2070 O.co2  44  ASP44      -0.2456
     48  N         89.2800   43.2670   43.5620 N.am   45  LYS45      -0.1979
     49  CA        90.7000   43.1540   43.2160 C.3    45  LYS45       0.1596
     50  C         91.0250   42.3360   41.9830 C.2    45  LYS45       0.2287
     51  O         92.1950   42.0700   41.7250 O.2    45  LYS45      -0.2864
     52  CB        91.5000   42.6850   44.4540 C.3    45  LYS45       0.0298
     53  CG        91.4360   43.6800   45.6210 C.3    45  LYS45       0.0038
     54  CD        92.0180   43.1080   46.8980 C.3    45  LYS45       0.0206
     55  CE        92.0490   44.1310   48.0100 C.3    45  LYS45       0.1093
     56  NZ        92.5000   43.5340   49.2990 N.3    45  LYS45      -0.1314
     57  N         85.5050   48.7420   47.8750 N.3    85  GLY85      -0.1210
     58  CA        86.1010   49.0430   49.1770 C.3    85  GLY85       0.1956
     59  C         85.0920   49.4120   50.2530 C.2    85  GLY85       0.2613
     60  O         85.4860   49.7360   51.3730 O.2    85  GLY85      -0.2717
     61  N         83.7740   49.3900   49.9320 N.am   86  THR86      -0.1938
     62  CA        82.6920   49.7000   50.9020 C.3    86  THR86       0.2028
     63  C         81.7200   48.5010   51.0350 C.2    86  THR86       0.2642
     64  O         81.9040   47.4960   50.3600 O.2    86  THR86      -0.2714
     65  CB        81.9910   51.0330   50.5970 C.3    86  THR86       0.1808
     66  OG1       81.2390   50.8830   49.4000 O.3    86  THR86      -0.2208
     67  CG2       82.9750   52.2260   50.4730 C.3    86  THR86       0.0379
     68  N         80.7110   48.6030   51.8970 N.am   87  THR87      -0.1950
     69  CA        79.7980   47.4910   52.2110 C.3    87  THR87       0.1897
     70  C         78.4020   47.5220   51.6070 C.2    87  THR87       0.2313
     71  O         77.7840   46.4630   51.5010 O.2    87  THR87      -0.2863
     72  CB        79.6770   47.3380   53.7330 C.3    87  THR87       0.1794
     73  OG1       79.1520   48.5590   54.2550 O.3    87  THR87      -0.2208
     74  CG2       81.0110   46.9780   54.4160 C.3    87  THR87       0.0378
     75  N         76.0510   45.1930   48.3790 N.3    90  ASP90      -0.1239
     76  CA        77.0100   44.0960   48.2240 C.3    90  ASP90       0.1674
     77  C         76.4020   42.8490   47.5670 C.2    90  ASP90       0.2266
     78  O         76.1840   41.7970   48.1940 O.2    90  ASP90      -0.2867
     79  CB        77.7430   43.7930   49.5490 C.3    90  ASP90       0.1410
     80  CG        79.0050   42.9720   49.3730 C.2    90  ASP90       0.3668
     81  OD1       79.4790   42.8390   48.2130 O.co2  90  ASP90      -0.2456
     82  OD2       79.5410   42.4790   50.3970 O.co2  90  ASP90      -0.2456
     83  N         86.8680   30.4810   56.5080 N.3   134  GLN134     -0.1245
     84  CA        87.6190   30.2030   57.7400 C.3   134  GLN134      0.1566
     85  C         86.7350   29.5700   58.7970 C.2   134  GLN134      0.2260
     86  O         85.5870   29.9780   58.9990 O.2   134  GLN134     -0.2867
     87  CB        88.2990   31.4740   58.2660 C.3   134  GLN134      0.0367
     88  CG        89.3850   32.0310   57.3260 C.3   134  GLN134      0.0905
     89  CD        90.0060   33.2690   57.9340 C.2   134  GLN134      0.2608
     90  OE1       89.3410   34.2620   58.1700 O.2   134  GLN134     -0.2717
     91  NE2       91.2720   33.2190   58.2670 N.am  134  GLN134     -0.0878
     92  N         90.8410   27.6750   56.5290 N.3   141  THR141     -0.1218
     93  CA        89.5420   27.5310   55.8690 C.3   141  THR141      0.1862
     94  C         89.1300   26.0590   55.8940 C.2   141  THR141      0.2287
     95  O         89.9690   25.1720   56.1340 O.2   141  THR141     -0.2866
     96  CB        89.6470   28.0510   54.4360 C.3   141  THR141      0.1770
     97  OG1       90.6500   27.2960   53.7570 O.3   141  THR141     -0.2211
     98  CG2       89.9570   29.5390   54.3670 C.3   141  THR141      0.0375
     99  N         79.1570   32.0830   63.5130 N.3   186  ASP186     -0.1225
    100  CA        79.0810   33.1470   62.5100 C.3   186  ASP186      0.1805
    101  C         79.5920   32.6200   61.1830 C.2   186  ASP186      0.2598
    102  O         80.2160   31.5600   61.1370 O.2   186  ASP186     -0.2718
    103  CB        79.9990   34.3180   62.9540 C.3   186  ASP186      0.1424
    104  CG        79.8010   35.6530   62.2600 C.2   186  ASP186      0.3668
    105  OD1       78.8630   35.7580   61.3890 O.co2 186  ASP186     -0.2456
    106  OD2       80.5970   36.5850   62.5430 O.co2 186  ASP186     -0.2456
    107  N         79.3570   33.3810   60.1080 N.am  187  SER187     -0.1938
    108  CA        79.9590   33.0920   58.8110 C.3   187  SER187      0.2055
    109  C         81.3400   33.8260   58.8900 C.2   187  SER187      0.2643
    110  O         81.5820   34.5590   59.8660 O.2   187  SER187     -0.2714
    111  CB        79.0560   33.5480   57.6580 C.3   187  SER187      0.2130
    112  OG        78.7280   34.9190   57.7880 O.3   187  SER187     -0.2179
    113  N         82.2830   33.5610   57.9860 N.am  188  CYS188     -0.1953
    114  CA        83.6170   34.1740   58.1570 C.3   188  CYS188      0.1843
    115  C         84.2330   34.5200   56.8150 C.2   188  CYS188      0.2625
    116  O         83.5650   34.3540   55.7880 O.2   188  CYS188     -0.2714
    117  CB        84.5140   33.2430   58.9910 C.3   188  CYS188      0.0997
    118  SG        86.0360   34.0170   59.6580 S.3   188  CYS188     -0.0797
    119  N         85.4950   35.0200   56.7980 N.am  189  LYS189     -0.1963
    120  CA        86.1760   35.3630   55.5360 C.3   189  LYS189      0.1728
    121  C         86.2430   34.1380   54.6470 C.2   189  LYS189      0.2616
    122  O         86.5200   33.0430   55.1350 O.2   189  LYS189     -0.2715
    123  CB        87.5980   35.8920   55.7830 C.3   189  LYS189      0.0311
    124  CG        87.6440   37.2030   56.5900 C.3   189  LYS189      0.0038
    125  CD        89.0530   37.4870   57.1090 C.3   189  LYS189      0.0206
    126  CE        89.8910   38.1980   56.0970 C.3   189  LYS189      0.1093
    127  NZ        91.3350   37.8090   56.1220 N.3   189  LYS189     -0.1314
    128  N         85.9740   34.3220   53.3590 N.am  190  GLY190     -0.1955
    129  CA        85.9790   33.2100   52.4170 C.3   190  GLY190      0.1869
    130  C         84.5930   32.6290   52.1840 C.2   190  GLY190      0.2309
    131  O         84.3900   31.9260   51.1940 O.2   190  GLY190     -0.2863
    132  N         82.0030   34.7940   52.0450 N.3   192  SER192     -0.1217
    133  CA        81.4040   35.9090   51.3090 C.3   192  SER192      0.1889
    134  C         80.8490   35.4620   49.9750 C.2   192  SER192      0.2288
    135  O         81.4870   34.6650   49.2720 O.2   192  SER192     -0.2866
    136  CB        82.4350   37.0020   51.0670 C.3   192  SER192      0.2089
    137  OG        82.7410   37.6760   52.2700 O.3   192  SER192     -0.2183
    138  N         76.2720   36.2980   52.2610 N.3   210  VAL210     -0.1231
    139  CA        77.3480   36.5700   53.2370 C.3   210  VAL210      0.1692
    140  C         78.1040   37.8330   52.7280 C.2   210  VAL210      0.2593
    141  O         78.6070   37.8520   51.5940 O.2   210  VAL210     -0.2718
    142  CB        78.3090   35.3670   53.4480 C.3   210  VAL210      0.0266
    143  CG1       79.3460   35.6970   54.5200 C.3   210  VAL210      0.0020
    144  CG2       77.5360   34.0860   53.8150 C.3   210  VAL210      0.0020
    145  N         78.1130   38.8950   53.5460 N.am  211  SER211     -0.1938
    146  CA        78.6980   40.1620   53.1320 C.3   211  SER211      0.2055
    147  C         79.8250   40.6440   54.0430 C.2   211  SER211      0.2643
    148  O         80.9580   40.7770   53.5880 O.2   211  SER211     -0.2714
    149  CB        77.5990   41.2200   53.0050 C.3   211  SER211      0.2130
    150  OG        78.1120   42.4960   52.6590 O.3   211  SER211     -0.2179
    151  N         79.5220   40.9300   55.3040 N.am  212  TRP212     -0.1959
    152  CA        80.5460   41.4660   56.2070 C.3   212  TRP212      0.1771
    153  C         80.2290   41.2400   57.6680 C.2   212  TRP212      0.2620
    154  O         79.1720   40.7210   58.0090 O.2   212  TRP212     -0.2715
    155  CB        80.8310   42.9650   55.9080 C.3   212  TRP212      0.0590
    156  CG        79.6830   43.8820   56.1970 C.ar  212  TRP212      0.0006
    157  CD1       78.6710   44.2240   55.3450 C.ar  212  TRP212      0.0946
    158  CD2       79.5050   44.6900   57.3810 C.ar  212  TRP212      0.0152
    159  NE1       77.8460   45.1530   55.9390 N.ar  212  TRP212     -0.2442
    160  CE2       78.3540   45.4820   57.1770 C.ar  212  TRP212      0.0810
    161  CE3       80.2160   44.8190   58.5950 C.ar  212  TRP212      0.0012
    162  CZ2       77.8940   46.3980   58.1370 C.ar  212  TRP212      0.0191
    163  CZ3       79.7390   45.6970   59.5640 C.ar  212  TRP212      0.0001
    164  CH2       78.5920   46.4730   59.3320 C.ar  212  TRP212      0.0015
    165  N         81.1940   41.5610   58.5090 N.am  213  GLY213     -0.1940
    166  CA        81.0960   41.4380   59.9600 C.3   213  GLY213      0.2014
    167  C         82.3910   41.8540   60.6320 C.2   213  GLY213      0.2639
    168  O         83.4400   41.9080   59.9830 O.2   213  GLY213     -0.2714
    169  N         82.3110   42.2150   61.9200 N.am  214  GLN214     -0.1963
    170  CA        83.4540   42.6230   62.7480 C.3   214  GLN214      0.1733
    171  C         84.1960   41.3380   63.1070 C.2   214  GLN214      0.2617
    172  O         83.6490   40.5540   63.8770 O.2   214  GLN214     -0.2715
    173  CB        82.9060   43.2810   64.0450 C.3   214  GLN214      0.0408
    174  CG        83.9820   43.9230   64.9320 C.3   214  GLN214      0.0908
    175  CD        84.6790   45.0430   64.1980 C.2   214  GLN214      0.2608
    176  OE1       84.0560   46.0070   63.7160 O.2   214  GLN214     -0.2717
    177  NE2       85.9680   44.8820   64.0150 N.am  214  GLN214     -0.0878
    178  N         85.3660   41.0840   62.5010 N.am  215  GLY215     -0.1940
    179  CA        86.0940   39.8250   62.7080 C.3   215  GLY215      0.2014
    180  C         85.1750   38.6640   62.3410 C.2   215  GLY215      0.2639
    181  O         84.3980   38.7760   61.3820 O.2   215  GLY215     -0.2714
    182  N         85.2260   37.5560   63.0940 N.am  216  CYS216     -0.1967
    183  CA        84.3200   36.4150   62.9120 C.3   216  CYS216      0.1712
    184  C         83.9260   35.9240   64.2740 C.2   216  CYS216      0.2296
    185  O         84.8040   35.6760   65.0860 O.2   216  CYS216     -0.2864
    186  CB        84.9550   35.3020   62.0870 C.3   216  CYS216      0.0983
    187  SG        85.4850   35.8150   60.4460 S.3   216  CYS216     -0.0798
    188  N         76.8020   38.7270   62.2250 N.3   223  GLY223     -0.1210
    189  CA        77.1550   38.7370   60.8070 C.3   223  GLY223      0.1956
    190  C         76.2080   39.6530   60.0510 C.2   223  GLY223      0.2612
    191  O         75.0540   39.8530   60.4510 O.2   223  GLY223     -0.2717
    192  N         76.7040   40.2950   59.0070 N.am  224  VAL224     -0.1965
    193  CA        75.8730   41.1920   58.2120 C.3   224  VAL224      0.1727
    194  C         75.7490   40.6030   56.8070 C.2   224  VAL224      0.2616
    195  O         76.7330   40.1350   56.2280 O.2   224  VAL224     -0.2715
    196  CB        76.3710   42.6520   58.2200 C.3   224  VAL224      0.0290
    197  CG1       75.3690   43.5580   57.5070 C.3   224  VAL224      0.0023
    198  CG2       76.6160   43.1440   59.6600 C.3   224  VAL224      0.0023
    199  N         74.5050   40.5580   56.3030 N.am  225  TYR225     -0.1974
    200  CA        74.1440   39.9370   55.0430 C.3   225  TYR225      0.1639
    201  C         73.4500   40.9270   54.1340 C.2   225  TYR225      0.2290
    202  O         72.6920   41.7670   54.6020 O.2   225  TYR225     -0.2864
    203  CB        73.2150   38.7310   55.3370 C.3   225  TYR225      0.0560
    204  CG        73.8750   37.6800   56.2060 C.ar  225  TYR225     -0.0198
    205  CD1       73.9290   37.8220   57.5950 C.ar  225  TYR225     -0.0009
    206  CD2       74.5030   36.5780   55.6380 C.ar  225  TYR225     -0.0009
    207  CE1       74.6060   36.8890   58.3910 C.ar  225  TYR225      0.0417
    208  CE2       75.2030   35.6620   56.4160 C.ar  225  TYR225      0.0417
    209  CZ        75.2540   35.8190   57.7900 C.ar  225  TYR225      0.1957
    210  OH        75.9560   34.8950   58.5220 O.3   225  TYR225     -0.2866
@<TRIPOS>BOND
     1    51    50    2
     2    50    49    1
     3    43    42    2
     4    49    48    1
     5    49    52    1
     6    17    15    1
     7    42    48   am
     8    42    41    1
     9    40    41    1
    10    41    44    1
    11    37    36    2
    12    52    53    1
    13    15    14    1
    14    15    16    1
    15    36    35    1
    16    14    11    1
    17    46    45   ar
    18    44    45    1
    19    38    35    1
    20    38    39    1
    21    53    54    1
    22    35    34    1
    23     1     2    1
    24    45    47   ar
    25    10    11    1
    26    10     3   am
    27    11    12    1
    28    34    26   am
    29    21    20    2
    30    24    25    1
    31     2     3    1
    32     2     5    1
    33     3     4    2
    34    26    27    2
    35    26    25    1
    36    18    12   am
    37    18    19    1
    38    22    19    1
    39    22    23    1
    40    54    55    1
    41    39    23    1
    42    12    13    2
    43    25    28    1
    44    20    19    1
    45    77    78    2
    46    77    76    1
    47    57    58    1
    48     5     6    1
    49    55    56    1
    50    81    80   ar
    51    76    75    1
    52    76    79    1
    53    28    29    1
    54     6     7    1
    55    58    59    1
    56   135   134    2
    57    80    79    1
    58    80    82   ar
    59    29    31   ar
    60    29    30   ar
    61    66    65    1
    62    31    33   ar
    63    61    59   am
    64    61    62    1
    65   134   133    1
    66     7     8    2
    67     7     9   am
    68    30    32   ar
    69    59    60    2
    70    64    63    2
    71    33    32   ar
    72    67    65    1
    73    65    62    1
    74    62    63    1
    75    63    68   am
    76   136   133    1
    77   136   137    1
    78   131   130    2
    79   133   132    1
    80    71    70    2
    81   141   140    2
    82    70    69    1
    83    68    69    1
    84   130   129    1
    85    69    72    1
    86   138   139    1
    87   129   128    1
    88   150   149    1
    89   140   139    1
    90   140   145   am
    91   149   146    1
    92   146   145    1
    93   146   147    1
    94   139   142    1
    95   128   121   am
    96   142   144    1
    97   142   143    1
    98   148   147    2
    99    72    73    1
   100    72    74    1
   101    97    96    1
   102   147   151   am
   103   201   202    2
   104   201   200    1
   105    98    96    1
   106    96    93    1
   107   121   122    2
   108   121   120    1
   109   200   203    1
   110   200   199    1
   111   151   152    1
   112   203   204    1
   113   157   159   ar
   114   157   156   ar
   115   120   123    1
   116   120   119    1
   117   206   204   ar
   118   206   208   ar
   119   123   124    1
   120   116   115    2
   121    93    94    1
   122    93    92    1
   123    94    95    2
   124   155   156    1
   125   155   152    1
   126   159   160   ar
   127   126   127    1
   128   126   125    1
   129   156   158   ar
   130   204   205   ar
   131   152   153    1
   132   195   194    2
   133   199   194   am
   134   208   209   ar
   135    83    84    1
   136   124   125    1
   137   119   115   am
   138   194   193    1
   139   115   114    1
   140   160   158   ar
   141   160   162   ar
   142    88    89    1
   143    88    87    1
   144   158   161   ar
   145   197   196    1
   146   205   207   ar
   147   111   112    1
   148   111   108    1
   149   153   154    2
   150   153   165   am
   151    84    87    1
   152    84    85    1
   153   209   207   ar
   154   209   210    1
   155    89    90    2
   156    89    91   am
   157   113   114    1
   158   113   109   am
   159   162   164   ar
   160   114   117    1
   161   193   196    1
   162   193   192    1
   163   196   198    1
   164   165   166    1
   165   161   163   ar
   166    85    86    2
   167   108   109    1
   168   108   107    1
   169   109   110    2
   170   117   118    1
   171   192   190   am
   172   164   163   ar
   173   118   187    1
   174   166   167    1
   175   168   167    2
   176   190   191    2
   177   190   189    1
   178   107   101   am
   179   187   186    1
   180   167   169   am
   181   189   188    1
   182   102   101    2
   183   101   100    1
   184   181   180    2
   185   105   104   ar
   186   169   170    1
   187   186   183    1
   188   104   106   ar
   189   104   103    1
   190   180   179    1
   191   180   182   am
   192   178   179    1
   193   178   171   am
   194   100   103    1
   195   100    99    1
   196   170   171    1
   197   170   173    1
   198   183   182    1
   199   183   184    1
   200   171   172    2
   201   176   175    2
   202   177   175   am
   203   173   174    1
   204   175   174    1
   205   184   185    2
