@<TRIPOS>MOLECULE
tmp/4jzeA00.pdb
 212 207 0 0 0
SMALL
GASTEIGER

@<TRIPOS>ATOM
      1  N         17.6990   42.6510   16.5240 N.3    24  GLN24      -0.1231
      2  CA        17.3940   41.3940   17.2020 C.3    24  GLN24       0.1698
      3  C         15.8920   41.2240   17.3480 C.2    24  GLN24       0.2592
      4  O         15.2030   42.1020   17.8860 O.2    24  GLN24      -0.2718
      5  CB        18.0450   41.4170   18.5900 C.3    24  GLN24       0.0381
      6  CG        17.8370   40.1670   19.3950 C.3    24  GLN24       0.0905
      7  CD        18.7400   40.1360   20.6130 C.2    24  GLN24       0.2608
      8  OE1       19.6880   40.9260   20.7500 O.2    24  GLN24      -0.2717
      9  NE2       18.5090   39.1610   21.4610 N.am   24  GLN24      -0.0878
     10  N         15.3760   40.0800   16.8700 N.am   25  LEU25      -0.1966
     11  CA        13.9480   39.7770   16.9840 C.3    25  LEU25       0.1728
     12  C         13.6980   38.5890   17.9180 C.2    25  LEU25       0.2616
     13  O         12.9490   38.6940   18.8750 O.2    25  LEU25      -0.2715
     14  CB        13.3510   39.4610   15.5950 C.3    25  LEU25       0.0311
     15  CG        11.8800   39.0270   15.5680 C.3    25  LEU25       0.0022
     16  CD1       10.9140   40.2170   15.8030 C.3    25  LEU25       0.0001
     17  CD2       11.5310   38.3340   14.2560 C.3    25  LEU25       0.0001
     18  N         14.3060   37.4300   17.5950 N.am   26  CYS26      -0.1968
     19  CA        14.0210   36.1640   18.2740 C.3    26  CYS26       0.1712
     20  C         15.1480   35.1920   17.9720 C.2    26  CYS26       0.2296
     21  O         16.0420   35.4910   17.1770 O.2    26  CYS26      -0.2864
     22  CB        12.7030   35.6060   17.7310 C.3    26  CYS26       0.0983
     23  SG        11.2100   36.1590   18.6150 S.3    26  CYS26      -0.0798
     24  N          4.7890   33.5560   17.6720 N.3    41  HIS41      -0.1226
     25  CA         4.5850   34.8980   18.2640 C.3    41  HIS41       0.1752
     26  C          5.6320   35.9200   17.8570 C.2    41  HIS41       0.2596
     27  O          5.3690   37.1200   17.9420 O.2    41  HIS41      -0.2718
     28  CB         4.4300   34.8300   19.7890 C.3    41  HIS41       0.0759
     29  CG         5.7120   34.7810   20.5550 C.ar   41  HIS41       0.0818
     30  ND1        6.0760   33.6560   21.2380 N.ar   41  HIS41      -0.2268
     31  CD2        6.6320   35.7460   20.7840 C.ar   41  HIS41       0.1154
     32  CE1        7.2190   33.9370   21.8340 C.ar   41  HIS41       0.1986
     33  NE2        7.5860   35.1870   21.6060 N.ar   41  HIS41      -0.2212
     34  N          6.8260   35.4560   17.4100 N.am   42  CYS42      -0.1970
     35  CA         7.8920   36.3380   16.9400 C.3    42  CYS42       0.1712
     36  C          7.4570   37.1590   15.7250 C.2    42  CYS42       0.2296
     37  O          8.1150   38.1410   15.4190 O.2    42  CYS42      -0.2864
     38  CB         9.1300   35.5190   16.6050 C.3    42  CYS42       0.0983
     39  SG         9.8690   34.7390   18.0450 S.3    42  CYS42      -0.0798
     40  N          4.1500   38.2840   15.0890 N.3    44  ASP44      -0.1225
     41  CA         2.9060   39.0420   15.3500 C.3    44  ASP44       0.1805
     42  C          2.9610   40.4830   14.8700 C.2    44  ASP44       0.2597
     43  O          1.9540   40.9980   14.3810 O.2    44  ASP44      -0.2718
     44  CB         2.5720   39.0490   16.8450 C.3    44  ASP44       0.1424
     45  CG         1.9160   37.7850   17.3600 C.2    44  ASP44       0.3668
     46  OD1        1.8490   36.7930   16.5900 O.co2  44  ASP44      -0.2456
     47  OD2        1.5240   37.7640   18.5550 O.co2  44  ASP44      -0.2456
     48  N          4.1250   41.1180   14.9740 N.am   45  LYS45      -0.1979
     49  CA         4.2500   42.5440   14.6570 C.3    45  LYS45       0.1596
     50  C          5.0780   42.8500   13.4210 C.2    45  LYS45       0.2287
     51  O          5.4600   44.0090   13.2360 O.2    45  LYS45      -0.2864
     52  CB         4.8090   43.2990   15.8870 C.3    45  LYS45       0.0298
     53  CG         3.8650   43.3790   17.0810 C.3    45  LYS45       0.0038
     54  CD         4.6120   43.7330   18.3740 C.3    45  LYS45       0.0206
     55  CE         4.8340   45.2170   18.5730 C.3    45  LYS45       0.1093
     56  NZ         5.6510   45.4940   19.7840 N.3    45  LYS45      -0.1314
     57  N         -1.2610   37.2680   19.3460 N.3    85  GLY85      -0.1210
     58  CA        -1.4590   37.8770   20.6580 C.3    85  GLY85       0.1956
     59  C         -1.8030   36.8850   21.7510 C.2    85  GLY85       0.2613
     60  O         -2.1000   37.2810   22.8800 O.2    85  GLY85      -0.2717
     61  N         -1.8010   35.5780   21.4220 N.am   86  THR86      -0.1938
     62  CA        -2.0760   34.5300   22.3960 C.3    86  THR86       0.2028
     63  C         -0.8630   33.5850   22.4560 C.2    86  THR86       0.2642
     64  O          0.1430   33.8220   21.7710 O.2    86  THR86      -0.2714
     65  CB        -3.4480   33.8580   22.1790 C.3    86  THR86       0.1808
     66  OG1       -3.3940   33.0350   21.0200 O.3    86  THR86      -0.2208
     67  CG2       -4.6080   34.8740   22.0520 C.3    86  THR86       0.0379
     68  N         -0.9490   32.5380   23.2840 N.am   87  THR87      -0.1950
     69  CA         0.1890   31.6450   23.5340 C.3    87  THR87       0.1897
     70  C          0.0960   30.2320   22.9440 C.2    87  THR87       0.2313
     71  O          1.1340   29.5920   22.7810 O.2    87  THR87      -0.2863
     72  CB         0.4080   31.5460   25.0520 C.3    87  THR87       0.1794
     73  OG1       -0.8030   31.0560   25.6250 O.3    87  THR87      -0.2208
     74  CG2        0.7720   32.8880   25.6820 C.3    87  THR87       0.0378
     75  N          2.4090   27.8270   19.6300 N.3    90  ASP90      -0.1239
     76  CA         3.4400   28.8320   19.4030 C.3    90  ASP90       0.1674
     77  C          4.6460   28.2370   18.6670 C.2    90  ASP90       0.2266
     78  O          5.7150   28.0310   19.2480 O.2    90  ASP90      -0.2867
     79  CB         3.8370   29.5130   20.7220 C.3    90  ASP90       0.1410
     80  CG         4.6390   30.7800   20.5400 C.2    90  ASP90       0.3668
     81  OD1        4.7010   31.2910   19.3800 O.co2  90  ASP90      -0.2456
     82  OD2        5.1950   31.2830   21.5580 O.co2  90  ASP90      -0.2456
     83  N         17.3740   38.6640   27.2580 N.3   134  GLN134     -0.1245
     84  CA        17.6790   39.4370   28.4760 C.3   134  GLN134      0.1566
     85  C         18.3620   38.5880   29.5220 C.2   134  GLN134      0.2260
     86  O         17.9580   37.4390   29.7440 O.2   134  GLN134     -0.2867
     87  CB        16.4090   40.0660   29.0550 C.3   134  GLN134      0.0367
     88  CG        15.8740   41.1780   28.1650 C.3   134  GLN134      0.0905
     89  CD        14.5980   41.7950   28.6950 C.2   134  GLN134      0.2608
     90  OE1       13.7980   41.1560   29.3870 O.2   134  GLN134     -0.2717
     91  NE2       14.3490   43.0330   28.3120 N.am  134  GLN134     -0.0878
     92  N         20.1870   42.7360   27.1210 N.3   141  THR141     -0.1218
     93  CA        20.3230   41.4510   26.4070 C.3   141  THR141      0.1862
     94  C         21.8030   41.0790   26.3540 C.2   141  THR141      0.2287
     95  O         22.6660   41.9280   26.5910 O.2   141  THR141     -0.2866
     96  CB        19.7130   41.5660   25.0020 C.3   141  THR141      0.1770
     97  OG1       20.3780   42.6120   24.2670 O.3   141  THR141     -0.2211
     98  CG2       18.1860   41.7860   25.0470 C.3   141  THR141      0.0375
     99  N         16.0910   30.9650   34.2210 N.3   186  ASP186     -0.1225
    100  CA        15.0040   30.8910   33.2390 C.3   186  ASP186      0.1805
    101  C         15.4680   31.4490   31.8890 C.2   186  ASP186      0.2598
    102  O         16.5180   32.1000   31.8030 O.2   186  ASP186     -0.2718
    103  CB        13.8240   31.7980   33.7360 C.3   186  ASP186      0.1424
    104  CG        12.4390   31.6080   33.1070 C.2   186  ASP186      0.3668
    105  OD1       12.2780   30.6790   32.2530 O.co2 186  ASP186     -0.2456
    106  OD2       11.5380   32.4430   33.3900 O.co2 186  ASP186     -0.2456
    107  N         14.6870   31.1990   30.8340 N.am  187  SER187     -0.1938
    108  CA        14.9280   31.8550   29.5550 C.3   187  SER187      0.2055
    109  C         14.2060   33.2130   29.7510 C.2   187  SER187      0.2643
    110  O         13.5500   33.4070   30.7830 O.2   187  SER187     -0.2714
    111  CB        14.3740   31.0510   28.3750 C.3   187  SER187      0.2130
    112  OG        13.1180   30.4440   28.6270 O.3   187  SER187     -0.2179
    113  N         14.3310   34.1430   28.8140 N.am  188  CYS188     -0.1953
    114  CA        13.7420   35.4770   28.9800 C.3   188  CYS188      0.1843
    115  C         13.2890   36.0400   27.6250 C.2   188  CYS188      0.2625
    116  O         13.3840   35.3630   26.6020 O.2   188  CYS188     -0.2714
    117  CB        14.7640   36.3910   29.6710 C.3   188  CYS188      0.0997
    118  SG        14.0690   37.8680   30.4740 S.3   188  CYS188     -0.0797
    119  N         12.8120   37.3110   27.6340 N.am  189  LYS189     -0.1963
    120  CA        12.3970   38.0170   26.4300 C.3   189  LYS189      0.1728
    121  C         13.6160   38.0470   25.5200 C.2   189  LYS189      0.2616
    122  O         14.7480   38.2450   25.9850 O.2   189  LYS189     -0.2715
    123  CB        12.0060   39.4830   26.7590 C.3   189  LYS189      0.0311
    124  CG        10.8120   39.6010   27.6910 C.3   189  LYS189      0.0038
    125  CD        10.2420   41.0090   27.6670 C.3   189  LYS189      0.0206
    126  CE         9.0390   41.1150   28.5720 C.3   189  LYS189      0.1093
    127  NZ         8.1010   42.1750   28.1090 N.3   189  LYS189     -0.1314
    128  N         13.3860   37.8380   24.2390 N.am  190  GLY190     -0.1955
    129  CA        14.4780   37.8480   23.2850 C.3   190  GLY190      0.1869
    130  C         15.0340   36.4640   23.0320 C.2   190  GLY190      0.2309
    131  O         15.6980   36.2680   22.0150 O.2   190  GLY190     -0.2863
    132  N         12.8980   33.9160   22.9270 N.3   192  SER192     -0.1217
    133  CA        11.7260   33.3270   22.2660 C.3   192  SER192      0.1889
    134  C         12.1190   32.7380   20.9190 C.2   192  SER192      0.2288
    135  O         12.9020   33.3580   20.1790 O.2   192  SER192     -0.2866
    136  CB        10.6680   34.3970   22.0430 C.3   192  SER192      0.2089
    137  OG         9.9980   34.7200   23.2510 O.3   192  SER192     -0.2183
    138  N         11.4330   28.0520   23.0690 N.3   210  VAL210     -0.1231
    139  CA        11.2270   29.1080   24.0860 C.3   210  VAL210      0.1692
    140  C          9.9470   29.8710   23.6820 C.2   210  VAL210      0.2593
    141  O          9.8770   30.4150   22.5820 O.2   210  VAL210     -0.2718
    142  CB        12.4400   30.0650   24.1830 C.3   210  VAL210      0.0266
    143  CG1       12.1710   31.1620   25.2270 C.3   210  VAL210      0.0020
    144  CG2       13.7310   29.2890   24.4980 C.3   210  VAL210      0.0020
    145  N          8.9220   29.8600   24.5450 N.am  211  SER211     -0.1938
    146  CA         7.6320   30.4390   24.1770 C.3   211  SER211      0.2055
    147  C          7.1550   31.6200   25.0600 C.2   211  SER211      0.2643
    148  O          7.0150   32.7280   24.5470 O.2   211  SER211     -0.2714
    149  CB         6.5690   29.3430   24.1140 C.3   211  SER211      0.2130
    150  OG         5.2800   29.8150   23.7610 O.3   211  SER211     -0.2179
    151  N          6.8360   31.3710   26.3450 N.am  212  TRP212     -0.1959
    152  CA         6.2910   32.4130   27.2410 C.3   212  TRP212      0.1771
    153  C          6.5540   32.1410   28.7390 C.2   212  TRP212      0.2620
    154  O          7.0470   31.0780   29.1220 O.2   212  TRP212     -0.2715
    155  CB         4.7790   32.6480   26.9690 C.3   212  TRP212      0.0590
    156  CG         3.9000   31.4870   27.3130 C.ar  212  TRP212      0.0006
    157  CD1        3.6410   30.3980   26.5330 C.ar  212  TRP212      0.0946
    158  CD2        3.1310   31.3140   28.5160 C.ar  212  TRP212      0.0152
    159  NE1        2.7600   29.5540   27.1720 N.ar  212  TRP212     -0.2442
    160  CE2        2.4280   30.0930   28.3910 C.ar  212  TRP212      0.0810
    161  CE3        2.9730   32.0710   29.6960 C.ar  212  TRP212      0.0012
    162  CZ2        1.5770   29.6090   29.3980 C.ar  212  TRP212      0.0191
    163  CZ3        2.1330   31.5910   30.6930 C.ar  212  TRP212      0.0001
    164  CH2        1.4440   30.3750   30.5400 C.ar  212  TRP212      0.0015
    165  N          6.2160   33.1290   29.5530 N.am  213  GLY213     -0.1954
    166  CA         6.3960   33.0820   30.9960 C.3   213  GLY213      0.1869
    167  C          5.8420   34.3470   31.6160 C.2   213  GLY213      0.2309
    168  O          5.4180   35.2530   30.8890 O.2   213  GLY213     -0.2863
    169  N          7.1800   37.1110   33.7020 N.3   215  GLY215     -0.1210
    170  CA         8.3820   37.7400   34.2370 C.3   215  GLY215      0.1956
    171  C          9.5140   36.7250   34.2530 C.2   215  GLY215      0.2612
    172  O          9.2890   35.5540   34.6030 O.2   215  GLY215     -0.2717
    173  N         10.7300   37.1590   33.8780 N.am  216  CYS216     -0.1970
    174  CA        11.8750   36.2580   33.8080 C.3   216  CYS216      0.1712
    175  C         12.4340   35.8820   35.1680 C.2   216  CYS216      0.2296
    176  O         12.8270   36.7460   35.9580 O.2   216  CYS216     -0.2864
    177  CB        12.9430   36.8210   32.8820 C.3   216  CYS216      0.0983
    178  SG        12.2850   37.3400   31.2790 S.3   216  CYS216     -0.0798
    179  N          7.6250   29.1020   36.2170 N.3   222  PHE222     -0.1227
    180  CA         8.5520   28.3510   35.3570 C.3   222  PHE222      0.1736
    181  C          8.4660   28.9290   33.9410 C.2   222  PHE222      0.2596
    182  O          7.5280   29.6640   33.6380 O.2   222  PHE222     -0.2718
    183  CB         8.1540   26.8620   35.3080 C.3   222  PHE222      0.0547
    184  CG         8.2230   26.1470   36.6340 C.ar  222  PHE222     -0.0202
    185  CD1        9.3990   25.5400   37.0540 C.ar  222  PHE222     -0.0042
    186  CD2        7.1040   26.0700   37.4600 C.ar  222  PHE222     -0.0042
    187  CE1        9.4640   24.8840   38.2890 C.ar  222  PHE222     -0.0003
    188  CE2        7.1740   25.4220   38.7010 C.ar  222  PHE222     -0.0003
    189  CZ         8.3520   24.8380   39.1060 C.ar  222  PHE222     -0.0000
    190  N          9.4320   28.5910   33.0910 N.am  223  GLY223     -0.1942
    191  CA         9.3670   28.9650   31.6830 C.3   223  GLY223      0.2014
    192  C          8.4130   27.9950   31.0020 C.2   223  GLY223      0.2639
    193  O          8.3160   26.8310   31.4110 O.2   223  GLY223     -0.2714
    194  N          7.6720   28.4730   29.9900 N.am  224  VAL224     -0.1963
    195  CA         6.7150   27.6460   29.2340 C.3   224  VAL224      0.1727
    196  C          7.2480   27.5160   27.7980 C.2   224  VAL224      0.2616
    197  O          7.6280   28.5150   27.1620 O.2   224  VAL224     -0.2715
    198  CB         5.2380   28.1260   29.3100 C.3   224  VAL224      0.0290
    199  CG1        4.2890   27.0630   28.7390 C.3   224  VAL224      0.0023
    200  CG2        4.8500   28.4220   30.7600 C.3   224  VAL224      0.0023
    201  N          7.2920   26.2670   27.3220 N.am  225  TYR225     -0.1974
    202  CA         7.8940   25.9150   26.0310 C.3   225  TYR225      0.1639
    203  C          6.8800   25.2140   25.1460 C.2   225  TYR225      0.2290
    204  O          6.0590   24.4480   25.6650 O.2   225  TYR225     -0.2864
    205  CB         9.1050   25.0000   26.2920 C.3   225  TYR225      0.0560
    206  CG        10.1920   25.6760   27.1010 C.ar  225  TYR225     -0.0198
    207  CD1       10.1230   25.7300   28.4980 C.ar  225  TYR225     -0.0009
    208  CD2       11.2420   26.3350   26.4750 C.ar  225  TYR225     -0.0009
    209  CE1       11.0880   26.4050   29.2440 C.ar  225  TYR225      0.0417
    210  CE2       12.2210   26.9970   27.2090 C.ar  225  TYR225      0.0417
    211  CZ        12.1170   27.0690   28.5930 C.ar  225  TYR225      0.1957
    212  OH        13.0870   27.7460   29.2980 O.3   225  TYR225     -0.2866
@<TRIPOS>BOND
     1    51    50    2
     2    50    49    1
     3    17    15    1
     4    43    42    2
     5    49    48    1
     6    49    52    1
     7    42    48   am
     8    42    41    1
     9    40    41    1
    10    41    44    1
    11    37    36    2
    12    15    14    1
    13    15    16    1
    14    14    11    1
    15    36    35    1
    16    52    53    1
    17     1     2    1
    18    46    45   ar
    19    38    35    1
    20    38    39    1
    21    44    45    1
    22    10    11    1
    23    10     3   am
    24    35    34    1
    25    11    12    1
    26    53    54    1
    27    21    20    2
    28     2     3    1
    29     2     5    1
    30     3     4    2
    31    45    47   ar
    32    34    26   am
    33    18    12   am
    34    18    19    1
    35    24    25    1
    36    22    19    1
    37    22    23    1
    38    26    27    2
    39    26    25    1
    40    12    13    2
    41    20    19    1
    42    39    23    1
    43    25    28    1
    44    54    55    1
    45    55    56    1
    46     5     6    1
    47    77    78    2
    48    77    76    1
    49    57    58    1
    50    81    80   ar
    51     6     7    1
    52    76    75    1
    53    76    79    1
    54    28    29    1
    55   135   134    2
    56    80    79    1
    57    80    82   ar
    58    29    31   ar
    59    29    30   ar
    60     7     8    2
    61     7     9   am
    62    58    59    1
    63    31    33   ar
    64   134   133    1
    65    66    65    1
    66    30    32   ar
    67    61    59   am
    68    61    62    1
    69    33    32   ar
    70    59    60    2
    71    64    63    2
    72   131   130    2
    73   136   133    1
    74   136   137    1
    75    67    65    1
    76    65    62    1
    77   133   132    1
    78    62    63    1
    79    63    68   am
    80   141   140    2
    81    71    70    2
    82    70    69    1
    83   130   129    1
    84   138   139    1
    85    68    69    1
    86   129   128    1
    87    69    72    1
    88   140   139    1
    89   140   145   am
    90   150   149    1
    91   139   142    1
    92   149   146    1
    93   146   145    1
    94   146   147    1
    95   142   144    1
    96   142   143    1
    97   128   121   am
    98    97    96    1
    99   148   147    2
   100    96    98    1
   101    96    93    1
   102    72    73    1
   103    72    74    1
   104   147   151   am
   105   203   204    2
   106   203   202    1
   107   121   122    2
   108   121   120    1
   109   202   205    1
   110   202   201    1
   111   205   206    1
   112   151   152    1
   113    94    93    1
   114    94    95    2
   115    93    92    1
   116   120   123    1
   117   120   119    1
   118   208   206   ar
   119   208   210   ar
   120   157   159   ar
   121   157   156   ar
   122   116   115    2
   123   123   124    1
   124   155   152    1
   125   155   156    1
   126   206   207   ar
   127   197   196    2
   128   159   160   ar
   129   210   211   ar
   130   152   153    1
   131    83    84    1
   132   156   158   ar
   133   201   196   am
   134   115   119   am
   135   115   114    1
   136   125   124    1
   137   125   126    1
   138   196   195    1
   139   127   126    1
   140    88    89    1
   141    88    87    1
   142    91    89   am
   143   111   112    1
   144   111   108    1
   145   160   158   ar
   146   160   162   ar
   147    84    87    1
   148    84    85    1
   149   207   209   ar
   150   158   161   ar
   151   211   209   ar
   152   211   212    1
   153    89    90    2
   154   199   198    1
   155   153   154    2
   156   153   165   am
   157   113   114    1
   158   113   109   am
   159   114   117    1
   160   195   198    1
   161   195   194    1
   162   198   200    1
   163   162   164   ar
   164    85    86    2
   165   165   166    1
   166   108   109    1
   167   108   107    1
   168   117   118    1
   169   161   163   ar
   170   109   110    2
   171   194   192   am
   172   118   178    1
   173   164   163   ar
   174   107   101   am
   175   168   167    2
   176   166   167    1
   177   192   193    2
   178   192   191    1
   179   178   177    1
   180   191   190    1
   181   102   101    2
   182   101   100    1
   183   105   104   ar
   184   177   174    1
   185   190   181   am
   186   104   106   ar
   187   104   103    1
   188   100   103    1
   189   100    99    1
   190   182   181    2
   191   169   170    1
   192   174   173    1
   193   174   175    1
   194   173   171   am
   195   181   180    1
   196   170   171    1
   197   171   172    2
   198   175   176    2
   199   183   180    1
   200   183   184    1
   201   180   179    1
   202   184   185   ar
   203   184   186   ar
   204   185   187   ar
   205   186   188   ar
   206   187   189   ar
   207   188   189   ar
