@<TRIPOS>MOLECULE
tmp/4jzfA00.pdb
 173 166 0 0 0
SMALL
GASTEIGER

@<TRIPOS>ATOM
      1  N         17.7360   42.8410   16.4760 N.3    24  GLN24      -0.1231
      2  CA        17.4130   41.5930   17.1590 C.3    24  GLN24       0.1698
      3  C         15.9100   41.4030   17.3070 C.2    24  GLN24       0.2592
      4  O         15.2150   42.2540   17.8660 O.2    24  GLN24      -0.2718
      5  CB        18.0700   41.5930   18.5390 C.3    24  GLN24       0.0381
      6  CG        17.8680   40.3030   19.2970 C.3    24  GLN24       0.0905
      7  CD        18.7460   40.2020   20.5250 C.2    24  GLN24       0.2608
      8  OE1       19.6000   41.0560   20.7890 O.2    24  GLN24      -0.2717
      9  NE2       18.5380   39.1450   21.2960 N.am   24  GLN24      -0.0878
     10  N         15.4070   40.2660   16.8070 N.am   25  LEU25      -0.1966
     11  CA        13.9990   39.9300   16.9220 C.3    25  LEU25       0.1728
     12  C         13.7570   38.7580   17.8590 C.2    25  LEU25       0.2616
     13  O         13.0040   38.8950   18.8210 O.2    25  LEU25      -0.2715
     14  CB        13.3730   39.6150   15.5410 C.3    25  LEU25       0.0311
     15  CG        11.8940   39.1690   15.5510 C.3    25  LEU25       0.0022
     16  CD1       10.9630   40.3700   15.7620 C.3    25  LEU25       0.0001
     17  CD2       11.5170   38.4460   14.2410 C.3    25  LEU25       0.0001
     18  N         14.3410   37.5890   17.5420 N.am   26  CYS26      -0.1968
     19  CA        14.0600   36.3250   18.2380 C.3    26  CYS26       0.1712
     20  C         15.1980   35.3540   17.9440 C.2    26  CYS26       0.2296
     21  O         16.1430   35.6660   17.2050 O.2    26  CYS26      -0.2864
     22  CB        12.7450   35.7580   17.6920 C.3    26  CYS26       0.0983
     23  SG        11.2490   36.3260   18.5580 S.3    26  CYS26      -0.0798
     24  N          4.7800   33.7290   17.6080 N.3    41  HIS41      -0.1226
     25  CA         4.5670   35.0740   18.1820 C.3    41  HIS41       0.1752
     26  C          5.6320   36.0860   17.7670 C.2    41  HIS41       0.2596
     27  O          5.3540   37.2780   17.7760 O.2    41  HIS41      -0.2718
     28  CB         4.4060   34.9990   19.7110 C.3    41  HIS41       0.0759
     29  CG         5.6890   34.9670   20.4800 C.ar   41  HIS41       0.0818
     30  ND1        6.0700   33.8550   21.1860 N.ar   41  HIS41      -0.2268
     31  CD2        6.6210   35.9310   20.6570 C.ar   41  HIS41       0.1154
     32  CE1        7.2140   34.1600   21.7670 C.ar   41  HIS41       0.1986
     33  NE2        7.5870   35.3950   21.4750 N.ar   41  HIS41      -0.2212
     34  N          6.8290   35.6190   17.3500 N.am   42  CYS42      -0.1970
     35  CA         7.8990   36.4960   16.8650 C.3    42  CYS42       0.1712
     36  C          7.4780   37.3140   15.6240 C.2    42  CYS42       0.2296
     37  O          8.1020   38.3110   15.3250 O.2    42  CYS42      -0.2864
     38  CB         9.1470   35.6740   16.5640 C.3    42  CYS42       0.0983
     39  SG         9.8800   34.9270   18.0290 S.3    42  CYS42      -0.0798
     40  N          4.2200   38.4730   14.9420 N.3    44  ASP44      -0.1239
     41  CA         2.9650   39.2220   15.1680 C.3    44  ASP44       0.1674
     42  C          3.0290   40.6570   14.6870 C.2    44  ASP44       0.2266
     43  O          2.0230   41.1740   14.2130 O.2    44  ASP44      -0.2867
     44  CB         2.5850   39.2490   16.6540 C.3    44  ASP44       0.1410
     45  CG         1.9540   37.9880   17.1950 C.2    44  ASP44       0.3668
     46  OD1        1.8040   37.0110   16.4140 O.co2  44  ASP44      -0.2456
     47  OD2        1.6350   37.9600   18.4100 O.co2  44  ASP44      -0.2456
     48  N         -1.2260   37.5450   19.2210 N.3    85  GLY85      -0.1210
     49  CA        -1.4320   38.1530   20.5310 C.3    85  GLY85       0.1956
     50  C         -1.7280   37.1410   21.6260 C.2    85  GLY85       0.2613
     51  O         -1.9680   37.5220   22.7730 O.2    85  GLY85      -0.2717
     52  N         -1.7570   35.8330   21.2860 N.am   86  THR86      -0.1938
     53  CA        -2.0020   34.7840   22.2790 C.3    86  THR86       0.2028
     54  C         -0.7810   33.8410   22.3470 C.2    86  THR86       0.2642
     55  O          0.2200   34.0870   21.6630 O.2    86  THR86      -0.2714
     56  CB        -3.3630   34.0830   22.0760 C.3    86  THR86       0.1808
     57  OG1       -3.2870   33.2530   20.9220 O.3    86  THR86      -0.2208
     58  CG2       -4.5390   35.0720   21.9510 C.3    86  THR86       0.0379
     59  N         -0.8580   32.7820   23.1700 N.am   87  THR87      -0.1950
     60  CA         0.2690   31.8730   23.4270 C.3    87  THR87       0.1897
     61  C          0.1550   30.4500   22.8430 C.2    87  THR87       0.2313
     62  O          1.1760   29.7860   22.6850 O.2    87  THR87      -0.2863
     63  CB         0.4970   31.7780   24.9540 C.3    87  THR87       0.1794
     64  OG1       -0.7240   31.3380   25.5560 O.3    87  THR87      -0.2208
     65  CG2        0.9190   33.1070   25.5700 C.3    87  THR87       0.0378
     66  N          2.4160   27.9900   19.5700 N.3    90  ASP90      -0.1239
     67  CA         3.4590   28.9830   19.3520 C.3    90  ASP90       0.1674
     68  C          4.6660   28.4010   18.6030 C.2    90  ASP90       0.2266
     69  O          5.7420   28.2040   19.1640 O.2    90  ASP90      -0.2867
     70  CB         3.8490   29.6660   20.6810 C.3    90  ASP90       0.1410
     71  CG         4.6400   30.9480   20.4940 C.2    90  ASP90       0.3668
     72  OD1        4.6860   31.4630   19.3390 O.co2  90  ASP90      -0.2456
     73  OD2        5.1600   31.4760   21.5110 O.co2  90  ASP90      -0.2456
     74  N         17.4300   38.9100   27.0910 N.3   134  GLN134     -0.1245
     75  CA        17.7200   39.6900   28.3070 C.3   134  GLN134      0.1566
     76  C         18.3450   38.8060   29.3750 C.2   134  GLN134      0.2260
     77  O         17.8960   37.6750   29.6150 O.2   134  GLN134     -0.2867
     78  CB        16.4400   40.3270   28.8520 C.3   134  GLN134      0.0367
     79  CG        15.8730   41.3630   27.8860 C.3   134  GLN134      0.0905
     80  CD        14.6200   42.0360   28.3750 C.2   134  GLN134      0.2608
     81  OE1       14.2110   43.0510   27.8300 O.2   134  GLN134     -0.2717
     82  NE2       13.9320   41.4490   29.3260 N.am  134  GLN134     -0.0878
     83  N         20.1630   42.8350   26.9790 N.3   141  THR141     -0.1218
     84  CA        20.3450   41.5690   26.2360 C.3   141  THR141      0.1862
     85  C         21.8360   41.2130   26.2360 C.2   141  THR141      0.2287
     86  O         22.6930   42.0580   26.5170 O.2   141  THR141     -0.2866
     87  CB        19.8040   41.7170   24.8030 C.3   141  THR141      0.1770
     88  OG1       20.4720   42.8100   24.1370 O.3   141  THR141     -0.2211
     89  CG2       18.2890   41.8890   24.7680 C.3   141  THR141      0.0375
     90  N         16.0530   31.2290   34.1750 N.3   186  ASP186     -0.1225
     91  CA        14.9420   31.1590   33.2190 C.3   186  ASP186      0.1805
     92  C         15.3610   31.6690   31.8440 C.2   186  ASP186      0.2598
     93  O         16.4350   32.2510   31.6780 O.2   186  ASP186     -0.2718
     94  CB        13.7970   32.0870   33.7280 C.3   186  ASP186      0.1424
     95  CG        12.3930   31.8710   33.1810 C.2   186  ASP186      0.3668
     96  OD1       12.1930   30.9020   32.3850 O.co2 186  ASP186     -0.2456
     97  OD2       11.4940   32.6830   33.5200 O.co2 186  ASP186     -0.2456
     98  N         14.4720   31.4690   30.8630 N.am  187  SER187     -0.1938
     99  CA        14.6280   32.0490   29.5400 C.3   187  SER187      0.2055
    100  C         14.0490   33.4700   29.7230 C.2   187  SER187      0.2643
    101  O         13.3620   33.7310   30.7350 O.2   187  SER187     -0.2714
    102  CB        13.8090   31.2680   28.5170 C.3   187  SER187      0.2130
    103  OG        12.4740   31.1180   28.9670 O.3   187  SER187     -0.2179
    104  N         14.3010   34.3820   28.7870 N.am  188  CYS188     -0.1953
    105  CA        13.7810   35.7490   28.9600 C.3   188  CYS188      0.1843
    106  C         13.3800   36.3570   27.6150 C.2   188  CYS188      0.2625
    107  O         13.4490   35.6690   26.5860 O.2   188  CYS188     -0.2714
    108  CB        14.8160   36.6010   29.7090 C.3   188  CYS188      0.0997
    109  SG        14.1530   38.1200   30.4780 S.3   188  CYS188     -0.0797
    110  N         12.9310   37.6390   27.6060 N.am  189  LYS189     -0.1963
    111  CA        12.5500   38.3210   26.3630 C.3   189  LYS189      0.1728
    112  C         13.6990   38.2800   25.3760 C.2   189  LYS189      0.2616
    113  O         14.8530   38.4710   25.7620 O.2   189  LYS189     -0.2715
    114  CB        12.2050   39.8050   26.6570 C.3   189  LYS189      0.0311
    115  CG        10.7750   40.0650   27.0890 C.3   189  LYS189      0.0038
    116  CD        10.4510   39.5590   28.4630 C.3   189  LYS189      0.0206
    117  CE         9.0810   40.0300   28.8900 C.3   189  LYS189      0.1093
    118  NZ         8.6150   39.3310   30.1110 N.3   189  LYS189     -0.1314
    119  N         13.3910   38.0070   24.1150 N.am  190  GLY190     -0.1955
    120  CA        14.4250   37.9560   23.0960 C.3   190  GLY190      0.1869
    121  C         14.9680   36.5520   22.8870 C.2   190  GLY190      0.2309
    122  O         15.6040   36.3060   21.8650 O.2   190  GLY190     -0.2863
    123  N         12.8550   34.0080   22.8280 N.3   192  SER192     -0.1217
    124  CA        11.6950   33.4140   22.1350 C.3   192  SER192      0.1889
    125  C         12.1010   32.8140   20.7980 C.2   192  SER192      0.2288
    126  O         12.8550   33.4570   20.0500 O.2   192  SER192     -0.2866
    127  CB        10.6610   34.4940   21.8620 C.3   192  SER192      0.2089
    128  OG         9.9940   34.8610   23.0570 O.3   192  SER192     -0.2183
    129  N         11.4170   28.1540   23.0170 N.3   210  VAL210     -0.1231
    130  CA        11.2060   29.2110   24.0360 C.3   210  VAL210      0.1692
    131  C          9.9410   29.9810   23.6060 C.2   210  VAL210      0.2593
    132  O          9.8660   30.5110   22.4950 O.2   210  VAL210     -0.2718
    133  CB        12.4220   30.1680   24.1210 C.3   210  VAL210      0.0266
    134  CG1       12.1540   31.2850   25.1310 C.3   210  VAL210      0.0020
    135  CG2       13.7110   29.4060   24.4560 C.3   210  VAL210      0.0020
    136  N          8.9400   30.0340   24.4860 N.am  211  SER211     -0.1938
    137  CA         7.6690   30.6370   24.1110 C.3   211  SER211      0.2055
    138  C          7.2630   31.8350   25.0060 C.2   211  SER211      0.2643
    139  O          7.1900   32.9700   24.5180 O.2   211  SER211     -0.2714
    140  CB         6.5880   29.5480   24.0900 C.3   211  SER211      0.2130
    141  OG         5.3070   30.0780   23.7970 O.3   211  SER211     -0.2179
    142  N          7.0090   31.5840   26.3050 N.am  212  TRP212     -0.1959
    143  CA         6.5460   32.6350   27.2410 C.3   212  TRP212      0.1771
    144  C          6.7440   32.2790   28.7280 C.2   212  TRP212      0.2620
    145  O          7.1610   31.1790   29.0770 O.2   212  TRP212     -0.2715
    146  CB         5.0540   32.9840   26.9690 C.3   212  TRP212      0.0590
    147  CG         4.0960   31.8530   27.2280 C.ar  212  TRP212      0.0006
    148  CD1        3.8330   30.7910   26.4120 C.ar  212  TRP212      0.0946
    149  CD2        3.2850   31.6710   28.3990 C.ar  212  TRP212      0.0152
    150  NE1        2.8860   29.9720   26.9890 N.ar  212  TRP212     -0.2442
    151  CE2        2.5520   30.4750   28.2210 C.ar  212  TRP212      0.0810
    152  CE3        3.1260   32.3940   29.6000 C.ar  212  TRP212      0.0012
    153  CZ2        1.6560   29.9900   29.1890 C.ar  212  TRP212      0.0191
    154  CZ3        2.2390   31.9140   30.5580 C.ar  212  TRP212      0.0001
    155  CH2        1.5170   30.7280   30.3500 C.ar  212  TRP212      0.0015
    156  N          6.4340   33.2500   29.5760 N.am  213  GLY213     -0.1954
    157  CA         6.5120   33.1530   31.0250 C.3   213  GLY213      0.1869
    158  C          5.9170   34.4120   31.6300 C.2   213  GLY213      0.2309
    159  O          5.6780   35.3870   30.9030 O.2   213  GLY213     -0.2863
    160  N          6.9500   37.0640   33.3650 N.3   215  GLY215     -0.1210
    161  CA         8.1510   37.7960   33.7280 C.3   215  GLY215      0.1956
    162  C          9.3100   36.8150   33.8180 C.2   215  GLY215      0.2612
    163  O          9.0990   35.6090   34.0190 O.2   215  GLY215     -0.2717
    164  N         10.5390   37.2950   33.6290 N.am  216  CYS216     -0.1970
    165  CA        11.7000   36.3960   33.6580 C.3   216  CYS216      0.1712
    166  C         12.1380   36.0550   35.0490 C.2   216  CYS216      0.2296
    167  O         12.4460   36.9570   35.8370 O.2   216  CYS216     -0.2864
    168  CB        12.8550   36.9560   32.8460 C.3   216  CYS216      0.0983
    169  SG        12.3550   37.6660   31.2630 S.3   216  CYS216     -0.0798
    170  N          9.3050   28.5880   33.2030 N.3   223  GLY223     -0.1225
    171  CA         9.2770   28.9630   31.7910 C.3   223  GLY223      0.1811
    172  C          8.3170   28.0510   31.0360 C.2   223  GLY223      0.2280
    173  O          8.1300   26.8880   31.4120 O.2   223  GLY223     -0.2866
@<TRIPOS>BOND
     1    43    42    2
     2    17    15    1
     3    42    41    1
     4    40    41    1
     5    41    44    1
     6    37    36    2
     7    14    15    1
     8    14    11    1
     9    15    16    1
    10    36    35    1
    11    46    45   ar
    12     1     2    1
    13    38    35    1
    14    38    39    1
    15    44    45    1
    16    10    11    1
    17    10     3   am
    18    35    34    1
    19    11    12    1
    20     2     3    1
    21     2     5    1
    22    45    47   ar
    23    21    20    2
    24     3     4    2
    25    34    26   am
    26    18    12   am
    27    18    19    1
    28    24    25    1
    29    22    19    1
    30    22    23    1
    31    26    27    2
    32    26    25    1
    33    12    13    2
    34    20    19    1
    35    39    23    1
    36    25    28    1
    37     5     6    1
    38    68    69    2
    39    68    67    1
    40    48    49    1
    41     6     7    1
    42    72    71   ar
    43    67    66    1
    44    67    70    1
    45    28    29    1
    46   126   125    2
    47    29    31   ar
    48    29    30   ar
    49    71    70    1
    50    71    73   ar
    51     7     8    2
    52     7     9   am
    53    49    50    1
    54    31    33   ar
    55   125   124    1
    56    57    56    1
    57    30    32   ar
    58    52    50   am
    59    52    53    1
    60    33    32   ar
    61    50    51    2
    62    55    54    2
    63   127   124    1
    64   127   128    1
    65   122   121    2
    66    58    56    1
    67    56    53    1
    68   124   123    1
    69    53    54    1
    70    54    59   am
    71   132   131    2
    72    62    61    2
    73    61    60    1
    74   121   120    1
    75   129   130    1
    76   120   119    1
    77    59    60    1
    78    60    63    1
    79   131   130    1
    80   131   136   am
    81   141   140    1
    82   130   133    1
    83   140   137    1
    84   137   136    1
    85   137   138    1
    86   119   112   am
    87   133   135    1
    88   133   134    1
    89    88    87    1
    90   139   138    2
    91    89    87    1
    92    87    84    1
    93    63    64    1
    94    63    65    1
    95   138   142   am
    96   112   113    2
    97   112   111    1
    98    84    85    1
    99    84    83    1
   100    85    86    2
   101   142   143    1
   102   111   114    1
   103   111   110    1
   104   148   150   ar
   105   148   147   ar
   106   107   106    2
   107   114   115    1
   108   146   147    1
   109   146   143    1
   110   150   151   ar
   111   115   116    1
   112    74    75    1
   113   147   149   ar
   114   143   144    1
   115   110   106   am
   116   106   105    1
   117    81    80    2
   118    79    80    1
   119    79    78    1
   120   151   149   ar
   121   151   153   ar
   122    75    78    1
   123    75    76    1
   124    80    82   am
   125   149   152   ar
   126   116   117    1
   127   102   103    1
   128   102    99    1
   129   144   145    2
   130   144   156   am
   131   104   105    1
   132   104   100   am
   133   117   118    1
   134   105   108    1
   135   153   155   ar
   136    76    77    2
   137    99   100    1
   138    99    98    1
   139   156   157    1
   140   152   154   ar
   141   108   109    1
   142   100   101    2
   143   155   154   ar
   144   109   169    1
   145    98    92   am
   146   159   158    2
   147   157   158    1
   148   172   173    2
   149   172   171    1
   150   169   168    1
   151    93    92    2
   152   171   170    1
   153    92    91    1
   154    96    95   ar
   155   168   165    1
   156    95    97   ar
   157    95    94    1
   158    91    94    1
   159    91    90    1
   160   160   161    1
   161   164   165    1
   162   164   162   am
   163   165   166    1
   164   161   162    1
   165   162   163    2
   166   166   167    2
