@<TRIPOS>MOLECULE
tmp/4jzoG00.pdb
 130 128 0 0 0
SMALL
GASTEIGER

@<TRIPOS>ATOM
      1  N         33.0690   74.8030   -5.9490 N.3    32  VAL32      -0.1245
      2  CA        32.6170   75.9850   -6.7150 C.3    32  VAL32       0.1561
      3  C         31.1020   75.8610   -6.9060 C.2    32  VAL32       0.2260
      4  O         30.6430   74.7750   -7.2870 O.2    32  VAL32      -0.2867
      5  CB        33.3130   76.1420   -8.0930 C.3    32  VAL32       0.0252
      6  CG1       32.8970   77.4450   -8.7780 C.3    32  VAL32       0.0019
      7  CG2       34.8290   76.0300   -7.9790 C.3    32  VAL32       0.0019
      8  N         27.8410   77.4040   -9.0380 N.3    34  THR34      -0.1218
      9  CA        27.5410   78.2210  -10.2190 C.3    34  THR34       0.1862
     10  C         26.0750   78.3010  -10.5590 C.2    34  THR34       0.2287
     11  O         25.3040   77.4090  -10.2410 O.2    34  THR34      -0.2866
     12  CB        28.3470   77.8130  -11.4530 C.3    34  THR34       0.1770
     13  OG1       28.1890   76.4190  -11.6390 O.3    34  THR34      -0.2211
     14  CG2       29.8200   78.1840  -11.3540 C.3    34  THR34       0.0375
     15  N         25.8220   80.7840  -18.8040 N.3    46  TRP46      -0.1241
     16  CA        26.5810   80.8580  -17.5500 C.3    46  TRP46       0.1605
     17  C         26.4300   82.2800  -16.9830 C.2    46  TRP46       0.2264
     18  O         26.6560   83.2670  -17.6890 O.2    46  TRP46      -0.2867
     19  CB        28.0640   80.5100  -17.8040 C.3    46  TRP46       0.0550
     20  CG        28.9570   80.5060  -16.5870 C.ar   46  TRP46       0.0003
     21  CD1       29.1930   79.4590  -15.7460 C.ar   46  TRP46       0.0946
     22  CD2       29.8170   81.5730  -16.1470 C.ar   46  TRP46       0.0152
     23  NE1       30.1030   79.8240  -14.7790 N.ar   46  TRP46      -0.2442
     24  CE2       30.5090   81.1110  -15.0070 C.ar   46  TRP46       0.0810
     25  CE3       30.0900   82.8660  -16.6270 C.ar   46  TRP46       0.0012
     26  CZ2       31.4550   81.8930  -14.3360 C.ar   46  TRP46       0.0191
     27  CZ3       31.0320   83.6400  -15.9650 C.ar   46  TRP46       0.0001
     28  CH2       31.6910   83.1620  -14.8200 C.ar   46  TRP46       0.0015
     29  N         29.8550   82.3720  -10.8210 N.3    49  GLY49      -0.1210
     30  CA        30.2770   81.3650   -9.8630 C.3    49  GLY49       0.1956
     31  C         30.8240   81.9500   -8.5850 C.2    49  GLY49       0.2612
     32  O         31.3020   83.0900   -8.5550 O.2    49  GLY49      -0.2717
     33  N         30.7750   81.1530   -7.5320 N.am   50  PHE50      -0.1962
     34  CA        31.1850   81.5790   -6.2180 C.3    50  PHE50       0.1771
     35  C         31.7820   80.4050   -5.4450 C.2    50  PHE50       0.2619
     36  O         31.2410   79.2890   -5.5000 O.2    50  PHE50      -0.2715
     37  CB        29.9370   82.1600   -5.5010 C.3    50  PHE50       0.0574
     38  CG        30.0950   82.4990   -4.0450 C.ar   50  PHE50      -0.0200
     39  CD1       30.7600   83.6550   -3.6510 C.ar   50  PHE50      -0.0042
     40  CD2       29.5520   81.6830   -3.0650 C.ar   50  PHE50      -0.0042
     41  CE1       30.9260   83.9620   -2.3000 C.ar   50  PHE50      -0.0003
     42  CE2       29.7040   81.9980   -1.7110 C.ar   50  PHE50      -0.0003
     43  CZ        30.4100   83.1240   -1.3390 C.ar   50  PHE50      -0.0000
     44  N         32.9080   80.6530   -4.7350 N.am   51  ILE51      -0.1977
     45  CA        33.5460   79.6490   -3.8680 C.3    51  ILE51       0.1596
     46  C         33.3160   80.0940   -2.4210 C.2    51  ILE51       0.2287
     47  O         33.8860   81.1100   -2.0060 O.2    51  ILE51      -0.2864
     48  CB        35.0330   79.3210   -4.1900 C.3    51  ILE51       0.0276
     49  CG1       35.1990   78.9230   -5.6800 C.3    51  ILE51       0.0022
     50  CG2       35.5500   78.2050   -3.2440 C.3    51  ILE51       0.0022
     51  CD1       36.6590   78.9540   -6.2750 C.3    51  ILE51       0.0001
     52  N         36.6230   80.3650    0.0490 N.3    54  PHE54      -0.1241
     53  CA        37.5470   81.4490   -0.2780 C.3    54  PHE54       0.1605
     54  C         36.8320   82.8190   -0.4100 C.2    54  PHE54       0.2264
     55  O         37.4800   83.8130   -0.7710 O.2    54  PHE54      -0.2867
     56  CB        38.3620   81.1060   -1.5460 C.3    54  PHE54       0.0534
     57  CG        39.2990   79.9220   -1.4150 C.ar   54  PHE54      -0.0203
     58  CD1       40.5050   80.0400   -0.7370 C.ar   54  PHE54      -0.0042
     59  CD2       39.0030   78.7070   -2.0260 C.ar   54  PHE54      -0.0042
     60  CE1       41.3840   78.9530   -0.6420 C.ar   54  PHE54      -0.0003
     61  CE2       39.8800   77.6140   -1.9180 C.ar   54  PHE54      -0.0003
     62  CZ        41.0630   77.7450   -1.2270 C.ar   54  PHE54      -0.0000
     63  N         35.0350   84.2220   -2.6280 N.3    56  THR56      -0.1203
     64  CA        35.2560   84.8250   -3.9480 C.3    56  THR56       0.1994
     65  C         34.1440   84.4600   -4.9170 C.2    56  THR56       0.2618
     66  O         33.6720   83.3180   -4.9370 O.2    56  THR56      -0.2717
     67  CB        36.6340   84.4410   -4.5650 C.3    56  THR56       0.1784
     68  OG1       37.4070   83.6190   -3.6840 O.3    56  THR56      -0.2211
     69  CG2       37.4380   85.6610   -5.0320 C.3    56  THR56       0.0376
     70  N         33.7740   85.4370   -5.7540 N.am   57  ALA57      -0.1965
     71  CA        32.7610   85.3270   -6.7850 C.3    57  ALA57       0.1728
     72  C         33.3520   85.7860   -8.1110 C.2    57  ALA57       0.2616
     73  O         34.3360   86.5230   -8.0980 O.2    57  ALA57      -0.2715
     74  CB        31.5610   86.1860   -6.4210 C.3    57  ALA57       0.0334
     75  N         32.7690   85.3230   -9.2540 N.am   58  MET58      -0.1977
     76  CA        33.1530   85.7040  -10.6230 C.3    58  MET58       0.1605
     77  C         31.9000   85.6720  -11.4890 C.2    58  MET58       0.2287
     78  O         31.2880   84.6210  -11.6690 O.2    58  MET58      -0.2864
     79  CB        34.3000   84.8340  -11.1900 C.3    58  MET58       0.0413
     80  CG        34.9410   85.4170  -12.4400 C.3    58  MET58       0.0598
     81  SD        36.6510   84.8820  -12.7300 S.3    58  MET58      -0.1393
     82  CE        36.4200   83.1890  -13.2720 C.3    58  MET58       0.0692
     83  N         34.3600   71.1870   -8.8220 N.3    98  PRO98      -0.2102
     84  CA        35.5670   71.3410   -7.9830 C.3    98  PRO98       0.1504
     85  C         36.3830   72.6040   -8.3030 C.2    98  PRO98       0.2576
     86  O         36.1070   73.2810   -9.3070 O.2    98  PRO98      -0.2718
     87  CB        36.3600   70.0540   -8.2720 C.3    98  PRO98       0.0282
     88  CG        35.4470   69.1810   -9.1160 C.3    98  PRO98       0.0208
     89  CD        34.5610   70.1390   -9.8390 C.3    98  PRO98       0.0893
     90  N         37.4000   72.9180   -7.4510 N.am   99  LEU99      -0.1966
     91  CA        38.3190   74.0720   -7.6040 C.3    99  LEU99       0.1728
     92  C         39.2830   73.8370   -8.7430 C.2    99  LEU99       0.2617
     93  O         39.7050   72.7000   -8.9640 O.2    99  LEU99      -0.2715
     94  CB        39.1700   74.3690   -6.3340 C.3    99  LEU99       0.0311
     95  CG        38.6680   74.0240   -4.9310 C.3    99  LEU99       0.0022
     96  CD1       37.3840   74.7910   -4.5660 C.3    99  LEU99       0.0001
     97  CD2       38.6150   72.5100   -4.7000 C.3    99  LEU99       0.0001
     98  N         39.6860   74.9300   -9.4180 N.am  100  SER100     -0.1936
     99  CA        40.6110   74.9680  -10.5530 C.3   100  SER100      0.2055
    100  C         40.2230   74.1590  -11.8100 C.2   100  SER100      0.2643
    101  O         41.0060   74.1100  -12.7690 O.2   100  SER100     -0.2714
    102  CB        42.0510   74.7150  -10.1150 C.3   100  SER100      0.2130
    103  OG        42.6380   75.9090   -9.6210 O.3   100  SER100     -0.2179
    104  N         39.0130   73.5570  -11.7960 N.am  101  ARG101     -0.1963
    105  CA        38.4160   72.8170  -12.9010 C.3   101  ARG101      0.1729
    106  C         37.0450   73.4340  -13.1780 C.2   101  ARG101      0.2616
    107  O         36.2630   73.6410  -12.2440 O.2   101  ARG101     -0.2715
    108  CB        38.3640   71.3230  -12.6020 C.3   101  ARG101      0.0348
    109  CG        39.5940   70.6040  -13.1500 C.3   101  ARG101      0.0492
    110  CD        40.2970   69.7750  -12.0990 C.3   101  ARG101      0.2205
    111  NE        39.9720   68.3540  -12.2280 N.pl3 101  ARG101     -0.0865
    112  CZ        39.6790   67.5530  -11.2070 C.cat 101  ARG101      0.5346
    113  NH1       39.3970   66.2750  -11.4190 N.pl3 101  ARG101      0.1354
    114  NH2       39.6610   68.0260   -9.9640 N.pl3 101  ARG101      0.1354
    115  N         36.8420   73.8600  -14.4240 N.am  102  GLY102     -0.1955
    116  CA        35.6490   74.5800  -14.8620 C.3   102  GLY102      0.1869
    117  C         34.4920   73.7550  -15.3940 C.2   102  GLY102      0.2309
    118  O         33.8200   74.1850  -16.3300 O.2   102  GLY102     -0.2863
    119  N         30.9860   71.0780  -14.1410 N.3   104  TYR104     -0.1241
    120  CA        29.9510   70.9050  -13.1190 C.3   104  TYR104      0.1605
    121  C         29.3580   69.5160  -13.1280 C.2   104  TYR104      0.2264
    122  O         28.6580   69.1340  -14.0810 O.2   104  TYR104     -0.2867
    123  CB        28.8760   71.9850  -13.2950 C.3   104  TYR104      0.0534
    124  CG        29.5050   73.3490  -13.4650 C.ar  104  TYR104     -0.0201
    125  CD1       30.1770   73.9630  -12.4070 C.ar  104  TYR104     -0.0009
    126  CD2       29.5500   73.9670  -14.7180 C.ar  104  TYR104     -0.0009
    127  CE1       30.8630   75.1620  -12.5870 C.ar  104  TYR104      0.0417
    128  CE2       30.1940   75.1900  -14.8980 C.ar  104  TYR104      0.0417
    129  CZ        30.8530   75.7820  -13.8310 C.ar  104  TYR104      0.1957
    130  OH        31.4530   77.0050  -13.9920 O.3   104  TYR104     -0.2866
@<TRIPOS>BOND
     1    15    16    1
     2    19    16    1
     3    19    20    1
     4    18    17    2
     5    16    17    1
     6    25    22   ar
     7    25    27   ar
     8    20    22   ar
     9    20    21   ar
    10   118   117    2
    11    22    24   ar
    12    27    28   ar
    13    21    23   ar
    14   117   116    1
    15    24    23   ar
    16    24    26   ar
    17   128   126   ar
    18   128   129   ar
    19   116   115    1
    20    28    26   ar
    21   126   124   ar
    22   115   106   am
    23   119   120    1
    24   122   121    2
    25   130   129    1
    26   129   127   ar
    27   124   123    1
    28   124   125   ar
    29   123   120    1
    30    82    81    1
    31   106   105    1
    32   106   107    2
    33   109   108    1
    34   109   110    1
    35   121   120    1
    36   105   108    1
    37   105   104    1
    38   101   100    2
    39    81    80    1
    40   127   125   ar
    41    80    79    1
    42   111   110    1
    43   111   112    2
    44   100   104   am
    45   100    99    1
    46    78    77    2
    47    13    12    1
    48    77    76    1
    49    12    14    1
    50    12     9    1
    51   113   112    1
    52   112   114    1
    53    79    76    1
    54    29    30    1
    55    76    75    1
    56    10    11    2
    57    10     9    1
    58    99   102    1
    59    99    98    1
    60     9     8    1
    61   102   103    1
    62    30    31    1
    63    89    88    1
    64    89    83    1
    65    98    92   am
    66    86    85    2
    67    75    72   am
    68    88    87    1
    69    93    92    2
    70    83    84    1
    71     6     5    1
    72    92    91    1
    73    31    32    2
    74    31    33   am
    75    85    84    1
    76    85    90   am
    77    87    84    1
    78    72    73    2
    79    72    71    1
    80     5     7    1
    81     5     2    1
    82    91    90    1
    83    91    94    1
    84    33    34    1
    85     4     3    2
    86     3     2    1
    87    71    74    1
    88    71    70    1
    89     2     1    1
    90    94    95    1
    91    51    49    1
    92    34    37    1
    93    34    35    1
    94    70    65   am
    95    49    48    1
    96    37    38    1
    97    36    35    2
    98    35    44   am
    99    69    67    1
   100    66    65    2
   101    95    97    1
   102    95    96    1
   103    65    64    1
   104    44    45    1
   105    67    64    1
   106    67    68    1
   107    48    45    1
   108    48    50    1
   109    38    39   ar
   110    38    40   ar
   111    64    63    1
   112    45    46    1
   113    39    41   ar
   114    40    42   ar
   115    46    47    2
   116    41    43   ar
   117    59    61   ar
   118    59    57   ar
   119    61    62   ar
   120    42    43   ar
   121    56    57    1
   122    56    53    1
   123    57    58   ar
   124    62    60   ar
   125    55    54    2
   126    58    60   ar
   127    54    53    1
   128    53    52    1
