@<TRIPOS>MOLECULE
tmp/4jzrA00.pdb
 216 205 0 0 0
SMALL
GASTEIGER

@<TRIPOS>ATOM
      1  N         45.3790   11.4230   -5.4760 N.3    59  ASP59      -0.1239
      2  CA        44.7550   11.9660   -6.6780 C.3    59  ASP59       0.1674
      3  C         45.7510   12.1590   -7.8120 C.2    59  ASP59       0.2266
      4  O         46.7790   12.8210   -7.6620 O.2    59  ASP59      -0.2867
      5  CB        44.0120   13.2750   -6.4050 C.3    59  ASP59       0.1410
      6  CG        44.9360   14.4150   -6.0580 C.2    59  ASP59       0.3668
      7  OD1       45.6530   14.3020   -5.0460 O.co2  59  ASP59      -0.2456
      8  OD2       44.9400   15.4320   -6.7870 O.co2  59  ASP59      -0.2456
      9  N         46.2380   13.6670  -11.6170 N.3    61  ILE61      -0.1245
     10  CA        45.7090   14.8320  -12.3310 C.3    61  ILE61       0.1561
     11  C         46.2460   14.9400  -13.7490 C.2    61  ILE61       0.2260
     12  O         47.2810   14.3750  -14.0910 O.2    61  ILE61      -0.2867
     13  CB        46.0290   16.1570  -11.6010 C.3    61  ILE61       0.0252
     14  CG1       47.5310   16.2850  -11.3520 C.3    61  ILE61       0.0019
     15  CG2       45.2740   16.2350  -10.2760 C.3    61  ILE61       0.0019
     16  CD1       47.9200   17.5880  -10.6610 C.3    61  ILE61       0.0001
     17  N         46.2110   18.3410  -16.7220 N.3    63  TRP63      -0.1241
     18  CA        45.7420   19.6570  -17.1450 C.3    63  TRP63       0.1605
     19  C         45.2580   19.5580  -18.5870 C.2    63  TRP63       0.2264
     20  O         45.9530   19.0060  -19.4360 O.2    63  TRP63      -0.2867
     21  CB        46.8640   20.6830  -17.0330 C.3    63  TRP63       0.0550
     22  CG        47.1980   21.0370  -15.6150 C.ar   63  TRP63       0.0003
     23  CD1       48.2430   20.5680  -14.8720 C.ar   63  TRP63       0.0946
     24  CD2       46.4710   21.9290  -14.7650 C.ar   63  TRP63       0.0152
     25  NE1       48.2180   21.1270  -13.6150 N.ar   63  TRP63      -0.2442
     26  CE2       47.1370   21.9630  -13.5230 C.ar   63  TRP63       0.0810
     27  CE3       45.3250   22.7120  -14.9390 C.ar   63  TRP63       0.0012
     28  CZ2       46.6920   22.7450  -12.4600 C.ar   63  TRP63       0.0191
     29  CZ3       44.8880   23.4910  -13.8910 C.ar   63  TRP63       0.0001
     30  CH2       45.5660   23.5000  -12.6620 C.ar   63  TRP63       0.0015
     31  N         41.6710   29.2680  -15.5010 N.3   101  THR101     -0.1218
     32  CA        42.7620   28.3220  -15.6830 C.3   101  THR101      0.1862
     33  C         42.3230   27.3460  -16.7380 C.2   101  THR101      0.2287
     34  O         41.1710   27.3550  -17.1320 O.2   101  THR101     -0.2866
     35  CB        42.9810   27.5050  -14.4070 C.3   101  THR101      0.1770
     36  OG1       41.7640   26.8140  -14.0820 O.3   101  THR101     -0.2211
     37  CG2       43.3620   28.4120  -13.2470 C.3   101  THR101      0.0375
     38  N         41.5630   21.2320  -14.6760 N.3   104  MET104     -0.1245
     39  CA        42.2860   20.2000  -13.9330 C.3   104  MET104      0.1570
     40  C         41.3590   19.0130  -13.7440 C.2   104  MET104      0.2261
     41  O         40.3490   19.0920  -13.0360 O.2   104  MET104     -0.2867
     42  CB        42.7770   20.6990  -12.5730 C.3   104  MET104      0.0387
     43  CG        43.7590   19.7300  -11.9090 C.3   104  MET104      0.0595
     44  SD        43.9390   19.9280  -10.1240 S.3   104  MET104     -0.1393
     45  CE        42.2810   19.5430   -9.5570 C.3   104  MET104      0.0692
     46  N         40.8680   15.5470  -12.0710 N.3   106  ALA106     -0.1245
     47  CA        41.4000   14.7420  -10.9650 C.3   106  ALA106      0.1562
     48  C         40.7580   13.3570  -10.9380 C.2   106  ALA106      0.2260
     49  O         39.5710   13.2050  -11.2230 O.2   106  ALA106     -0.2867
     50  CB        41.1810   15.4460   -9.6360 C.3   106  ALA106      0.0290
     51  N         40.7280   10.1480   -8.2050 N.3   108  TYR108     -0.1241
     52  CA        41.0630    9.3930   -7.0050 C.3   108  TYR108      0.1605
     53  C         40.9590    7.9150   -7.3420 C.2   108  TYR108      0.2264
     54  O         39.9240    7.4600   -7.8310 O.2   108  TYR108     -0.2867
     55  CB        40.1370    9.7660   -5.8500 C.3   108  TYR108      0.0534
     56  CG        40.3730   11.1870   -5.3880 C.ar  108  TYR108     -0.0201
     57  CD1       41.1900   11.4560   -4.2960 C.ar  108  TYR108     -0.0009
     58  CD2       39.8180   12.2680   -6.0740 C.ar  108  TYR108     -0.0009
     59  CE1       41.4320   12.7660   -3.8820 C.ar  108  TYR108      0.0417
     60  CE2       40.0590   13.5830   -5.6710 C.ar  108  TYR108      0.0417
     61  CZ        40.8640   13.8210   -4.5730 C.ar  108  TYR108      0.1957
     62  OH        41.1070   15.1080   -4.1600 O.3   108  TYR108     -0.2866
     63  N         41.8940   14.0620    0.2460 N.3   115  TYR115     -0.1241
     64  CA        42.6610   15.2930    0.1020 C.3   115  TYR115      0.1605
     65  C         42.4850   16.0780    1.3830 C.2   115  TYR115      0.2264
     66  O         41.3560   16.2840    1.8370 O.2   115  TYR115     -0.2867
     67  CB        42.2180   16.1180   -1.1240 C.3   115  TYR115      0.0534
     68  CG        43.3000   17.0730   -1.6000 C.ar  115  TYR115     -0.0201
     69  CD1       44.1740   16.7250   -2.6290 C.ar  115  TYR115     -0.0009
     70  CD2       43.4720   18.3060   -0.9920 C.ar  115  TYR115     -0.0009
     71  CE1       45.1810   17.5990   -3.0470 C.ar  115  TYR115      0.0417
     72  CE2       44.4710   19.1790   -1.3930 C.ar  115  TYR115      0.0417
     73  CZ        45.3170   18.8270   -2.4220 C.ar  115  TYR115      0.1957
     74  OH        46.3000   19.7100   -2.8090 O.3   115  TYR115     -0.2866
     75  N         42.1380   22.3080    3.0840 N.3   118  HIS118     -0.1226
     76  CA        42.9390   23.3940    2.5240 C.3   118  HIS118      0.1752
     77  C         42.0290   24.4770    2.0090 C.2   118  HIS118      0.2596
     78  O         40.8170   24.3030    1.9070 O.2   118  HIS118     -0.2718
     79  CB        43.7860   22.9030    1.3460 C.3   118  HIS118      0.0759
     80  CG        42.9550   22.4440    0.1940 C.ar  118  HIS118      0.0818
     81  ND1       42.2410   21.2700    0.2390 N.ar  118  HIS118     -0.2268
     82  CD2       42.6480   23.0280   -0.9880 C.ar  118  HIS118      0.1154
     83  CE1       41.5600   21.1250   -0.8810 C.ar  118  HIS118      0.1986
     84  NE2       41.7920   22.1770   -1.6460 N.ar  118  HIS118     -0.2212
     85  N         42.6530   25.5890    1.6510 N.am  119  VAL119     -0.1966
     86  CA        41.9990   26.6870    0.9690 C.3   119  VAL119      0.1727
     87  C         42.6100   26.7730   -0.4330 C.2   119  VAL119      0.2616
     88  O         43.8300   26.7060   -0.5810 O.2   119  VAL119     -0.2715
     89  CB        42.2220   27.9950    1.7460 C.3   119  VAL119      0.0290
     90  CG1       41.8750   29.2060    0.8840 C.3   119  VAL119      0.0023
     91  CG2       41.4060   27.9860    3.0450 C.3   119  VAL119      0.0023
     92  N         41.7850   26.9070   -1.4680 N.am  120  ASP120     -0.1971
     93  CA        42.3330   26.8860   -2.8270 C.3   120  ASP120      0.1709
     94  C         43.2590   28.0680   -3.0630 C.2   120  ASP120      0.2293
     95  O         44.3560   27.9010   -3.5830 O.2   120  ASP120     -0.2864
     96  CB        41.2340   26.8800   -3.8930 C.3   120  ASP120      0.1436
     97  CG        40.6210   25.5090   -4.0930 C.2   120  ASP120      0.3671
     98  OD1       39.6850   25.3700   -4.9130 O.co2 120  ASP120     -0.2456
     99  OD2       41.0860   24.5590   -3.4360 O.co2 120  ASP120     -0.2456
    100  N         46.0320   34.9670   -5.1430 N.3   125  ASP125     -0.1239
    101  CA        46.6400   34.7080   -6.4460 C.3   125  ASP125      0.1674
    102  C         45.7670   35.0570   -7.6550 C.2   125  ASP125      0.2266
    103  O         46.1730   34.7980   -8.7830 O.2   125  ASP125     -0.2867
    104  CB        47.1530   33.2620   -6.5490 C.3   125  ASP125      0.1410
    105  CG        46.0330   32.2140   -6.5610 C.2   125  ASP125      0.3668
    106  OD1       44.8710   32.5170   -6.9290 O.co2 125  ASP125     -0.2456
    107  OD2       46.3340   31.0560   -6.2000 O.co2 125  ASP125     -0.2456
    108  N         42.4570   33.9470   -8.1450 N.3   127  ARG127     -0.1245
    109  CA        41.3280   33.0290   -8.2950 C.3   127  ARG127      0.1563
    110  C         40.2170   33.3520   -7.3060 C.2   127  ARG127      0.2260
    111  O         40.4240   33.2900   -6.0890 O.2   127  ARG127     -0.2867
    112  CB        41.7880   31.5850   -8.1320 C.3   127  ARG127      0.0307
    113  CG        42.7340   31.1610   -9.2390 C.3   127  ARG127      0.0489
    114  CD        43.2710   29.7670   -9.0320 C.3   127  ARG127      0.2205
    115  NE        44.1370   29.6710   -7.8620 N.pl3 127  ARG127     -0.0865
    116  CZ        44.3080   28.5720   -7.1260 C.cat 127  ARG127      0.5346
    117  NH1       43.6600   27.4420   -7.4120 N.pl3 127  ARG127      0.1354
    118  NH2       45.1380   28.6020   -6.0880 N.pl3 127  ARG127      0.1354
    119  N         33.6370   23.0720  -10.1690 N.3   132  ILE132     -0.1245
    120  CA        33.9060   21.6380  -10.2630 C.3   132  ILE132      0.1561
    121  C         32.7660   20.8720  -10.9360 C.2   132  ILE132      0.2260
    122  O         31.6060   21.0290  -10.5690 O.2   132  ILE132     -0.2867
    123  CB        34.1230   21.0310   -8.8720 C.3   132  ILE132      0.0252
    124  CG1       35.1770   21.8450   -8.1050 C.3   132  ILE132      0.0019
    125  CG2       34.5430   19.5760   -9.0080 C.3   132  ILE132      0.0019
    126  CD1       35.4620   21.3520   -6.6860 C.3   132  ILE132      0.0001
    127  N         33.0110   15.7130   -0.7540 N.3   148  LEU148     -0.1245
    128  CA        33.7340   16.9660   -0.6010 C.3   148  LEU148      0.1561
    129  C         33.1000   17.6800    0.5580 C.2   148  LEU148      0.2260
    130  O         31.9190   18.0230    0.5050 O.2   148  LEU148     -0.2867
    131  CB        33.6310   17.8580   -1.8320 C.3   148  LEU148      0.0270
    132  CG        34.3190   19.2140   -1.6370 C.3   148  LEU148      0.0019
    133  CD1       35.8260   19.0570   -1.7510 C.3   148  LEU148      0.0001
    134  CD2       33.8050   20.2280   -2.6530 C.3   148  LEU148      0.0001
    135  N         32.0780   27.4450   -5.7240 N.3   171  PHE171     -0.1241
    136  CA        32.3370   28.0600   -4.4330 C.3   171  PHE171      0.1605
    137  C         33.4690   29.0700   -4.4960 C.2   171  PHE171      0.2264
    138  O         34.3220   29.0160   -5.3840 O.2   171  PHE171     -0.2867
    139  CB        32.5460   27.0210   -3.3090 C.3   171  PHE171      0.0534
    140  CG        33.7430   26.1080   -3.4850 C.ar  171  PHE171     -0.0203
    141  CD1       35.0010   26.4840   -3.0220 C.ar  171  PHE171     -0.0042
    142  CD2       33.5920   24.8430   -4.0370 C.ar  171  PHE171     -0.0042
    143  CE1       36.1010   25.6410   -3.1500 C.ar  171  PHE171     -0.0003
    144  CE2       34.6860   23.9820   -4.1680 C.ar  171  PHE171     -0.0003
    145  CZ        35.9460   24.3860   -3.7210 C.ar  171  PHE171     -0.0000
    146  N         38.1110   23.3570    2.5020 N.3   179  HIS179     -0.1241
    147  CA        37.4410   22.1090    2.1300 C.3   179  HIS179      0.1621
    148  C         38.4030   20.9420    2.1480 C.2   179  HIS179      0.2264
    149  O         39.6200   21.1210    2.1310 O.2   179  HIS179     -0.2867
    150  CB        36.7650   22.2090    0.7440 C.3   179  HIS179      0.0745
    151  CG        37.6650   22.7160   -0.3450 C.ar  179  HIS179      0.0817
    152  ND1       37.9290   24.0540   -0.5280 N.ar  179  HIS179     -0.2268
    153  CD2       38.3500   22.0640   -1.3130 C.ar  179  HIS179      0.1154
    154  CE1       38.7580   24.2050   -1.5460 C.ar  179  HIS179      0.1986
    155  NE2       39.0350   23.0110   -2.0380 N.ar  179  HIS179     -0.2212
    156  N         38.5790   16.5040    0.7700 N.3   181  VAL181     -0.1245
    157  CA        37.9310   15.3570    0.1710 C.3   181  VAL181      0.1561
    158  C         38.1170   14.1670    1.1120 C.2   181  VAL181      0.2260
    159  O         39.2400   13.7480    1.3660 O.2   181  VAL181     -0.2867
    160  CB        38.5190   15.0490   -1.2110 C.3   181  VAL181      0.0252
    161  CG1       37.8970   13.7840   -1.7720 C.3   181  VAL181      0.0019
    162  CG2       38.3080   16.2430   -2.1680 C.3   181  VAL181      0.0019
    163  N         37.0960    7.9410   -8.4550 N.3   188  ARG188     -0.1245
    164  CA        36.3090    9.1680   -8.3590 C.3   188  ARG188      0.1563
    165  C         36.9300   10.2090   -9.2800 C.2   188  ARG188      0.2260
    166  O         38.1080   10.5400   -9.1390 O.2   188  ARG188     -0.2867
    167  CB        36.3280    9.6590   -6.9080 C.3   188  ARG188      0.0307
    168  CG        35.4940   10.8980   -6.5580 C.3   188  ARG188      0.0489
    169  CD        35.9830   11.4040   -5.2110 C.3   188  ARG188      0.2205
    170  NE        35.3020   12.5610   -4.6300 N.pl3 188  ARG188     -0.0865
    171  CZ        35.5850   13.8260   -4.9220 C.cat 188  ARG188      0.5346
    172  NH1       36.4910   14.1060   -5.8470 N.pl3 188  ARG188      0.1354
    173  NH2       34.9410   14.8070   -4.3130 N.pl3 188  ARG188      0.1354
    174  N         37.9530   20.4110  -12.5320 N.3   192  THR192     -0.1218
    175  CA        37.8910   21.7140  -11.8720 C.3   192  THR192      0.1862
    176  C         38.4500   22.8040  -12.7760 C.2   192  THR192      0.2287
    177  O         39.4340   22.5820  -13.4780 O.2   192  THR192     -0.2866
    178  CB        38.7250   21.7440  -10.5590 C.3   192  THR192      0.1770
    179  OG1       38.2880   20.7230   -9.6560 O.3   192  THR192     -0.2211
    180  CG2       38.6000   23.0930   -9.8810 C.3   192  THR192      0.0375
    181  N         39.2200   27.2320  -12.3260 N.3   194  TRP194     -0.1241
    182  CA        39.1810   28.4150  -11.4530 C.3   194  TRP194      0.1605
    183  C         39.0640   29.6840  -12.2840 C.2   194  TRP194      0.2264
    184  O         39.8010   29.8450  -13.2500 O.2   194  TRP194     -0.2867
    185  CB        40.4450   28.5120  -10.5970 C.3   194  TRP194      0.0550
    186  CG        40.5620   27.4350   -9.5520 C.ar  194  TRP194      0.0003
    187  CD1       40.1280   27.4890   -8.2570 C.ar  194  TRP194      0.0946
    188  CD2       41.1530   26.1460   -9.7210 C.ar  194  TRP194      0.0152
    189  NE1       40.4190   26.3100   -7.6100 N.ar  194  TRP194     -0.2442
    190  CE2       41.0350   25.4640   -8.4920 C.ar  194  TRP194      0.0810
    191  CE3       41.7610   25.4930  -10.7950 C.ar  194  TRP194      0.0012
    192  CZ2       41.5170   24.1750   -8.3030 C.ar  194  TRP194      0.0191
    193  CZ3       42.2370   24.1950  -10.6030 C.ar  194  TRP194      0.0001
    194  CH2       42.1100   23.5550   -9.3650 C.ar  194  TRP194      0.0015
    195  N         39.3230   33.8540  -12.5330 N.3   196  PHE196     -0.1241
    196  CA        40.1600   34.9130  -12.0050 C.3   196  PHE196      0.1605
    197  C         39.3690   36.2010  -11.9200 C.2   196  PHE196      0.2264
    198  O         38.5990   36.5160  -12.8240 O.2   196  PHE196     -0.2867
    199  CB        41.3310   35.1880  -12.9530 C.3   196  PHE196      0.0534
    200  CG        42.3490   34.0880  -13.0300 C.ar  196  PHE196     -0.0203
    201  CD1       42.4910   33.3320  -14.1850 C.ar  196  PHE196     -0.0042
    202  CD2       43.2050   33.8400  -11.9700 C.ar  196  PHE196     -0.0042
    203  CE1       43.4480   32.3290  -14.2670 C.ar  196  PHE196     -0.0003
    204  CE2       44.1650   32.8400  -12.0500 C.ar  196  PHE196     -0.0003
    205  CZ        44.2770   32.0860  -13.2020 C.ar  196  PHE196     -0.0000
    206  N         44.0120   39.4750   -9.8900 N.3   201  ARG201     -0.1245
    207  CA        45.0030   38.8990  -10.7920 C.3   201  ARG201      0.1563
    208  C         45.9880   39.9080  -11.4130 C.2   201  ARG201      0.2260
    209  O         47.1690   39.6030  -11.4960 O.2   201  ARG201     -0.2867
    210  CB        44.3040   38.1200  -11.9050 C.3   201  ARG201      0.0307
    211  CG        45.2430   37.4180  -12.8890 C.3   201  ARG201      0.0489
    212  CD        45.9240   36.2370  -12.2260 C.3   201  ARG201      0.2205
    213  NE        46.8290   35.5090  -13.1130 N.pl3 201  ARG201     -0.0865
    214  CZ        47.8240   34.7270  -12.6940 C.cat 201  ARG201      0.5346
    215  NH1       48.0730   34.5700  -11.3920 N.pl3 201  ARG201      0.1354
    216  NH2       48.5870   34.1070  -13.5820 N.pl3 201  ARG201      0.1354
@<TRIPOS>BOND
     1    20    19    2
     2    19    18    1
     3    18    21    1
     4    18    17    1
     5    34    33    2
     6    21    22    1
     7    33    32    1
     8    32    31    1
     9    32    35    1
    10    22    23   ar
    11    22    24   ar
    12    27    24   ar
    13    27    29   ar
    14    23    25   ar
    15    24    26   ar
    16    38    39    1
    17    35    36    1
    18    35    37    1
    19   203   201   ar
    20   203   205   ar
    21   201   200   ar
    22    12    11    2
    23    39    40    1
    24    39    42    1
    25    29    30   ar
    26    11    10    1
    27    40    41    2
    28    25    26   ar
    29   216   214    1
    30    26    28   ar
    31   177   176    2
    32   184   183    2
    33   205   204   ar
    34   213   214    2
    35   213   212    1
    36   200   199    1
    37   200   202   ar
    38   199   196    1
    39   211   212    1
    40   211   210    1
    41   198   197    2
    42   176   175    1
    43   214   215    1
    44    30    28   ar
    45    42    43    1
    46   195   196    1
    47   174   175    1
    48    10     9    1
    49    10    13    1
    50   181   182    1
    51   183   182    1
    52    46    47    1
    53   204   202   ar
    54   196   197    1
    55    43    44    1
    56   210   207    1
    57   175   178    1
    58    13    14    1
    59    13    15    1
    60   209   208    2
    61   182   185    1
    62   208   207    1
    63    14    16    1
    64    49    48    2
    65    47    48    1
    66    47    50    1
    67   121   122    2
    68   121   120    1
    69   191   193   ar
    70   191   188   ar
    71   207   206    1
    72   193   194   ar
    73   185   186    1
    74   178   180    1
    75   178   179    1
    76   120   119    1
    77   120   123    1
    78    44    45    1
    79   188   186   ar
    80   188   190   ar
    81   186   187   ar
    82   194   192   ar
    83   165   166    2
    84   165   164    1
    85   113   114    1
    86   113   112    1
    87   114   115    1
    88   125   123    1
    89   123   124    1
    90   103   102    2
    91   190   192   ar
    92   190   189   ar
    93   163   164    1
    94   164   167    1
    95   109   108    1
    96   109   112    1
    97   109   110    1
    98   187   189   ar
    99    51    52    1
   100   124   126    1
   101   115   116    2
   102    54    53    2
   103     3     4    2
   104     3     2    1
   105   102   101    1
   106   117   116    1
   107    53    52    1
   108   110   111    2
   109   116   118    1
   110    52    55    1
   111   106   105   ar
   112   167   168    1
   113     8     6   ar
   114     2     5    1
   115     2     1    1
   116   105   104    1
   117   105   107   ar
   118   168   169    1
   119   104   101    1
   120   101   100    1
   121     5     6    1
   122    58    60   ar
   123    58    56   ar
   124     6     7   ar
   125    55    56    1
   126   172   171    1
   127   135   136    1
   128    60    61   ar
   129    56    57   ar
   130   138   137    2
   131   169   170    1
   132   171   170    2
   133   171   173    1
   134    98    97   ar
   135    61    62    1
   136    61    59   ar
   137   137   136    1
   138   136   139    1
   139    57    59   ar
   140   144   142   ar
   141   144   145   ar
   142    97    96    1
   143    97    99   ar
   144   142   140   ar
   145    96    93    1
   146   145   143   ar
   147    95    94    2
   148   140   139    1
   149   140   141   ar
   150   143   141   ar
   151    94    93    1
   152    71    69   ar
   153    71    73   ar
   154    93    92    1
   155    74    73    1
   156   134   132    1
   157    69    68   ar
   158    73    72   ar
   159   162   160    1
   160   155   154   ar
   161   155   153   ar
   162   131   132    1
   163   131   128    1
   164   161   160    1
   165   133   132    1
   166    84    82   ar
   167    84    83   ar
   168    68    67    1
   169    68    70   ar
   170   154   152   ar
   171    92    87   am
   172    72    70   ar
   173   153   151   ar
   174   160   157    1
   175    67    64    1
   176    82    80   ar
   177    83    81   ar
   178   127   128    1
   179   128   129    1
   180    88    87    2
   181   152   151   ar
   182    87    86    1
   183   151   150    1
   184    64    63    1
   185    64    65    1
   186   157   156    1
   187   157   158    1
   188    80    81   ar
   189    80    79    1
   190   130   129    2
   191   150   147    1
   192    90    89    1
   193    86    85    1
   194    86    89    1
   195   158   159    2
   196    79    76    1
   197    65    66    2
   198    85    77   am
   199    89    91    1
   200    78    77    2
   201    77    76    1
   202   147   148    1
   203   147   146    1
   204   149   148    2
   205    76    75    1
