@<TRIPOS>MOLECULE
tmp/4jztA00.pdb
 130 120 0 0 0
SMALL
GASTEIGER

@<TRIPOS>ATOM
      1  N         -2.5740   55.6260   -2.5850 N.3     6  ASP6       -0.1239
      2  CA        -1.2510   55.3330   -3.1390 C.3     6  ASP6        0.1674
      3  C         -0.1640   56.1710   -2.4410 C.2     6  ASP6        0.2266
      4  O         -0.4390   56.7750   -1.4000 O.2     6  ASP6       -0.2867
      5  CB        -1.2280   55.4890   -4.6800 C.3     6  ASP6        0.1410
      6  CG        -1.4480   56.8830   -5.2550 C.2     6  ASP6        0.3668
      7  OD1       -1.4770   57.8570   -4.4730 O.co2   6  ASP6       -0.2456
      8  OD2       -1.5590   57.0020   -6.4950 O.co2   6  ASP6       -0.2456
      9  N          1.1970   59.0040   -3.4880 N.3     8  TYR8       -0.1241
     10  CA         0.8360   60.4190   -3.5960 C.3     8  TYR8        0.1605
     11  C         -0.6060   60.7290   -3.1470 C.2     8  TYR8        0.2264
     12  O         -1.1980   61.7230   -3.5780 O.2     8  TYR8       -0.2867
     13  CB         1.1600   60.9670   -5.0010 C.3     8  TYR8        0.0534
     14  CG         2.6140   60.8050   -5.3960 C.ar    8  TYR8       -0.0201
     15  CD1        2.9870   59.9420   -6.4210 C.ar    8  TYR8       -0.0009
     16  CD2        3.6210   61.5030   -4.7320 C.ar    8  TYR8       -0.0009
     17  CE1        4.3240   59.7840   -6.7840 C.ar    8  TYR8        0.0417
     18  CE2        4.9620   61.3450   -5.0790 C.ar    8  TYR8        0.0417
     19  CZ         5.3100   60.4850   -6.1080 C.ar    8  TYR8        0.1957
     20  OH         6.6320   60.3330   -6.4540 O.3     8  TYR8       -0.2866
     21  N         -3.5640   59.3660   -3.7340 N.3    10  ASN10      -0.1240
     22  CA        -4.6490   59.2440   -4.7110 C.3    10  ASN10       0.1653
     23  C         -5.4090   57.9570   -4.4120 C.2    10  ASN10       0.2266
     24  O         -4.7980   56.9700   -3.9940 O.2    10  ASN10      -0.2867
     25  CB        -4.1100   59.2090   -6.1440 C.3    10  ASN10       0.1155
     26  CG        -3.2950   60.4140   -6.5410 C.2    10  ASN10       0.2627
     27  OD1       -3.8010   61.5360   -6.6520 O.2    10  ASN10      -0.2716
     28  ND2       -2.0180   60.1950   -6.8080 N.am   10  ASN10      -0.0877
     29  N         -7.0310   54.4960   -4.9570 N.3    12  VAL12      -0.1245
     30  CA        -6.7970   53.3320   -5.8120 C.3    12  VAL12       0.1561
     31  C         -7.8850   52.2920   -5.5380 C.2    12  VAL12       0.2260
     32  O         -8.1220   51.9390   -4.3810 O.2    12  VAL12      -0.2867
     33  CB        -5.3640   52.7420   -5.6570 C.3    12  VAL12       0.0252
     34  CG1       -5.1680   51.5120   -6.5380 C.3    12  VAL12       0.0019
     35  CG2       -4.2960   53.7870   -5.9670 C.3    12  VAL12       0.0019
     36  N         -3.8670   51.3050  -19.7380 N.3    27  HIS27      -0.1241
     37  CA        -2.5870   50.9700  -19.1060 C.3    27  HIS27       0.1621
     38  C         -2.4610   49.4900  -18.7370 C.2    27  HIS27       0.2264
     39  O         -3.4630   48.8350  -18.4480 O.2    27  HIS27      -0.2867
     40  CB        -2.3940   51.8180  -17.8400 C.3    27  HIS27       0.0745
     41  CG        -2.1680   53.2740  -18.0910 C.ar   27  HIS27       0.0817
     42  ND1       -3.1910   54.0980  -18.5240 N.ar   27  HIS27      -0.2268
     43  CD2       -1.0560   54.0180  -17.9000 C.ar   27  HIS27       0.1154
     44  CE1       -2.6610   55.3060  -18.6190 C.ar   27  HIS27       0.1986
     45  NE2       -1.3830   55.3100  -18.2420 N.ar   27  HIS27      -0.2212
     46  N          1.5010   52.2220  -21.4130 N.3    54  LYS54      -0.1245
     47  CA         0.2470   52.5510  -22.0850 C.3    54  LYS54       0.1561
     48  C          0.0000   51.6570  -23.3010 C.2    54  LYS54       0.2260
     49  O          0.9520   51.2000  -23.9360 O.2    54  LYS54      -0.2867
     50  CB         0.2330   54.0270  -22.5090 C.3    54  LYS54       0.0271
     51  CG        -0.1710   54.9790  -21.3920 C.3    54  LYS54       0.0035
     52  CD        -0.9540   56.1970  -21.8990 C.3    54  LYS54       0.0206
     53  CE        -2.4270   55.9200  -22.1240 C.3    54  LYS54       0.1093
     54  NZ        -3.2110   57.1750  -22.2540 N.3    54  LYS54      -0.1314
     55  N         -6.8180   47.5130  -11.7560 N.3    86  TYR86      -0.1241
     56  CA        -6.9550   48.6090  -10.8030 C.3    86  TYR86       0.1605
     57  C         -7.2280   49.9610  -11.4400 C.2    86  TYR86       0.2264
     58  O         -6.8580   50.2000  -12.5910 O.2    86  TYR86      -0.2867
     59  CB        -5.8320   48.6570   -9.7480 C.3    86  TYR86       0.0534
     60  CG        -4.4440   48.9680  -10.2650 C.ar   86  TYR86      -0.0201
     61  CD1       -3.6430   47.9710  -10.8110 C.ar   86  TYR86      -0.0009
     62  CD2       -3.8860   50.2340  -10.1030 C.ar   86  TYR86      -0.0009
     63  CE1       -2.3470   48.2360  -11.2440 C.ar   86  TYR86       0.0417
     64  CE2       -2.5900   50.5130  -10.5340 C.ar   86  TYR86       0.0417
     65  CZ        -1.8190   49.5060  -11.0910 C.ar   86  TYR86       0.1957
     66  OH        -0.5380   49.7570  -11.5080 O.3    86  TYR86      -0.2866
     67  N         -6.9020   54.1320  -10.7730 N.3    88  VAL88      -0.1245
     68  CA        -6.2350   55.1900  -10.0120 C.3    88  VAL88       0.1561
     69  C         -7.0090   56.4870  -10.2380 C.2    88  VAL88       0.2260
     70  O         -7.1370   56.9420  -11.3760 O.2    88  VAL88      -0.2867
     71  CB        -4.7190   55.3240  -10.3310 C.3    88  VAL88       0.0252
     72  CG1       -4.0620   56.3850   -9.4500 C.3    88  VAL88       0.0019
     73  CG2       -4.0040   53.9850  -10.1780 C.3    88  VAL88       0.0019
     74  N         -6.7990   60.0310   -9.8520 N.3    90  GLY90      -0.1225
     75  CA        -5.9240   61.1920   -9.7240 C.3    90  GLY90       0.1811
     76  C         -6.6910   62.4920   -9.5940 C.2    90  GLY90       0.2280
     77  O         -7.9270   62.4920   -9.6290 O.2    90  GLY90      -0.2866
     78  N         -6.9470   63.3280  -14.1620 N.3    93  LYS93      -0.1245
     79  CA        -7.1060   62.1130  -14.9630 C.3    93  LYS93       0.1561
     80  C         -7.2820   60.8450  -14.1250 C.2    93  LYS93       0.2260
     81  O         -6.6810   60.7150  -13.0550 O.2    93  LYS93      -0.2867
     82  CB        -5.9080   61.9580  -15.9210 C.3    93  LYS93       0.0271
     83  CG        -6.1750   61.0800  -17.1410 C.3    93  LYS93       0.0035
     84  CD        -5.0160   61.1170  -18.1260 C.3    93  LYS93       0.0206
     85  CE        -5.2530   60.2430  -19.3340 C.3    93  LYS93       0.1093
     86  NZ        -4.8760   58.8270  -19.0770 N.3    93  LYS93      -0.1314
     87  N         -6.9290   56.6210  -14.3820 N.3    95  ILE95      -0.1245
     88  CA        -6.2220   55.5800  -15.1230 C.3    95  ILE95       0.1561
     89  C         -6.7060   54.1870  -14.7270 C.2    95  ILE95       0.2260
     90  O         -6.8080   53.8910  -13.5380 O.2    95  ILE95      -0.2867
     91  CB        -4.6790   55.7960  -14.9480 C.3    95  ILE95       0.0252
     92  CG1       -4.1580   56.9100  -15.8800 C.3    95  ILE95       0.0019
     93  CG2       -3.8460   54.5170  -15.1120 C.3    95  ILE95       0.0019
     94  CD1       -4.1050   58.3110  -15.2730 C.3    95  ILE95       0.0001
     95  N         -5.5450   50.4630  -15.0250 N.3    97  LYS97      -0.1245
     96  CA        -4.3640   49.6300  -15.2500 C.3    97  LYS97       0.1561
     97  C         -4.6630   48.1400  -15.0630 C.2    97  LYS97       0.2260
     98  O         -5.1990   47.7390  -14.0270 O.2    97  LYS97      -0.2867
     99  CB        -3.2290   50.0950  -14.3170 C.3    97  LYS97       0.0271
    100  CG        -1.8190   49.7660  -14.7870 C.3    97  LYS97       0.0035
    101  CD        -0.8900   50.9490  -14.5500 C.3    97  LYS97       0.0206
    102  CE         0.5650   50.5880  -14.7040 C.3    97  LYS97       0.1093
    103  NZ         1.4440   51.7810  -14.5920 N.3    97  LYS97      -0.1314
    104  N          7.4400   54.5580   -7.3220 N.3   137  PHE137     -0.1227
    105  CA         6.2510   54.8290   -6.5070 C.3   137  PHE137      0.1736
    106  C          5.1220   53.8110   -6.7380 C.2   137  PHE137      0.2595
    107  O          4.3160   53.5810   -5.8340 O.2   137  PHE137     -0.2718
    108  CB         5.7520   56.2750   -6.7100 C.3   137  PHE137      0.0547
    109  CG         5.0120   56.5530   -8.0000 C.ar  137  PHE137     -0.0202
    110  CD1        3.6240   56.4980   -8.0500 C.ar  137  PHE137     -0.0042
    111  CD2        5.7020   56.9020   -9.1550 C.ar  137  PHE137     -0.0042
    112  CE1        2.9400   56.7590   -9.2400 C.ar  137  PHE137     -0.0003
    113  CE2        5.0160   57.1670  -10.3450 C.ar  137  PHE137     -0.0003
    114  CZ         3.6400   57.0950  -10.3790 C.ar  137  PHE137     -0.0000
    115  N          5.0750   53.2040   -7.9450 N.am  138  ILE138     -0.1980
    116  CA         4.0780   52.2000   -8.3430 C.3   138  ILE138      0.1595
    117  C          4.2340   50.8820   -7.5510 C.2   138  ILE138      0.2287
    118  O          3.3040   50.0760   -7.4960 O.2   138  ILE138     -0.2864
    119  CB         3.9970   52.0170   -9.8940 C.3   138  ILE138      0.0276
    120  CG1        5.2230   51.2700  -10.4680 C.3   138  ILE138      0.0022
    121  CG2        3.7790   53.3710  -10.6040 C.3   138  ILE138      0.0022
    122  CD1        5.0880   50.8190  -11.9530 C.3   138  ILE138      0.0001
    123  N          2.8040   51.0720   -2.9220 N.3   141  ASP141     -0.1239
    124  CA         1.4030   51.0690   -2.4930 C.3   141  ASP141      0.1674
    125  C          0.9290   49.6410   -2.1830 C.2   141  ASP141      0.2266
    126  O          1.7480   48.7200   -2.1890 O.2   141  ASP141     -0.2867
    127  CB         0.4920   51.7940   -3.5130 C.3   141  ASP141      0.1410
    128  CG         0.3840   51.1880   -4.9050 C.2   141  ASP141      0.3668
    129  OD1       -0.3350   51.7650   -5.7440 O.co2 141  ASP141     -0.2456
    130  OD2        1.0350   50.1440   -5.1610 O.co2 141  ASP141     -0.2456
@<TRIPOS>BOND
     1    49    48    2
     2    48    47    1
     3    50    47    1
     4    50    51    1
     5    54    53    1
     6    53    52    1
     7    47    46    1
     8    52    51    1
     9    36    37    1
    10    85    86    1
    11    85    84    1
    12    37    38    1
    13    37    40    1
    14    38    39    2
    15    44    42   ar
    16    44    45   ar
    17    42    41   ar
    18    45    43   ar
    19    84    83    1
    20    41    43   ar
    21    41    40    1
    22    83    82    1
    23    82    79    1
    24    92    94    1
    25    92    91    1
    26    96    97    1
    27    96    95    1
    28    96    99    1
    29    88    91    1
    30    88    89    1
    31    88    87    1
    32    93    91    1
    33    97    98    2
    34    79    78    1
    35    79    80    1
    36   100   101    1
    37   100    99    1
    38    89    90    2
    39   102   103    1
    40   102   101    1
    41    80    81    2
    42    58    57    2
    43   122   120    1
    44    55    56    1
    45    66    65    1
    46    57    56    1
    47    70    69    2
    48    63    65   ar
    49    63    61   ar
    50    65    64   ar
    51    61    60   ar
    52    56    59    1
    53    67    68    1
    54   121   119    1
    55    64    62   ar
    56   120   119    1
    57   114   113   ar
    58   114   112   ar
    59   113   111   ar
    60    71    73    1
    61    71    68    1
    62    71    72    1
    63    60    62   ar
    64    60    59    1
    65    69    68    1
    66   119   116    1
    67    74    75    1
    68    75    76    1
    69    77    76    2
    70   112   110   ar
    71   111   109   ar
    72   116   115    1
    73   116   117    1
    74   110   109   ar
    75   109   108    1
    76   115   106   am
    77   117   118    2
    78   104   105    1
    79    28    26   am
    80    17    15   ar
    81    17    19   ar
    82   106   105    1
    83   106   107    2
    84   108   105    1
    85    27    26    2
    86    26    25    1
    87    34    33    1
    88     8     6   ar
    89    20    19    1
    90    15    14   ar
    91    25    22    1
    92    19    18   ar
    93    35    33    1
    94    30    33    1
    95    30    31    1
    96    30    29    1
    97   129   128   ar
    98    31    32    2
    99    14    13    1
   100    14    16   ar
   101     6     5    1
   102     6     7   ar
   103   130   128   ar
   104    18    16   ar
   105    13    10    1
   106   128   127    1
   107    22    23    1
   108    22    21    1
   109     5     2    1
   110    23    24    2
   111    10     9    1
   112    10    11    1
   113    12    11    2
   114   127   124    1
   115     2     1    1
   116     2     3    1
   117   123   124    1
   118   124   125    1
   119     3     4    2
   120   126   125    2
