@<TRIPOS>MOLECULE
tmp/4jzuA00.pdb
 146 135 0 0 0
SMALL
GASTEIGER

@<TRIPOS>ATOM
      1  N         20.9390   12.7290   20.9910 N.3     6  ASP6       -0.1239
      2  CA        20.4530   14.0870   20.7400 C.3     6  ASP6        0.1674
      3  C         20.7810   15.0400   21.8840 C.2     6  ASP6        0.2266
      4  O         21.5420   14.6870   22.7880 O.2     6  ASP6       -0.2867
      5  CB        18.9550   14.1230   20.3400 C.3     6  ASP6        0.1410
      6  CG        17.9650   13.8750   21.4780 C.2     6  ASP6        0.3668
      7  OD1       18.3920   13.8770   22.6690 O.co2   6  ASP6       -0.2456
      8  OD2       16.7790   13.6920   21.1910 O.co2   6  ASP6       -0.2456
      9  N         19.0250   16.2060   24.2930 N.3     8  TYR8       -0.1241
     10  CA        18.4670   15.7740   25.5780 C.3     8  TYR8        0.1605
     11  C         18.8180   14.3110   25.8940 C.2     8  TYR8        0.2264
     12  O         18.2010   13.6920   26.7740 O.2     8  TYR8       -0.2867
     13  CB        16.9460   15.9800   25.5590 C.3     8  TYR8        0.0534
     14  CG        16.4540   17.4140   25.5770 C.ar    8  TYR8       -0.0201
     15  CD1       15.1330   17.7180   25.2640 C.ar    8  TYR8       -0.0009
     16  CD2       17.3000   18.4660   25.9320 C.ar    8  TYR8       -0.0009
     17  CE1       14.6560   19.0320   25.3180 C.ar    8  TYR8        0.0417
     18  CE2       16.8380   19.7850   25.9710 C.ar    8  TYR8        0.0417
     19  CZ        15.5190   20.0630   25.6420 C.ar    8  TYR8        0.1957
     20  OH        15.0210   21.3420   25.7100 O.3     8  TYR8       -0.2866
     21  N         18.4810   11.4910   24.1580 N.3    10  ASN10      -0.1240
     22  CA        17.7200   10.4040   23.5470 C.3    10  ASN10       0.1653
     23  C         18.6340    9.8370   22.4510 C.2    10  ASN10       0.2266
     24  O         19.5860   10.5010   22.0500 O.2    10  ASN10      -0.2867
     25  CB        16.4450   10.9360   22.8810 C.3    10  ASN10       0.1155
     26  CG        15.5210   11.6870   23.8130 C.2    10  ASN10       0.2627
     27  OD1       15.1340   11.1710   24.8490 O.2    10  ASN10      -0.2716
     28  ND2       15.1260   12.9160   23.4450 N.am   10  ASN10      -0.0877
     29  N         18.9590    8.7960   18.5440 N.3    12  VAL12      -0.1245
     30  CA        18.3210    9.0310   17.2710 C.3    12  VAL12       0.1561
     31  C         18.9630    8.1220   16.2420 C.2    12  VAL12       0.2260
     32  O         20.1790    7.9770   16.2130 O.2    12  VAL12      -0.2867
     33  CB        18.3900   10.5150   16.8220 C.3    12  VAL12       0.0252
     34  CG1       17.8880   10.6680   15.3920 C.3    12  VAL12       0.0019
     35  CG2       17.5900   11.4030   17.7680 C.3    12  VAL12       0.0019
     36  N          5.1540   11.7100   12.7550 N.3    27  HIS27      -0.1241
     37  CA         5.6730   13.0750   12.7220 C.3    27  HIS27       0.1621
     38  C          6.3340   13.4100   11.3890 C.2    27  HIS27       0.2264
     39  O          6.7940   12.5290   10.6500 O.2    27  HIS27      -0.2867
     40  CB         6.6810   13.3150   13.8770 C.3    27  HIS27       0.0745
     41  CG         6.0990   13.2160   15.2640 C.ar   27  HIS27       0.0817
     42  ND1        5.6870   12.0110   15.7950 N.ar   27  HIS27      -0.2268
     43  CD2        5.9600   14.1770   16.2080 C.ar   27  HIS27       0.1154
     44  CE1        5.2620   12.2850   17.0210 C.ar   27  HIS27       0.1986
     45  NE2        5.4240   13.5770   17.3110 N.ar   27  HIS27      -0.2212
     46  N          2.9710   16.6630   14.1590 N.3    54  LYS54      -0.1245
     47  CA         2.3120   15.3680   14.0860 C.3    54  LYS54       0.1561
     48  C          1.5610   15.0890   12.7700 C.2    54  LYS54       0.2260
     49  O          1.0330   16.0130   12.1260 O.2    54  LYS54      -0.2867
     50  CB         1.3660   15.2070   15.2980 C.3    54  LYS54       0.0271
     51  CG         2.0800   15.0420   16.6410 C.3    54  LYS54       0.0035
     52  CD         1.0550   14.6790   17.7300 C.3    54  LYS54       0.0206
     53  CE         1.6470   13.8290   18.8320 C.3    54  LYS54       0.1093
     54  NZ         0.7000   13.6370   19.9640 N.3    54  LYS54      -0.1314
     55  N         13.7900    9.6660   10.5070 N.3    86  TYR86      -0.1241
     56  CA        14.5190    9.3700   11.7270 C.3    86  TYR86       0.1605
     57  C         13.6350    8.8360   12.8080 C.2    86  TYR86       0.2264
     58  O         12.4200    9.0480   12.7870 O.2    86  TYR86      -0.2867
     59  CB        15.4010   10.5130   12.1940 C.3    86  TYR86       0.0534
     60  CG        14.7150   11.8100   12.5570 C.ar   86  TYR86      -0.0201
     61  CD1       14.3900   12.7420   11.5760 C.ar   86  TYR86      -0.0009
     62  CD2       14.5530   12.1880   13.8920 C.ar   86  TYR86      -0.0009
     63  CE1       13.8450   13.9880   11.9090 C.ar   86  TYR86       0.0417
     64  CE2       14.1130   13.4790   14.2380 C.ar   86  TYR86       0.0417
     65  CZ        13.7190   14.3530   13.2380 C.ar   86  TYR86       0.1957
     66  OH        13.2380   15.6040   13.5320 O.3    86  TYR86      -0.2866
     67  N         13.2940    8.5920   16.9110 N.3    88  VAL88      -0.1245
     68  CA        13.7990    9.1410   18.1690 C.3    88  VAL88       0.1561
     69  C         13.4750    8.0980   19.2350 C.2    88  VAL88       0.2260
     70  O         12.3080    7.8370   19.4760 O.2    88  VAL88      -0.2867
     71  CB        13.1900   10.5130   18.5490 C.3    88  VAL88       0.0252
     72  CG1       13.8160   11.0260   19.8450 C.3    88  VAL88       0.0019
     73  CG2       13.3720   11.5330   17.4280 C.3    88  VAL88       0.0019
     74  N         13.1680    7.7060   22.7180 N.3    90  GLY90      -0.1210
     75  CA        12.9720    8.4680   23.9460 C.3    90  GLY90       0.1956
     76  C         12.9610    7.6250   25.1940 C.2    90  GLY90       0.2611
     77  O         13.1380    6.4020   25.1290 O.2    90  GLY90      -0.2717
     78  N         12.7490    8.2800   26.3490 N.am   91  LYS91      -0.1979
     79  CA        12.6510    7.5950   27.6380 C.3    91  LYS91       0.1596
     80  C         11.3410    6.7930   27.7200 C.2    91  LYS91       0.2287
     81  O         11.3700    5.6270   28.1090 O.2    91  LYS91      -0.2864
     82  CB        12.7280    8.6020   28.8030 C.3    91  LYS91       0.0298
     83  CG        13.9950    8.5080   29.6410 C.3    91  LYS91       0.0038
     84  CD        15.1630    9.2620   29.0200 C.3    91  LYS91       0.0206
     85  CE        16.3840    9.2890   29.9090 C.3    91  LYS91       0.1093
     86  NZ        16.2620   10.2890   31.0060 N.3    91  LYS91      -0.1314
     87  N          8.7220    7.1490   24.9660 N.3    93  LYS93      -0.1245
     88  CA         8.1500    7.0020   23.6390 C.3    93  LYS93       0.1561
     89  C          9.1800    6.8630   22.5480 C.2    93  LYS93       0.2260
     90  O         10.3040    7.3300   22.6750 O.2    93  LYS93      -0.2867
     91  CB         7.2720    8.2350   23.3290 C.3    93  LYS93       0.0271
     92  CG         5.9590    8.2710   24.1150 C.3    93  LYS93       0.0035
     93  CD         5.3510    9.6750   24.1870 C.3    93  LYS93       0.0206
     94  CE         4.3750    9.9470   23.0670 C.3    93  LYS93       0.1093
     95  NZ         3.4230   11.0290   23.4240 N.3    93  LYS93      -0.1314
     96  N          9.3820    7.7600   18.4790 N.3    95  ILE95      -0.1245
     97  CA         8.6590    8.4200   17.4020 C.3    95  ILE95       0.1561
     98  C          9.4160    8.2810   16.1050 C.2    95  ILE95       0.2260
     99  O         10.6480    8.2510   16.1100 O.2    95  ILE95      -0.2867
    100  CB         8.2530    9.8790   17.7390 C.3    95  ILE95       0.0252
    101  CG1        9.4630   10.7700   17.9780 C.3    95  ILE95       0.0019
    102  CG2        7.2390    9.9570   18.9020 C.3    95  ILE95       0.0019
    103  CD1        9.1840   12.2300   17.5650 C.3    95  ILE95       0.0001
    104  N          9.8330   10.0080   12.3500 N.3    97  LYS97      -0.1245
    105  CA         9.6810   11.3370   11.7810 C.3    97  LYS97       0.1561
    106  C         10.2430   11.3970   10.3590 C.2    97  LYS97       0.2260
    107  O         11.4320   11.1550   10.1470 O.2    97  LYS97      -0.2867
    108  CB        10.3870   12.3350   12.7280 C.3    97  LYS97       0.0271
    109  CG        10.0440   13.7980   12.5150 C.3    97  LYS97       0.0035
    110  CD        10.1300   14.5250   13.8750 C.3    97  LYS97       0.0206
    111  CE        10.0360   16.0440   13.7030 C.3    97  LYS97       0.1093
    112  NZ         9.8820   16.7030   15.0390 N.3    97  LYS97      -0.1314
    113  N         15.6710   22.6370   20.5430 N.3   137  PHE137     -0.1227
    114  CA        16.5920   21.5130   20.7770 C.3   137  PHE137      0.1736
    115  C         16.5980   20.5720   19.5560 C.2   137  PHE137      0.2595
    116  O         17.5780   19.8660   19.3360 O.2   137  PHE137     -0.2718
    117  CB        16.2680   20.7370   22.0700 C.3   137  PHE137      0.0547
    118  CG        15.0520   19.8480   21.9720 C.ar  137  PHE137     -0.0202
    119  CD1       15.1820   18.5000   21.6390 C.ar  137  PHE137     -0.0042
    120  CD2       13.7810   20.3490   22.2390 C.ar  137  PHE137     -0.0042
    121  CE1       14.0590   17.6720   21.5530 C.ar  137  PHE137     -0.0003
    122  CE2       12.6560   19.5190   22.1540 C.ar  137  PHE137     -0.0003
    123  CZ        12.8030   18.1950   21.7870 C.ar  137  PHE137     -0.0000
    124  N         15.4940   20.5470   18.7750 N.am  138  ILE138     -0.1980
    125  CA        15.4010   19.6700   17.5910 C.3   138  ILE138      0.1595
    126  C         16.3850   20.0520   16.4790 C.2   138  ILE138      0.2287
    127  O         16.6140   19.2750   15.5670 O.2   138  ILE138     -0.2864
    128  CB        13.9420   19.4600   17.1080 C.3   138  ILE138      0.0276
    129  CG1       13.3730   20.6640   16.3900 C.3   138  ILE138      0.0022
    130  CG2       13.0270   19.0320   18.2490 C.3   138  ILE138      0.0022
    131  CD1       12.0400   20.3170   15.6000 C.3   138  ILE138      0.0001
    132  N         21.0500   18.5960   17.1820 N.3   141  ASP141     -0.1239
    133  CA        21.6320   17.2460   17.1060 C.3   141  ASP141      0.1674
    134  C         22.1190   16.9890   15.6660 C.2   141  ASP141      0.2266
    135  O         22.0550   17.8950   14.8280 O.2   141  ASP141     -0.2867
    136  CB        20.6640   16.1800   17.6540 C.3   141  ASP141      0.1410
    137  CG        19.3620   16.1140   16.9010 C.2   141  ASP141      0.3668
    138  OD1       18.3070   15.9790   17.5510 O.co2 141  ASP141     -0.2456
    139  OD2       19.4000   16.1910   15.6620 O.co2 141  ASP141     -0.2456
    140  N         20.8090   15.4320   13.2220 N.3   143  VAL143     -0.1245
    141  CA        19.7870   15.3460   12.1440 C.3   143  VAL143      0.1561
    142  C         19.9630   16.5390   11.1930 C.2   143  VAL143      0.2260
    143  O         20.0520   16.3770    9.9610 O.2   143  VAL143     -0.2867
    144  CB        18.3200   15.2690   12.6970 C.3   143  VAL143      0.0252
    145  CG1       17.2980   15.2730   11.5360 C.3   143  VAL143      0.0019
    146  CG2       18.1350   14.0040   13.5460 C.3   143  VAL143      0.0019
@<TRIPOS>BOND
     1   143   142    2
     2   107   106    2
     3   106   105    1
     4    55    56    1
     5    39    38    2
     6   142   141    1
     7    38    37    1
     8   145   144    1
     9    61    63   ar
    10    61    60   ar
    11    56    59    1
    12    56    57    1
    13   105   104    1
    14   105   108    1
    15    63    65   ar
    16    49    48    2
    17   141   144    1
    18   141   140    1
    19    59    60    1
    20   109   108    1
    21   109   110    1
    22    60    62   ar
    23   144   146    1
    24    37    36    1
    25    37    40    1
    26    48    47    1
    27    58    57    2
    28    65    66    1
    29    65    64   ar
    30   111   110    1
    31   111   112    1
    32    40    41    1
    33    62    64   ar
    34    47    46    1
    35    47    50    1
    36   135   134    2
    37    41    42   ar
    38    41    43   ar
    39    50    51    1
    40    34    33    1
    41   127   126    2
    42   131   129    1
    43   139   137   ar
    44   134   133    1
    45    42    44   ar
    46    98    99    2
    47    98    97    1
    48    43    45   ar
    49    32    31    2
    50    31    30    1
    51   129   128    1
    52   126   125    1
    53    51    52    1
    54    33    30    1
    55    33    35    1
    56   137   138   ar
    57   137   136    1
    58    67    68    1
    59    44    45   ar
    60   133   132    1
    61   133   136    1
    62   128   125    1
    63   128   130    1
    64    30    29    1
    65    97   100    1
    66    97    96    1
    67    73    71    1
    68   103   101    1
    69   125   124    1
    70    52    53    1
    71   100   101    1
    72   100   102    1
    73    68    71    1
    74    68    69    1
    75    71    72    1
    76   124   115   am
    77    53    54    1
    78    69    70    2
    79   116   115    2
    80   115   114    1
    81     5     2    1
    82     5     6    1
    83   113   114    1
    84     2     1    1
    85     2     3    1
    86   114   117    1
    87     8     6   ar
    88     6     7   ar
    89   121   119   ar
    90   121   123   ar
    91   119   118   ar
    92   123   122   ar
    93     3     4    2
    94   118   117    1
    95   118   120   ar
    96    24    23    2
    97   122   120   ar
    98    23    22    1
    99    89    90    2
   100    89    88    1
   101    74    75    1
   102    25    22    1
   103    25    26    1
   104    94    95    1
   105    94    93    1
   106    91    88    1
   107    91    92    1
   108    28    26   am
   109    22    21    1
   110    88    87    1
   111    26    27    2
   112    75    76    1
   113    92    93    1
   114     9    10    1
   115    77    76    2
   116    76    78   am
   117    15    17   ar
   118    15    14   ar
   119    17    19   ar
   120    13    14    1
   121    13    10    1
   122    14    16   ar
   123    10    11    1
   124    19    20    1
   125    19    18   ar
   126    11    12    2
   127    16    18   ar
   128    78    79    1
   129    79    80    1
   130    79    82    1
   131    80    81    2
   132    82    83    1
   133    84    83    1
   134    84    85    1
   135    85    86    1
