@<TRIPOS>MOLECULE
tmp/4jzvA00.pdb
 157 145 0 0 0
SMALL
GASTEIGER

@<TRIPOS>ATOM
      1  N        -21.1310   10.3710  -20.4060 N.3     6  ASP6       -0.1239
      2  CA       -20.6560   11.7480  -20.2690 C.3     6  ASP6        0.1674
      3  C        -21.1730   12.6700  -21.3870 C.2     6  ASP6        0.2266
      4  O        -22.0870   12.2830  -22.1220 O.2     6  ASP6       -0.2867
      5  CB       -19.1180   11.8120  -20.0860 C.3     6  ASP6        0.1410
      6  CG       -18.2440   11.3400  -21.2410 C.2     6  ASP6        0.3668
      7  OD1      -18.7560   11.2320  -22.3780 O.co2   6  ASP6       -0.2456
      8  OD2      -17.0330   11.1340  -21.0190 O.co2   6  ASP6       -0.2456
      9  N        -19.5500   13.6370  -24.1170 N.3     8  TYR8       -0.1241
     10  CA       -19.1400   13.0740  -25.4070 C.3     8  TYR8        0.1605
     11  C        -19.5820   11.6040  -25.5770 C.2     8  TYR8        0.2264
     12  O        -18.9800   10.8510  -26.3480 O.2     8  TYR8       -0.2867
     13  CB       -17.6280   13.2660  -25.6470 C.3     8  TYR8        0.0534
     14  CG       -17.2030   14.7140  -25.7780 C.ar    8  TYR8       -0.0201
     15  CD1      -16.4020   15.3160  -24.8130 C.ar    8  TYR8       -0.0009
     16  CD2      -17.5910   15.4810  -26.8740 C.ar    8  TYR8       -0.0009
     17  CE1      -15.9990   16.6450  -24.9330 C.ar    8  TYR8        0.0417
     18  CE2      -17.2060   16.8150  -26.9970 C.ar    8  TYR8        0.0417
     19  CZ       -16.4070   17.3930  -26.0240 C.ar    8  TYR8        0.1957
     20  OH       -16.0150   18.7040  -26.1430 O.3     8  TYR8       -0.2866
     21  N        -19.2880    8.9440  -23.7880 N.3    10  ASN10      -0.1240
     22  CA       -18.4110    7.8990  -23.2510 C.3    10  ASN10       0.1653
     23  C        -18.9670    7.4220  -21.9110 C.2    10  ASN10       0.2266
     24  O        -19.4580    8.2400  -21.1300 O.2    10  ASN10      -0.2867
     25  CB       -16.9790    8.4200  -23.0730 C.3    10  ASN10       0.1155
     26  CG       -16.3040    8.8410  -24.3540 C.2    10  ASN10       0.2627
     27  OD1      -16.0670    8.0360  -25.2620 O.2    10  ASN10      -0.2716
     28  ND2      -15.9450   10.1120  -24.4400 N.am   10  ASN10      -0.0877
     29  N        -19.1210    6.2850  -18.0960 N.3    12  VAL12      -0.1245
     30  CA       -18.4480    6.6380  -16.8460 C.3    12  VAL12       0.1561
     31  C        -18.9910    5.7370  -15.7210 C.2    12  VAL12       0.2260
     32  O        -20.2050    5.5380  -15.6150 O.2    12  VAL12      -0.2867
     33  CB       -18.5750    8.1570  -16.5050 C.3    12  VAL12       0.0252
     34  CG1      -17.8680    8.5010  -15.1930 C.3    12  VAL12       0.0019
     35  CG2      -18.0390    9.0340  -17.6350 C.3    12  VAL12       0.0019
     36  N         -4.9150   10.1380  -12.8920 N.3    27  HIS27      -0.1241
     37  CA        -5.6190   11.4200  -12.9300 C.3    27  HIS27       0.1621
     38  C         -6.2900   11.7390  -11.5950 C.2    27  HIS27       0.2264
     39  O         -6.6690   10.8260  -10.8570 O.2    27  HIS27      -0.2867
     40  CB        -6.6490   11.4410  -14.0690 C.3    27  HIS27       0.0745
     41  CG        -6.0410   11.3540  -15.4320 C.ar   27  HIS27       0.0817
     42  ND1       -5.6950   10.1370  -15.9900 N.ar   27  HIS27      -0.2268
     43  CD2       -5.7330   12.3400  -16.3060 C.ar   27  HIS27       0.1154
     44  CE1       -5.1910   10.4180  -17.1800 C.ar   27  HIS27       0.1986
     45  NE2       -5.1940   11.7310  -17.4150 N.ar   27  HIS27      -0.2212
     46  N        -10.9400   24.4250  -22.3910 N.3    46  ARG46      -0.1245
     47  CA       -12.1810   23.8220  -21.8920 C.3    46  ARG46       0.1563
     48  C        -13.1730   24.7870  -21.2340 C.2    46  ARG46       0.2260
     49  O        -14.3790   24.6520  -21.4490 O.2    46  ARG46      -0.2867
     50  CB       -11.8830   22.6390  -20.9570 C.3    46  ARG46       0.0307
     51  CG       -11.1930   21.4610  -21.6390 C.3    46  ARG46       0.0489
     52  CD       -11.1710   20.2190  -20.7640 C.3    46  ARG46       0.2205
     53  NE       -10.3560   20.3860  -19.5580 N.pl3  46  ARG46      -0.0865
     54  CZ        -9.0610   20.0970  -19.4770 C.cat  46  ARG46       0.5346
     55  NH1       -8.4090   19.6280  -20.5350 N.pl3  46  ARG46       0.1354
     56  NH2       -8.4060   20.2770  -18.3380 N.pl3  46  ARG46       0.1354
     57  N         -3.1560   15.3700  -14.4250 N.3    54  LYS54      -0.1245
     58  CA        -2.3620   14.1390  -14.4470 C.3    54  LYS54       0.1561
     59  C         -1.4410   13.9880  -13.2370 C.2    54  LYS54       0.2260
     60  O         -0.9240   14.9800  -12.7190 O.2    54  LYS54      -0.2867
     61  CB        -1.5460   14.0360  -15.7490 C.3    54  LYS54       0.0271
     62  CG        -2.3840   13.7500  -16.9900 C.3    54  LYS54       0.0035
     63  CD        -1.5170   13.6350  -18.2430 C.3    54  LYS54       0.0206
     64  CE        -2.3150   13.6670  -19.5290 C.3    54  LYS54       0.1093
     65  NZ        -3.1340   12.4390  -19.7250 N.3    54  LYS54      -0.1314
     66  N        -13.5360    7.5360  -10.1690 N.3    86  TYR86      -0.1241
     67  CA       -14.3050    7.2780  -11.3790 C.3    86  TYR86       0.1605
     68  C        -13.4780    6.8320  -12.5690 C.2    86  TYR86       0.2264
     69  O        -12.3550    7.2990  -12.7660 O.2    86  TYR86      -0.2867
     70  CB       -15.3320    8.3730  -11.7150 C.3    86  TYR86       0.0534
     71  CG       -14.7740    9.6850  -12.2210 C.ar   86  TYR86      -0.0201
     72  CD1      -14.4120   10.6960  -11.3370 C.ar   86  TYR86      -0.0009
     73  CD2      -14.7340    9.9680  -13.5830 C.ar   86  TYR86      -0.0009
     74  CE1      -13.9570   11.9310  -11.7950 C.ar   86  TYR86       0.0417
     75  CE2      -14.2810   11.2000  -14.0540 C.ar   86  TYR86       0.0417
     76  CZ       -13.8940   12.1800  -13.1550 C.ar   86  TYR86       0.1957
     77  OH       -13.4540   13.3990  -13.6080 O.3    86  TYR86      -0.2866
     78  N        -13.3490    6.3680  -16.7290 N.3    88  VAL88      -0.1245
     79  CA       -13.8930    6.8820  -17.9880 C.3    88  VAL88       0.1561
     80  C        -13.5570    5.8930  -19.1000 C.2    88  VAL88       0.2260
     81  O        -12.3890    5.7360  -19.4620 O.2    88  VAL88      -0.2867
     82  CB       -13.4630    8.3410  -18.3210 C.3    88  VAL88       0.0252
     83  CG1      -14.0820    8.8120  -19.6390 C.3    88  VAL88       0.0019
     84  CG2      -13.8280    9.2990  -17.1910 C.3    88  VAL88       0.0019
     85  N        -13.3230    5.3910  -22.4590 N.3    90  GLY90      -0.1210
     86  CA       -13.1380    6.1280  -23.7040 C.3    90  GLY90       0.1956
     87  C        -13.0720    5.2670  -24.9480 C.2    90  GLY90       0.2611
     88  O        -13.0720    4.0350  -24.8620 O.2    90  GLY90      -0.2717
     89  N        -13.0090    5.9260  -26.1180 N.am   91  LYS91      -0.1979
     90  CA       -12.9440    5.2760  -27.4300 C.3    91  LYS91       0.1596
     91  C        -11.5960    4.6060  -27.7140 C.2    91  LYS91       0.2287
     92  O        -11.5650    3.6000  -28.4250 O.2    91  LYS91      -0.2864
     93  CB       -13.2880    6.2710  -28.5510 C.3    91  LYS91       0.0298
     94  CG       -14.7810    6.5450  -28.6980 C.3    91  LYS91       0.0038
     95  CD       -15.0700    7.5580  -29.8060 C.3    91  LYS91       0.0206
     96  CE       -15.3860    8.9440  -29.2860 C.3    91  LYS91       0.1093
     97  NZ       -14.1750    9.6560  -28.7930 N.3    91  LYS91      -0.1314
     98  N         -8.7170    5.0520  -25.0000 N.3    93  LYS93      -0.1245
     99  CA        -8.0440    4.8950  -23.7060 C.3    93  LYS93       0.1561
    100  C         -9.0150    4.9200  -22.5280 C.2    93  LYS93       0.2260
    101  O         -9.9890    5.6750  -22.5480 O.2    93  LYS93      -0.2867
    102  CB        -6.9860    5.9980  -23.5090 C.3    93  LYS93       0.0271
    103  CG        -5.6700    5.7600  -24.2410 C.3    93  LYS93       0.0035
    104  CD        -4.7340    6.9560  -24.1050 C.3    93  LYS93       0.0206
    105  CE        -3.4530    6.7930  -24.8890 C.3    93  LYS93       0.1093
    106  NZ        -2.5040    5.8570  -24.2280 N.3    93  LYS93      -0.1314
    107  N         -9.3300    5.8090  -18.5240 N.3    95  ILE95      -0.1245
    108  CA        -8.6730    6.5780  -17.4650 C.3    95  ILE95       0.1561
    109  C         -9.3540    6.4360  -16.1090 C.2    95  ILE95       0.2260
    110  O        -10.5800    6.3350  -16.0390 O.2    95  ILE95      -0.2867
    111  CB        -8.3840    8.0590  -17.8580 C.3    95  ILE95       0.0252
    112  CG1       -9.6690    8.8610  -18.1460 C.3    95  ILE95       0.0019
    113  CG2       -7.3940    8.1540  -19.0210 C.3    95  ILE95       0.0019
    114  CD1       -9.9930    9.8870  -17.1000 C.3    95  ILE95       0.0001
    115  N         -9.7920    8.3360  -12.4970 N.3    97  LYS97      -0.1245
    116  CA        -9.7070    9.6530  -11.8700 C.3    97  LYS97       0.1561
    117  C        -10.1950    9.6400  -10.4190 C.2    97  LYS97       0.2260
    118  O        -11.3300    9.2420  -10.1460 O.2    97  LYS97      -0.2867
    119  CB       -10.4860   10.6790  -12.7110 C.3    97  LYS97       0.0271
    120  CG       -10.0190   12.1180  -12.5540 C.3    97  LYS97       0.0035
    121  CD       -10.1810   12.8740  -13.8630 C.3    97  LYS97       0.0206
    122  CE        -9.9200   14.3510  -13.7180 C.3    97  LYS97       0.1093
    123  NZ       -10.1410   15.0730  -14.9970 N.3    97  LYS97      -0.1314
    124  N        -16.5540   20.2740  -20.2470 N.3   137  PHE137     -0.1227
    125  CA       -17.3720   19.0680  -20.4320 C.3   137  PHE137      0.1736
    126  C        -17.3630   18.1450  -19.2010 C.2   137  PHE137      0.2595
    127  O        -18.3500   17.4530  -18.9520 O.2   137  PHE137     -0.2718
    128  CB       -16.9600   18.3100  -21.7100 C.3   137  PHE137      0.0547
    129  CG       -15.6750   17.5170  -21.6240 C.ar  137  PHE137     -0.0202
    130  CD1      -15.6980   16.1520  -21.3610 C.ar  137  PHE137     -0.0042
    131  CD2      -14.4460   18.1280  -21.8400 C.ar  137  PHE137     -0.0042
    132  CE1      -14.5110   15.4170  -21.2860 C.ar  137  PHE137     -0.0003
    133  CE2      -13.2590   17.3910  -21.7690 C.ar  137  PHE137     -0.0003
    134  CZ       -13.3000   16.0400  -21.4970 C.ar  137  PHE137     -0.0000
    135  N        -16.2530   18.1580  -18.4330 N.am  138  ILE138     -0.1980
    136  CA       -16.0470   17.3630  -17.2140 C.3   138  ILE138      0.1595
    137  C        -17.0270   17.7440  -16.0820 C.2   138  ILE138      0.2287
    138  O        -17.2510   16.9490  -15.1670 O.2   138  ILE138     -0.2864
    139  CB       -14.5530   17.3680  -16.7610 C.3   138  ILE138      0.0276
    140  CG1      -14.1060   18.7490  -16.2170 C.3   138  ILE138      0.0022
    141  CG2      -13.6300   16.8770  -17.8920 C.3   138  ILE138      0.0022
    142  CD1      -12.8890   18.7150  -15.2800 C.3   138  ILE138      0.0001
    143  N        -21.4240   16.2570  -17.0080 N.3   141  ASP141     -0.1239
    144  CA       -22.0050   14.9310  -16.7800 C.3   141  ASP141      0.1674
    145  C        -22.4980   14.7400  -15.3350 C.2   141  ASP141      0.2266
    146  O        -22.5760   15.7150  -14.5850 O.2   141  ASP141     -0.2867
    147  CB       -21.0630   13.8060  -17.2490 C.3   141  ASP141      0.1410
    148  CG       -19.6380   13.9200  -16.7550 C.2   141  ASP141      0.3668
    149  OD1      -18.7420   14.1860  -17.5850 O.co2 141  ASP141     -0.2456
    150  OD2      -19.4180   13.7400  -15.5440 O.co2 141  ASP141     -0.2456
    151  N        -21.0250   13.1150  -12.8170 N.3   143  VAL143     -0.1245
    152  CA       -19.9480   13.0530  -11.8090 C.3   143  VAL143      0.1561
    153  C        -20.1100   14.1660  -10.7630 C.2   143  VAL143      0.2260
    154  O        -20.1150   13.8710   -9.5680 O.2   143  VAL143     -0.2867
    155  CB       -18.5110   12.9970  -12.4150 C.3   143  VAL143      0.0252
    156  CG1      -17.4370   13.1140  -11.3350 C.3   143  VAL143      0.0019
    157  CG2      -18.2990   11.7190  -13.2180 C.3   143  VAL143      0.0019
@<TRIPOS>BOND
     1    95    96    1
     2    95    94    1
     3    96    97    1
     4    94    93    1
     5    93    90    1
     6    92    91    2
     7    91    90    1
     8    90    89    1
     9    18    16   ar
    10    18    19   ar
    11    16    14   ar
    12    12    11    2
    13    20    19    1
    14    89    87   am
    15    19    17   ar
    16    14    13    1
    17    14    15   ar
    18    13    10    1
    19    11    10    1
    20    10     9    1
    21    27    26    2
    22    98    99    1
    23    87    88    2
    24    87    86    1
    25    17    15   ar
    26   105   106    1
    27   105   104    1
    28    28    26   am
    29    26    25    1
    30   103   104    1
    31   103   102    1
    32    21    22    1
    33    99   102    1
    34    99   100    1
    35    86    85    1
    36    22    25    1
    37    22    23    1
    38   101   100    2
    39    46    47    1
    40     7     6   ar
    41     4     3    2
    42    23    24    2
    43    47    48    1
    44    47    50    1
    45   131   133   ar
    46   131   129   ar
    47   133   134   ar
    48   128   129    1
    49   128   125    1
    50    51    50    1
    51    51    52    1
    52   129   130   ar
    53   134   132   ar
    54    49    48    2
    55     3     2    1
    56   130   132   ar
    57     6     8   ar
    58     6     5    1
    59    52    53    1
    60    55    54    1
    61   125   124    1
    62   125   126    1
    63     1     2    1
    64     2     5    1
    65    65    64    1
    66    83    82    1
    67    53    54    2
    68    64    63    1
    69    54    56    1
    70    81    80    2
    71   126   127    2
    72   126   135   am
    73    80    79    1
    74   113   111    1
    75   107   108    1
    76   135   136    1
    77    82    79    1
    78    82    84    1
    79    63    62    1
    80   112   111    1
    81   112   114    1
    82    29    30    1
    83    79    78    1
    84   141   139    1
    85   111   108    1
    86    35    33    1
    87   149   148   ar
    88   108   109    1
    89    45    44   ar
    90    45    43   ar
    91   147   144    1
    92   147   148    1
    93   136   139    1
    94   136   137    1
    95    44    42   ar
    96   143   144    1
    97    62    61    1
    98    30    33    1
    99    30    31    1
   100   144   145    1
   101   139   140    1
   102   148   150   ar
   103    33    34    1
   104    43    41   ar
   105   140   142    1
   106   109   110    2
   107   137   138    2
   108    42    41   ar
   109    61    58    1
   110    31    32    2
   111    41    40    1
   112   145   146    2
   113   123   122    1
   114    58    57    1
   115    58    59    1
   116    40    37    1
   117    75    73   ar
   118    75    76   ar
   119   121   122    1
   120   121   120    1
   121    77    76    1
   122    73    71   ar
   123    59    60    2
   124   157   155    1
   125    76    74   ar
   126    37    36    1
   127    37    38    1
   128   151   152    1
   129    69    68    2
   130   119   120    1
   131   119   116    1
   132    68    67    1
   133   115   116    1
   134   155   152    1
   135   155   156    1
   136    71    70    1
   137    71    72   ar
   138   116   117    1
   139   152   153    1
   140    74    72   ar
   141    70    67    1
   142    38    39    2
   143    67    66    1
   144   153   154    2
   145   117   118    2
