@<TRIPOS>MOLECULE
tmp/4jzxA00.pdb
 168 159 0 0 0
SMALL
GASTEIGER

@<TRIPOS>ATOM
      1  N         42.6190   41.7010   34.7150 N.3    46  GLY46      -0.1210
      2  CA        43.4160   42.9010   34.4440 C.3    46  GLY46       0.1956
      3  C         42.6710   43.8300   33.5030 C.2    46  GLY46       0.2612
      4  O         41.4930   43.5990   33.2090 O.2    46  GLY46      -0.2717
      5  N         43.3460   44.8750   33.0280 N.am   47  LYS47      -0.1965
      6  CA        42.6980   45.8790   32.1620 C.3    47  LYS47       0.1728
      7  C         42.6870   45.4660   30.6850 C.2    47  LYS47       0.2616
      8  O         41.9420   46.0320   29.8730 O.2    47  LYS47      -0.2715
      9  CB        43.3660   47.2530   32.3250 C.3    47  LYS47       0.0311
     10  CG        43.4560   47.7490   33.7730 C.3    47  LYS47       0.0038
     11  CD        44.3090   49.0200   33.8750 C.3    47  LYS47       0.0206
     12  CE        45.8020   48.7100   33.9890 C.3    47  LYS47       0.1093
     13  NZ        46.1220   48.2120   35.3680 N.3    47  LYS47      -0.1314
     14  N         43.5180   44.4770   30.3550 N.am   48  TYR48      -0.1960
     15  CA        43.7300   43.9950   28.9740 C.3    48  TYR48       0.1771
     16  C         44.2870   45.0420   27.9970 C.2    48  TYR48       0.2620
     17  O         44.1200   44.8980   26.7820 O.2    48  TYR48      -0.2715
     18  CB        42.4620   43.3350   28.3900 C.3    48  TYR48       0.0574
     19  CG        41.7680   42.3760   29.3350 C.ar   48  TYR48      -0.0198
     20  CD1       40.5990   42.7490   30.0060 C.ar   48  TYR48      -0.0009
     21  CD2       42.2890   41.1040   29.5780 C.ar   48  TYR48      -0.0009
     22  CE1       39.9540   41.8560   30.8910 C.ar   48  TYR48       0.0417
     23  CE2       41.6630   40.2180   30.4490 C.ar   48  TYR48       0.0417
     24  CZ        40.4970   40.6000   31.1070 C.ar   48  TYR48       0.1957
     25  OH        39.8780   39.7160   31.9750 O.3    48  TYR48      -0.2866
     26  N         44.9450   46.0820   28.5160 N.am   49  ASN49      -0.1958
     27  CA        45.5220   47.1200   27.6520 C.3    49  ASN49       0.1819
     28  C         46.4880   46.5520   26.6060 C.2    49  ASN49       0.2621
     29  O         46.5170   47.0290   25.4700 O.2    49  ASN49      -0.2715
     30  CB        46.2400   48.2120   28.4650 C.3    49  ASN49       0.1195
     31  CG        45.2790   49.1080   29.2410 C.2    49  ASN49       0.2630
     32  OD1       44.0830   49.1940   28.9380 O.2    49  ASN49      -0.2716
     33  ND2       45.8100   49.7940   30.2420 N.am   49  ASN49      -0.0877
     34  N         47.2700   45.5380   26.9890 N.am   50  ARG50      -0.1977
     35  CA        48.2470   44.9450   26.0630 C.3    50  ARG50       0.1597
     36  C         47.5590   44.1440   24.9630 C.2    50  ARG50       0.2287
     37  O         47.8160   44.3570   23.7790 O.2    50  ARG50      -0.2864
     38  CB        49.2460   44.0460   26.8050 C.3    50  ARG50       0.0334
     39  CG        50.1580   44.7960   27.7690 C.3    50  ARG50       0.0492
     40  CD        50.8630   43.8100   28.6900 C.3    50  ARG50       0.2205
     41  NE        51.5870   44.4960   29.7640 N.pl3  50  ARG50      -0.0865
     42  CZ        51.0190   44.9590   30.8780 C.cat  50  ARG50       0.5346
     43  NH1       49.7110   44.8220   31.0780 N.pl3  50  ARG50       0.1354
     44  NH2       51.7600   45.5580   31.7990 N.pl3  50  ARG50       0.1354
     45  N         48.9900   38.7390   27.0060 N.3    87  GLU87      -0.1245
     46  CA        48.2950   38.6210   28.3010 C.3    87  GLU87       0.1567
     47  C         48.8070   37.4360   29.1280 C.2    87  GLU87       0.2260
     48  O         48.8830   37.5230   30.3530 O.2    87  GLU87      -0.2867
     49  CB        46.7760   38.5450   28.1220 C.3    87  GLU87       0.0388
     50  CG        46.1390   39.8460   27.5950 C.3    87  GLU87       0.1160
     51  CD        46.3160   41.0400   28.5320 C.2    87  GLU87       0.3649
     52  OE1       46.4250   40.8460   29.7610 O.co2  87  GLU87      -0.2457
     53  OE2       46.3200   42.1820   28.0310 O.co2  87  GLU87      -0.2457
     54  N         52.2420   38.4390   30.4140 N.3    90  GLN90      -0.1245
     55  CA        51.8980   39.2370   31.5900 C.3    90  GLN90       0.1566
     56  C         51.5610   38.3240   32.7710 C.2    90  GLN90       0.2260
     57  O         52.1050   38.5080   33.8620 O.2    90  GLN90      -0.2867
     58  CB        50.7210   40.1800   31.2640 C.3    90  GLN90       0.0367
     59  CG        50.0240   40.8170   32.4850 C.3    90  GLN90       0.0905
     60  CD        50.8000   41.9730   33.1010 C.2    90  GLN90       0.2608
     61  OE1       50.2050   42.9520   33.5880 O.2    90  GLN90      -0.2717
     62  NE2       52.1180   41.8720   33.0970 N.am   90  GLN90      -0.0878
     63  N         53.5680   38.2350   36.3260 N.3    94  LEU94      -0.1245
     64  CA        52.9500   38.6080   37.6010 C.3    94  LEU94       0.1561
     65  C         52.9650   37.4740   38.6210 C.2    94  LEU94       0.2260
     66  O         53.1920   37.7200   39.8070 O.2    94  LEU94      -0.2867
     67  CB        51.5380   39.1720   37.4130 C.3    94  LEU94       0.0270
     68  CG        51.3620   40.3810   36.4820 C.3    94  LEU94       0.0019
     69  CD1       49.9220   40.9060   36.5630 C.3    94  LEU94       0.0001
     70  CD2       52.3720   41.4840   36.7660 C.3    94  LEU94       0.0001
     71  N         46.5870   40.5520   44.1010 N.3   106  ARG106     -0.1231
     72  CA        46.7240   40.8430   42.6790 C.3   106  ARG106      0.1694
     73  C         45.3390   40.9000   42.0630 C.2   106  ARG106      0.2591
     74  O         44.5690   39.9590   42.2130 O.2   106  ARG106     -0.2718
     75  CB        47.5370   39.7400   41.9850 C.3   106  ARG106      0.0321
     76  CG        47.6150   39.8870   40.4540 C.3   106  ARG106      0.0489
     77  CD        48.3790   41.1530   40.0480 C.3   106  ARG106      0.2205
     78  NE        49.8080   41.0910   40.3720 N.pl3 106  ARG106     -0.0865
     79  CZ        50.6710   42.0740   40.1250 C.cat 106  ARG106      0.5346
     80  NH1       50.2550   43.1890   39.5390 N.pl3 106  ARG106      0.1354
     81  NH2       51.9560   41.9400   40.4470 N.pl3 106  ARG106      0.1354
     82  N         45.0360   42.0080   41.3750 N.am  107  ARG107     -0.1980
     83  CA        43.7470   42.2060   40.6870 C.3   107  ARG107      0.1597
     84  C         42.5620   41.9360   41.6270 C.2   107  ARG107      0.2287
     85  O         41.5610   41.3290   41.2380 O.2   107  ARG107     -0.2864
     86  CB        43.6590   41.3650   39.4030 C.3   107  ARG107      0.0334
     87  CG        44.7020   41.7330   38.3390 C.3   107  ARG107      0.0492
     88  CD        44.7690   40.6700   37.2520 C.3   107  ARG107      0.2205
     89  NE        45.7020   41.0190   36.1780 N.pl3 107  ARG107     -0.0865
     90  CZ        46.1470   40.1670   35.2560 C.cat 107  ARG107      0.5346
     91  NH1       45.7520   38.9010   35.2650 N.pl3 107  ARG107      0.1354
     92  NH2       46.9900   40.5870   34.3160 N.pl3 107  ARG107      0.1354
     93  N         59.3660   47.0180   31.8040 N.3   207  THR207     -0.1218
     94  CA        57.9660   47.3710   31.5120 C.3   207  THR207      0.1862
     95  C         57.6790   47.8330   30.0790 C.2   207  THR207      0.2287
     96  O         56.7530   47.3230   29.4440 O.2   207  THR207     -0.2866
     97  CB        57.4350   48.4240   32.5270 C.3   207  THR207      0.1770
     98  OG1       57.3380   47.8190   33.8160 O.3   207  THR207     -0.2211
     99  CG2       56.0380   48.9770   32.1130 C.3   207  THR207      0.0375
    100  N         57.5170   45.1140   26.9370 N.3   210  TYR210     -0.1241
    101  CA        56.4000   44.1700   26.8480 C.3   210  TYR210      0.1605
    102  C         55.0300   44.8310   26.9370 C.2   210  TYR210      0.2264
    103  O         54.0310   44.2610   26.4800 O.2   210  TYR210     -0.2867
    104  CB        56.5430   43.0150   27.8460 C.3   210  TYR210      0.0534
    105  CG        55.9040   43.1910   29.2070 C.ar  210  TYR210     -0.0201
    106  CD1       54.6560   42.6140   29.4950 C.ar  210  TYR210     -0.0009
    107  CD2       56.5710   43.8700   30.2280 C.ar  210  TYR210     -0.0009
    108  CE1       54.0800   42.7370   30.7630 C.ar  210  TYR210      0.0417
    109  CE2       55.9990   44.0020   31.5050 C.ar  210  TYR210      0.0417
    110  CZ        54.7640   43.4370   31.7640 C.ar  210  TYR210      0.1957
    111  OH        54.2290   43.5710   33.0210 O.3   210  TYR210     -0.2866
    112  N         54.1870   55.0480   31.9270 N.3   245  PHE245     -0.1227
    113  CA        53.3050   54.0240   32.5050 C.3   245  PHE245      0.1736
    114  C         53.8650   53.4680   33.8200 C.2   245  PHE245      0.2595
    115  O         53.1430   53.3580   34.8090 O.2   245  PHE245     -0.2718
    116  CB        53.0370   52.9050   31.4930 C.3   245  PHE245      0.0547
    117  CG        52.1690   51.7790   32.0290 C.ar  245  PHE245     -0.0202
    118  CD1       52.7480   50.6760   32.6670 C.ar  245  PHE245     -0.0042
    119  CD2       50.7820   51.8260   31.8890 C.ar  245  PHE245     -0.0042
    120  CE1       51.9490   49.6250   33.1570 C.ar  245  PHE245     -0.0003
    121  CE2       49.9730   50.7780   32.3530 C.ar  245  PHE245     -0.0003
    122  CZ        50.5600   49.6820   33.0080 C.ar  245  PHE245     -0.0000
    123  N         55.1520   53.1250   33.8400 N.am  246  GLN246     -0.1979
    124  CA        55.7670   52.6030   35.0690 C.3   246  GLN246      0.1601
    125  C         55.9260   53.6610   36.1580 C.2   246  GLN246      0.2287
    126  O         55.8050   53.3620   37.3510 O.2   246  GLN246     -0.2864
    127  CB        57.1160   51.9440   34.7850 C.3   246  GLN246      0.0394
    128  CG        57.6370   51.1400   35.9700 C.3   246  GLN246      0.0908
    129  CD        56.6360   50.1110   36.4690 C.2   246  GLN246      0.2608
    130  OE1       56.1320   49.2980   35.6990 O.2   246  GLN246     -0.2717
    131  NE2       56.3520   50.1420   37.7670 N.am  246  GLN246     -0.0878
    132  N         52.6490   53.7820   37.7880 N.3   249  ASP249     -0.1239
    133  CA        52.5750   52.6150   38.6590 C.3   249  ASP249      0.1674
    134  C         53.3340   52.8510   39.9710 C.2   249  ASP249      0.2266
    135  O         52.8170   52.5420   41.0470 O.2   249  ASP249     -0.2867
    136  CB        53.0930   51.3720   37.9280 C.3   249  ASP249      0.1410
    137  CG        52.8690   50.1090   38.7190 C.2   249  ASP249      0.3668
    138  OD1       51.7110   49.6530   38.7920 O.co2 249  ASP249     -0.2456
    139  OD2       53.8500   49.5840   39.2810 O.co2 249  ASP249     -0.2456
    140  N         45.9280   45.8470   44.2300 N.3   263  LYS263     -0.1245
    141  CA        47.1510   45.2270   44.7370 C.3   263  LYS263      0.1561
    142  C         47.7200   46.0650   45.8790 C.2   263  LYS263      0.2260
    143  O         47.4140   47.2540   45.9930 O.2   263  LYS263     -0.2867
    144  CB        48.1950   45.0610   43.6160 C.3   263  LYS263      0.0271
    145  CG        48.7070   46.3730   43.0240 C.3   263  LYS263      0.0035
    146  CD        49.4160   46.1630   41.6900 C.3   263  LYS263      0.0206
    147  CE        49.9060   47.5000   41.1270 C.3   263  LYS263      0.1093
    148  NZ        50.4720   47.3510   39.7480 N.3   263  LYS263     -0.1314
    149  N         45.4880   57.6800   33.7090 N.3   359  ARG359     -0.1245
    150  CA        44.7780   56.4980   34.2160 C.3   359  ARG359      0.1563
    151  C         44.7780   56.5270   35.7480 C.2   359  ARG359      0.2260
    152  O         45.6310   57.1720   36.3630 O.2   359  ARG359     -0.2867
    153  CB        45.3900   55.1860   33.6900 C.3   359  ARG359      0.0307
    154  CG        46.7350   54.8200   34.3180 C.3   359  ARG359      0.0489
    155  CD        47.4460   53.7250   33.5390 C.3   359  ARG359      0.2205
    156  NE        48.7900   53.4690   34.0650 N.pl3 359  ARG359     -0.0865
    157  CZ        49.1120   52.4980   34.9190 C.cat 359  ARG359      0.5346
    158  NH1       48.1920   51.6410   35.3760 N.pl3 359  ARG359      0.1354
    159  NH2       50.3780   52.3620   35.3010 N.pl3 359  ARG359      0.1354
    160  N         44.1520   53.4970   37.6380 N.3   361  LYS361     -0.1245
    161  CA        44.5280   52.1610   38.0950 C.3   361  LYS361      0.1561
    162  C         45.2260   51.3900   36.9730 C.2   361  LYS361      0.2260
    163  O         45.6870   50.2730   37.1940 O.2   361  LYS361     -0.2867
    164  CB        43.3100   51.3820   38.6000 C.3   361  LYS361      0.0271
    165  CG        42.3030   51.0040   37.5210 C.3   361  LYS361      0.0035
    166  CD        41.3140   49.9480   38.0160 C.3   361  LYS361      0.0206
    167  CE        41.8490   48.5310   37.8120 C.3   361  LYS361      0.1093
    168  NZ        40.8480   47.5000   38.2520 N.3   361  LYS361     -0.1314
@<TRIPOS>BOND
     1    37    36    2
     2    36    35    1
     3    29    28    2
     4    35    38    1
     5    35    34    1
     6   103   102    2
     7    28    34   am
     8    28    27    1
     9    17    16    2
    10    38    39    1
    11   101   100    1
    12   101   102    1
    13   101   104    1
    14    45    46    1
    15    50    49    1
    16    50    51    1
    17    27    30    1
    18    27    26    1
    19    39    40    1
    20   104   105    1
    21    16    26   am
    22    16    15    1
    23    53    51   ar
    24    49    46    1
    25    46    47    1
    26    18    15    1
    27    18    19    1
    28    30    31    1
    29    51    52   ar
    30    40    41    1
    31    32    31    2
    32    15    14    1
    33    47    48    2
    34   105   106   ar
    35   105   107   ar
    36    31    33   am
    37    19    21   ar
    38    19    20   ar
    39    96    95    2
    40   106   108   ar
    41    21    23   ar
    42    41    42    2
    43     8     7    2
    44    20    22   ar
    45    95    94    1
    46   107   109   ar
    47    14     7   am
    48    54    55    1
    49    23    24   ar
    50     7     6    1
    51   108   110   ar
    52    42    43    1
    53    42    44    1
    54    22    24   ar
    55    24    25    1
    56    58    55    1
    57    58    59    1
    58   116   117    1
    59   116   113    1
    60   109   110   ar
    61    94    93    1
    62    94    97    1
    63    55    56    1
    64   110   111    1
    65   119   117   ar
    66   119   121   ar
    67   112   113    1
    68   117   118   ar
    69    99    97    1
    70     6     9    1
    71     6     5    1
    72     9    10    1
    73   121   122   ar
    74    59    60    1
    75   113   114    1
    76    97    98    1
    77   118   120   ar
    78    56    57    2
    79   122   120   ar
    80     5     3   am
    81    62    60   am
    82    60    61    2
    83     4     3    2
    84     3     2    1
    85   155   156    1
    86   155   154    1
    87   153   150    1
    88   153   154    1
    89   149   150    1
    90    10    11    1
    91   114   123   am
    92   114   115    2
    93   123   124    1
    94    11    12    1
    95    12    13    1
    96   156   157    2
    97   150   151    1
    98    92    90    1
    99     2     1    1
   100   127   124    1
   101   127   128    1
   102   157   159    1
   103   157   158    1
   104   124   125    1
   105    90    91    1
   106    90    89    2
   107   130   129    2
   108   151   152    2
   109   128   129    1
   110   125   126    2
   111    89    88    1
   112    63    64    1
   113   129   131   am
   114    68    69    1
   115    68    70    1
   116    68    67    1
   117   162   163    2
   118   162   161    1
   119    88    87    1
   120    67    64    1
   121   165   166    1
   122   165   164    1
   123    64    65    1
   124   160   161    1
   125   132   133    1
   126   167   166    1
   127   167   168    1
   128   136   133    1
   129   136   137    1
   130   161   164    1
   131    87    86    1
   132    65    66    2
   133   133   134    1
   134   137   138   ar
   135   137   139   ar
   136    86    83    1
   137    80    79    1
   138   148   147    1
   139   134   135    2
   140    77    78    1
   141    77    76    1
   142    79    78    2
   143    79    81    1
   144    76    75    1
   145    83    82    1
   146    83    84    1
   147   147   146    1
   148    85    84    2
   149    82    73   am
   150   146   145    1
   151    75    72    1
   152    73    74    2
   153    73    72    1
   154    72    71    1
   155   145   144    1
   156   144   141    1
   157   140   141    1
   158   141   142    1
   159   142   143    2
