@<TRIPOS>MOLECULE
tmp/4jzxA01.pdb
 197 185 0 0 0
SMALL
GASTEIGER

@<TRIPOS>ATOM
      1  N         52.3160   35.1560   33.3460 N.3    92  HIS92      -0.1226
      2  CA        53.6080   34.5990   33.7440 C.3    92  HIS92       0.1752
      3  C         54.4370   35.5640   34.6050 C.2    92  HIS92       0.2596
      4  O         54.8560   35.1940   35.7050 O.2    92  HIS92      -0.2718
      5  CB        54.3730   34.1170   32.5030 C.3    92  HIS92       0.0759
      6  CG        55.8530   34.0170   32.6870 C.ar   92  HIS92       0.0818
      7  ND1       56.4500   33.0110   33.4160 N.ar   92  HIS92      -0.2268
      8  CD2       56.8630   34.7770   32.1950 C.ar   92  HIS92       0.1154
      9  CE1       57.7640   33.1650   33.3800 C.ar   92  HIS92       0.1986
     10  NE2       58.0390   34.2330   32.6510 N.ar   92  HIS92      -0.2212
     11  N         54.6530   36.7920   34.1170 N.am   93  PHE93      -0.1962
     12  CA        55.4520   37.7830   34.8470 C.3    93  PHE93       0.1771
     13  C         54.8870   38.0660   36.2340 C.2    93  PHE93       0.2619
     14  O         55.6420   38.1230   37.2030 O.2    93  PHE93      -0.2715
     15  CB        55.5820   39.1000   34.0700 C.3    93  PHE93       0.0574
     16  CG        56.4320   39.0080   32.8180 C.ar   93  PHE93      -0.0200
     17  CD1       56.1550   39.8280   31.7200 C.ar   93  PHE93      -0.0042
     18  CD2       57.5060   38.1320   32.7420 C.ar   93  PHE93      -0.0042
     19  CE1       56.9320   39.7600   30.5590 C.ar   93  PHE93      -0.0003
     20  CE2       58.2940   38.0560   31.5800 C.ar   93  PHE93      -0.0003
     21  CZ        58.0050   38.8740   30.4950 C.ar   93  PHE93      -0.0000
     22  N         53.5680   38.2350   36.3260 N.am   94  LEU94      -0.1977
     23  CA        52.9500   38.6080   37.6010 C.3    94  LEU94       0.1596
     24  C         52.9650   37.4740   38.6210 C.2    94  LEU94       0.2287
     25  O         53.1920   37.7200   39.8070 O.2    94  LEU94      -0.2864
     26  CB        51.5380   39.1720   37.4130 C.3    94  LEU94       0.0297
     27  CG        51.3620   40.3810   36.4820 C.3    94  LEU94       0.0022
     28  CD1       49.9220   40.9060   36.5630 C.3    94  LEU94       0.0001
     29  CD2       52.3720   41.4840   36.7660 C.3    94  LEU94       0.0001
     30  N         55.2660   35.1280   38.8480 N.3    96  GLU96      -0.1231
     31  CA        56.6520   35.0290   39.3070 C.3    96  GLU96       0.1699
     32  C         57.0450   36.2220   40.1660 C.2    96  GLU96       0.2592
     33  O         57.7170   36.0610   41.1950 O.2    96  GLU96      -0.2718
     34  CB        57.6240   34.8690   38.1190 C.3    96  GLU96       0.0402
     35  CG        57.3600   33.6520   37.1780 C.3    96  GLU96       0.1161
     36  CD        57.4290   32.2690   37.8450 C.2    96  GLU96       0.3649
     37  OE1       57.7200   32.1520   39.0600 O.co2  96  GLU96      -0.2457
     38  OE2       57.1920   31.2710   37.1190 O.co2  96  GLU96      -0.2457
     39  N         56.6310   37.4180   39.7430 N.am   97  ASP97      -0.1960
     40  CA        56.9470   38.6340   40.4920 C.3    97  ASP97       0.1840
     41  C         56.2590   38.6770   41.8630 C.2    97  ASP97       0.2622
     42  O         56.8470   39.1420   42.8420 O.2    97  ASP97      -0.2715
     43  CB        56.5900   39.8840   39.6920 C.3    97  ASP97       0.1450
     44  CG        56.9800   41.1520   40.4190 C.2    97  ASP97       0.3671
     45  OD1       58.1920   41.3660   40.6300 O.co2  97  ASP97      -0.2456
     46  OD2       56.0710   41.9010   40.8220 O.co2  97  ASP97      -0.2456
     47  N         55.0160   38.2000   41.9290 N.am   98  ASP98      -0.1971
     48  CA        54.2860   38.1780   43.1990 C.3    98  ASP98       0.1709
     49  C         54.9930   37.2630   44.2110 C.2    98  ASP98       0.2293
     50  O         54.9980   37.5370   45.4100 O.2    98  ASP98      -0.2864
     51  CB        52.8070   37.8000   42.9920 C.3    98  ASP98       0.1436
     52  CG        51.9610   38.9760   42.4590 C.2    98  ASP98       0.3671
     53  OD1       52.4050   40.1480   42.5720 O.co2  98  ASP98      -0.2456
     54  OD2       50.8430   38.7260   41.9490 O.co2  98  ASP98      -0.2456
     55  N         58.4070   36.6780   43.9850 N.3   100  MET100     -0.1230
     56  CA        59.6510   37.4150   44.2280 C.3   100  MET100      0.1702
     57  C         59.4790   38.5780   45.2110 C.2   100  MET100      0.2592
     58  O         60.3490   38.8120   46.0680 O.2   100  MET100     -0.2718
     59  CB        60.2570   37.8990   42.9060 C.3   100  MET100      0.0401
     60  CG        60.9000   36.7690   42.1070 C.3   100  MET100      0.0596
     61  SD        61.6690   37.3560   40.5880 S.3   100  MET100     -0.1393
     62  CE        60.4280   36.9480   39.3640 C.3   100  MET100      0.0692
     63  N         58.3570   39.2920   45.0940 N.am  101  ASP101     -0.1974
     64  CA        58.0670   40.4280   45.9670 C.3   101  ASP101      0.1709
     65  C         57.3870   40.0380   47.2790 C.2   101  ASP101      0.2293
     66  O         57.2090   40.8910   48.1540 O.2   101  ASP101     -0.2864
     67  CB        57.1960   41.4590   45.2490 C.3   101  ASP101      0.1436
     68  CG        57.9490   42.2280   44.1820 C.2   101  ASP101      0.3671
     69  OD1       59.1870   42.1060   44.0790 O.co2 101  ASP101     -0.2456
     70  OD2       57.2920   42.9700   43.4330 O.co2 101  ASP101     -0.2456
     71  N         54.2270   39.2720   47.7010 N.3   103  SER103     -0.1217
     72  CA        53.0620   40.1560   47.7240 C.3   103  SER103      0.1889
     73  C         51.7960   39.4330   48.1840 C.2   103  SER103      0.2288
     74  O         51.7580   38.1990   48.2460 O.2   103  SER103     -0.2866
     75  CB        52.8420   40.7840   46.3400 C.3   103  SER103      0.2089
     76  OG        53.8990   41.6720   46.0190 O.3   103  SER103     -0.2183
     77  N         46.5870   40.5520   44.1010 N.3   106  ARG106     -0.1245
     78  CA        46.7240   40.8430   42.6790 C.3   106  ARG106      0.1563
     79  C         45.3390   40.9000   42.0630 C.2   106  ARG106      0.2260
     80  O         44.5690   39.9590   42.2130 O.2   106  ARG106     -0.2867
     81  CB        47.5370   39.7400   41.9850 C.3   106  ARG106      0.0307
     82  CG        47.6150   39.8870   40.4540 C.3   106  ARG106      0.0489
     83  CD        48.3790   41.1530   40.0480 C.3   106  ARG106      0.2205
     84  NE        49.8080   41.0910   40.3720 N.pl3 106  ARG106     -0.0865
     85  CZ        50.6710   42.0740   40.1250 C.cat 106  ARG106      0.5346
     86  NH1       50.2550   43.1890   39.5390 N.pl3 106  ARG106      0.1354
     87  NH2       51.9560   41.9400   40.4470 N.pl3 106  ARG106      0.1354
     88  N         62.5760   41.7950   29.3540 N.3   162  THR162     -0.1203
     89  CA        61.8790   41.9410   30.6280 C.3   162  THR162      0.1994
     90  C         62.6480   41.2680   31.7800 C.2   162  THR162      0.2618
     91  O         62.7390   41.8310   32.8840 O.2   162  THR162     -0.2717
     92  CB        60.4350   41.3950   30.5270 C.3   162  THR162      0.1784
     93  OG1       59.8040   41.9410   29.3620 O.3   162  THR162     -0.2211
     94  CG2       59.6260   41.7900   31.7490 C.3   162  THR162      0.0376
     95  N         63.2030   40.0790   31.5310 N.am  163  THR163     -0.1952
     96  CA        63.9770   39.3790   32.5740 C.3   163  THR163      0.1897
     97  C         65.2380   40.1630   32.9680 C.2   163  THR163      0.2313
     98  O         65.6270   40.1590   34.1340 O.2   163  THR163     -0.2863
     99  CB        64.3410   37.8940   32.2330 C.3   163  THR163      0.1794
    100  OG1       65.3080   37.8350   31.1730 O.3   163  THR163     -0.2208
    101  CG2       63.1040   37.0720   31.8790 C.3   163  THR163      0.0378
    102  N         63.9980   42.9630   35.0570 N.3   166  GLN166     -0.1245
    103  CA        63.7550   42.3990   36.3870 C.3   166  GLN166      0.1566
    104  C         65.0530   42.2250   37.1850 C.2   166  GLN166      0.2260
    105  O         65.0850   42.5050   38.3870 O.2   166  GLN166     -0.2867
    106  CB        63.0120   41.0660   36.2980 C.3   166  GLN166      0.0367
    107  CG        62.6180   40.4930   37.6530 C.3   166  GLN166      0.0905
    108  CD        61.3870   41.1630   38.2710 C.2   166  GLN166      0.2608
    109  OE1       60.9310   42.2120   37.8130 O.2   166  GLN166     -0.2717
    110  NE2       60.8480   40.5480   39.3280 N.am  166  GLN166     -0.0878
    111  N         65.8660   45.4940   38.5510 N.3   169  ASP169     -0.1239
    112  CA        64.9310   45.8070   39.6250 C.3   169  ASP169      0.1674
    113  C         65.3000   45.1120   40.9430 C.2   169  ASP169      0.2266
    114  O         65.3810   45.7630   41.9940 O.2   169  ASP169     -0.2867
    115  CB        63.5010   45.4420   39.2040 C.3   169  ASP169      0.1410
    116  CG        62.4830   45.7450   40.2890 C.2   169  ASP169      0.3668
    117  OD1       61.7070   46.6970   40.1160 O.co2 169  ASP169     -0.2456
    118  OD2       62.4790   45.0330   41.3140 O.co2 169  ASP169     -0.2456
    119  N         62.0850   46.5310   32.1540 N.3   206  LYS206     -0.1231
    120  CA        61.1250   45.6580   32.8510 C.3   206  LYS206      0.1693
    121  C         59.6700   45.8620   32.3950 C.2   206  LYS206      0.2592
    122  O         58.8390   44.9660   32.5700 O.2   206  LYS206     -0.2718
    123  CB        61.2450   45.7560   34.3910 C.3   206  LYS206      0.0285
    124  CG        60.3940   46.8560   35.0460 C.3   206  LYS206      0.0035
    125  CD        60.2540   46.6470   36.5610 C.3   206  LYS206      0.0206
    126  CE        59.5500   47.8450   37.1900 C.3   206  LYS206      0.1093
    127  NZ        59.4730   47.7620   38.6850 N.3   206  LYS206     -0.1314
    128  N         59.3660   47.0180   31.8040 N.am  207  THR207     -0.1953
    129  CA        57.9660   47.3710   31.5120 C.3   207  THR207      0.1897
    130  C         57.6790   47.8330   30.0790 C.2   207  THR207      0.2313
    131  O         56.7530   47.3230   29.4440 O.2   207  THR207     -0.2863
    132  CB        57.4350   48.4240   32.5270 C.3   207  THR207      0.1794
    133  OG1       57.3380   47.8190   33.8160 O.3   207  THR207     -0.2208
    134  CG2       56.0380   48.9770   32.1130 C.3   207  THR207      0.0378
    135  N         57.5170   45.1140   26.9370 N.3   210  TYR210     -0.1241
    136  CA        56.4000   44.1700   26.8480 C.3   210  TYR210      0.1605
    137  C         55.0300   44.8310   26.9370 C.2   210  TYR210      0.2264
    138  O         54.0310   44.2610   26.4800 O.2   210  TYR210     -0.2867
    139  CB        56.5430   43.0150   27.8460 C.3   210  TYR210      0.0534
    140  CG        55.9040   43.1910   29.2070 C.ar  210  TYR210     -0.0201
    141  CD1       54.6560   42.6140   29.4950 C.ar  210  TYR210     -0.0009
    142  CD2       56.5710   43.8700   30.2280 C.ar  210  TYR210     -0.0009
    143  CE1       54.0800   42.7370   30.7630 C.ar  210  TYR210      0.0417
    144  CE2       55.9990   44.0020   31.5050 C.ar  210  TYR210      0.0417
    145  CZ        54.7640   43.4370   31.7640 C.ar  210  TYR210      0.1957
    146  OH        54.2290   43.5710   33.0210 O.3   210  TYR210     -0.2866
    147  N         55.1520   53.1250   33.8400 N.3   246  GLN246     -0.1245
    148  CA        55.7670   52.6030   35.0690 C.3   246  GLN246      0.1566
    149  C         55.9260   53.6610   36.1580 C.2   246  GLN246      0.2260
    150  O         55.8050   53.3620   37.3510 O.2   246  GLN246     -0.2867
    151  CB        57.1160   51.9440   34.7850 C.3   246  GLN246      0.0367
    152  CG        57.6370   51.1400   35.9700 C.3   246  GLN246      0.0905
    153  CD        56.6360   50.1110   36.4690 C.2   246  GLN246      0.2608
    154  OE1       56.1320   49.2980   35.6990 O.2   246  GLN246     -0.2717
    155  NE2       56.3520   50.1420   37.7670 N.am  246  GLN246     -0.0878
    156  N         52.6490   53.7820   37.7880 N.3   249  ASP249     -0.1225
    157  CA        52.5750   52.6150   38.6590 C.3   249  ASP249      0.1805
    158  C         53.3340   52.8510   39.9710 C.2   249  ASP249      0.2597
    159  O         52.8170   52.5420   41.0470 O.2   249  ASP249     -0.2718
    160  CB        53.0930   51.3720   37.9280 C.3   249  ASP249      0.1424
    161  CG        52.8690   50.1090   38.7190 C.2   249  ASP249      0.3668
    162  OD1       51.7110   49.6530   38.7920 O.co2 249  ASP249     -0.2456
    163  OD2       53.8500   49.5840   39.2810 O.co2 249  ASP249     -0.2456
    164  N         54.5350   53.4240   39.8670 N.am  250  ASP250     -0.1974
    165  CA        55.3450   53.8180   41.0280 C.3   250  ASP250      0.1709
    166  C         54.6040   54.8360   41.9150 C.2   250  ASP250      0.2293
    167  O         54.5860   54.6990   43.1340 O.2   250  ASP250     -0.2864
    168  CB        56.6880   54.4350   40.5860 C.3   250  ASP250      0.1436
    169  CG        57.6940   53.4110   40.0350 C.2   250  ASP250      0.3671
    170  OD1       57.4060   52.1960   39.9570 O.co2 250  ASP250     -0.2456
    171  OD2       58.8040   53.8510   39.6660 O.co2 250  ASP250     -0.2456
    172  N         45.9280   45.8470   44.2300 N.3   263  LYS263     -0.1245
    173  CA        47.1510   45.2270   44.7370 C.3   263  LYS263      0.1561
    174  C         47.7200   46.0650   45.8790 C.2   263  LYS263      0.2260
    175  O         47.4140   47.2540   45.9930 O.2   263  LYS263     -0.2867
    176  CB        48.1950   45.0610   43.6160 C.3   263  LYS263      0.0271
    177  CG        48.7070   46.3730   43.0240 C.3   263  LYS263      0.0035
    178  CD        49.4160   46.1630   41.6900 C.3   263  LYS263      0.0206
    179  CE        49.9060   47.5000   41.1270 C.3   263  LYS263      0.1093
    180  NZ        50.4720   47.3510   39.7480 N.3   263  LYS263     -0.1314
    181  N         56.7770   49.0370   47.8690 N.3   267  ASP267     -0.1239
    182  CA        57.9890   49.6900   47.3680 C.3   267  ASP267      0.1674
    183  C         58.8080   50.3290   48.4930 C.2   267  ASP267      0.2266
    184  O         60.0390   50.2180   48.5290 O.2   267  ASP267     -0.2867
    185  CB        57.6490   50.7420   46.3130 C.3   267  ASP267      0.1410
    186  CG        57.2930   50.1370   44.9600 C.2   267  ASP267      0.3668
    187  OD1       57.3330   48.8890   44.8000 O.co2 267  ASP267     -0.2456
    188  OD2       56.9700   50.9270   44.0490 O.co2 267  ASP267     -0.2456
    189  N         62.6930   50.0400   47.3090 N.3   272  LYS272     -0.1245
    190  CA        62.7240   49.9930   45.8470 C.3   272  LYS272      0.1561
    191  C         63.1740   51.3150   45.2440 C.2   272  LYS272      0.2260
    192  O         62.8460   52.3870   45.7560 O.2   272  LYS272     -0.2867
    193  CB        61.3530   49.5980   45.2810 C.3   272  LYS272      0.0271
    194  CG        60.8750   48.2010   45.6840 C.3   272  LYS272      0.0035
    195  CD        61.1600   47.1540   44.6100 C.3   272  LYS272      0.0206
    196  CE        62.4980   46.4920   44.8020 C.3   272  LYS272      0.1093
    197  NZ        62.6380   45.2800   43.9540 N.3   272  LYS272     -0.1314
@<TRIPOS>BOND
     1   138   137    2
     2   136   135    1
     3   136   137    1
     4   136   139    1
     5   139   140    1
     6   140   141   ar
     7   140   142   ar
     8    88    89    1
     9    93    92    1
    10   131   130    2
    11   141   143   ar
    12   130   129    1
    13   142   144   ar
    14    21    19   ar
    15    21    20   ar
    16    92    89    1
    17    92    94    1
    18    19    17   ar
    19    89    90    1
    20   143   145   ar
    21   100    99    1
    22   144   145   ar
    23   129   128    1
    24   129   132    1
    25    95    90   am
    26    95    96    1
    27    20    18   ar
    28    17    16   ar
    29   145   146    1
    30    90    91    2
    31   128   121   am
    32   101    99    1
    33   134   132    1
    34   119   120    1
    35     8    10   ar
    36     8     6   ar
    37    99    96    1
    38   121   122    2
    39   121   120    1
    40     5     6    1
    41     5     2    1
    42   132   133    1
    43    96    97    1
    44    10     9   ar
    45     6     7   ar
    46    18    16   ar
    47    16    15    1
    48   120   123    1
    49    97    98    2
    50     1     2    1
    51     9     7   ar
    52     2     3    1
    53   147   148    1
    54    15    12    1
    55    11     3   am
    56    11    12    1
    57   123   124    1
    58     3     4    2
    59   151   148    1
    60   151   152    1
    61    12    13    1
    62   124   125    1
    63   102   103    1
    64   148   149    1
    65   154   153    2
    66   152   153    1
    67   149   150    2
    68    13    22   am
    69    13    14    2
    70   106   103    1
    71   106   107    1
    72    22    23    1
    73   103   104    1
    74   153   155   am
    75    27    28    1
    76    27    29    1
    77    27    26    1
    78   125   126    1
    79    38    36   ar
    80    35    36    1
    81    35    34    1
    82   104   105    2
    83   126   127    1
    84    26    23    1
    85    23    24    1
    86   107   108    1
    87   156   157    1
    88   109   108    2
    89    36    37   ar
    90   160   157    1
    91   160   161    1
    92    34    31    1
    93   108   110   am
    94   111   112    1
    95    24    25    2
    96   157   158    1
    97   161   162   ar
    98   161   163   ar
    99    30    31    1
   100   115   112    1
   101   115   116    1
   102    31    32    1
   103    62    61    1
   104    86    85    1
   105   112   113    1
   106   171   169   ar
   107    43    44    1
   108    43    40    1
   109    39    32   am
   110    39    40    1
   111   180   179    1
   112   164   158   am
   113   164   165    1
   114   170   169   ar
   115   158   159    2
   116   169   168    1
   117    83    84    1
   118    83    82    1
   119   117   116   ar
   120    85    84    2
   121    85    87    1
   122    32    33    2
   123   116   118   ar
   124    44    45   ar
   125    44    46   ar
   126    82    81    1
   127    40    41    1
   128   168   165    1
   129    61    60    1
   130   113   114    2
   131   165   166    1
   132   179   178    1
   133   178   177    1
   134    41    47   am
   135    41    42    2
   136   166   167    2
   137    47    48    1
   138    54    52   ar
   139    81    78    1
   140    79    80    2
   141    79    78    1
   142    60    59    1
   143    52    53   ar
   144    52    51    1
   145    78    77    1
   146    59    56    1
   147    51    48    1
   148   177   176    1
   149    48    49    1
   150    70    68   ar
   151   176   173    1
   152   197   196    1
   153    55    56    1
   154   188   186   ar
   155    69    68   ar
   156    68    67    1
   157    49    50    2
   158    56    57    1
   159   172   173    1
   160   195   196    1
   161   195   194    1
   162   173   174    1
   163   187   186   ar
   164   186   185    1
   165    63    57   am
   166    63    64    1
   167    57    58    2
   168   191   192    2
   169   191   190    1
   170    67    64    1
   171   193   194    1
   172   193   190    1
   173   190   189    1
   174   174   175    2
   175    64    65    1
   176    76    75    1
   177   185   182    1
   178    75    72    1
   179    65    66    2
   180   182   181    1
   181   182   183    1
   182    71    72    1
   183    72    73    1
   184    73    74    2
   185   183   184    2
