@<TRIPOS>MOLECULE
tmp/4k06B01.pdb
 156 151 0 0 0
SMALL
GASTEIGER

@<TRIPOS>ATOM
      1  N         18.3750   10.9210  -21.6940 N.3     2  LEU2       -0.1231
      2  CA        17.0720   10.4560  -22.1580 C.3     2  LEU2        0.1693
      3  C         16.0750   11.6080  -22.2620 C.2     2  LEU2        0.2592
      4  O         15.1180   11.5410  -23.0370 O.2     2  LEU2       -0.2718
      5  CB        16.5240    9.3660  -21.2360 C.3     2  LEU2        0.0284
      6  CG        16.8650    7.9250  -21.5970 C.3     2  LEU2        0.0019
      7  CD1       16.4530    6.9800  -20.4820 C.3     2  LEU2        0.0001
      8  CD2       16.1860    7.5470  -22.9000 C.3     2  LEU2        0.0001
      9  N         16.3010   12.6600  -21.4790 N.am    3  PHE3       -0.1976
     10  CA        15.4410   13.8340  -21.5310 C.3     3  PHE3        0.1639
     11  C         15.5780   14.5270  -22.8800 C.2     3  PHE3        0.2290
     12  O         14.5820   14.9150  -23.4830 O.2     3  PHE3       -0.2864
     13  CB        15.7710   14.8190  -20.4080 C.3     3  PHE3        0.0560
     14  CG        14.8070   15.9740  -20.3190 C.ar    3  PHE3       -0.0200
     15  CD1       15.0070   17.1270  -21.0670 C.ar    3  PHE3       -0.0042
     16  CD2       13.6970   15.9020  -19.4930 C.ar    3  PHE3       -0.0042
     17  CE1       14.1180   18.1820  -20.9930 C.ar    3  PHE3       -0.0003
     18  CE2       12.8040   16.9550  -19.4120 C.ar    3  PHE3       -0.0003
     19  CZ        13.0160   18.0960  -20.1620 C.ar    3  PHE3       -0.0000
     20  N         16.7160   13.1510  -25.5930 N.3     5  LEU5       -0.1231
     21  CA        16.2290   12.1950  -26.5780 C.3     5  LEU5        0.1693
     22  C         14.7150   12.2810  -26.6910 C.2     5  LEU5        0.2593
     23  O         14.1700   12.3620  -27.7950 O.2     5  LEU5       -0.2718
     24  CB        16.6310   10.7720  -26.1980 C.3     5  LEU5        0.0284
     25  CG        16.0150    9.6860  -27.0830 C.3     5  LEU5        0.0019
     26  CD1       16.3690    9.9310  -28.5390 C.3     5  LEU5        0.0001
     27  CD2       16.4610    8.3020  -26.6490 C.3     5  LEU5        0.0001
     28  N         14.0430   12.2580  -25.5440 N.am    6  GLY6       -0.1942
     29  CA        12.5940   12.3160  -25.5130 C.3     6  GLY6        0.2014
     30  C         12.0690   13.5970  -26.1310 C.2     6  GLY6        0.2638
     31  O         11.0730   13.5830  -26.8580 O.2     6  GLY6       -0.2714
     32  N         12.7470   14.7070  -25.8520 N.am    7  LYS7       -0.1977
     33  CA        12.3270   15.9910  -26.3930 C.3     7  LYS7        0.1596
     34  C         12.4780   16.0210  -27.9140 C.2     7  LYS7        0.2287
     35  O         11.6080   16.5400  -28.6190 O.2     7  LYS7       -0.2864
     36  CB        13.1060   17.1380  -25.7510 C.3     7  LYS7        0.0298
     37  CG        12.5380   18.5160  -26.0950 C.3     7  LYS7        0.0038
     38  CD        13.1810   19.6150  -25.2640 C.3     7  LYS7        0.0206
     39  CE        12.5950   20.9740  -25.6180 C.3     7  LYS7        0.1093
     40  NZ        13.2260   22.0840  -24.8530 N.3     7  LYS7       -0.1314
     41  N         12.4240   13.4040  -29.9890 N.3     9  ILE9       -0.1231
     42  CA        11.3890   12.5260  -30.5340 C.3     9  ILE9        0.1692
     43  C         10.0520   13.2600  -30.6000 C.2     9  ILE9        0.2591
     44  O          9.3370   13.1740  -31.6000 O.2     9  ILE9       -0.2718
     45  CB        11.2570   11.2320  -29.7110 C.3     9  ILE9        0.0266
     46  CG1       12.5490   10.4170  -29.8120 C.3     9  ILE9        0.0019
     47  CG2       10.0640   10.4020  -30.1770 C.3     9  ILE9        0.0020
     48  CD1       12.5400    9.1170  -29.0190 C.3     9  ILE9        0.0001
     49  N          9.7250   13.9950  -29.5410 N.am   10  LEU10      -0.1980
     50  CA         8.5110   14.8000  -29.5290 C.3    10  LEU10       0.1596
     51  C          8.5860   15.8850  -30.5970 C.2    10  LEU10       0.2287
     52  O          7.6590   16.0560  -31.3850 O.2    10  LEU10      -0.2864
     53  CB         8.2970   15.4340  -28.1540 C.3    10  LEU10       0.0297
     54  CG         7.1410   16.4300  -28.0260 C.3    10  LEU10       0.0022
     55  CD1        5.8280   15.7940  -28.4610 C.3    10  LEU10       0.0001
     56  CD2        7.0320   16.9530  -26.6060 C.3    10  LEU10       0.0001
     57  N          6.7100   10.6420  -26.6620 N.3    17  PRO17      -0.2102
     58  CA         7.6330    9.5540  -27.0090 C.3    17  PRO17       0.1504
     59  C          7.3660    8.2860  -26.2070 C.2    17  PRO17       0.2575
     60  O          7.6170    7.1890  -26.7000 O.2    17  PRO17      -0.2718
     61  CB         9.0020   10.1320  -26.6450 C.3    17  PRO17       0.0282
     62  CG         8.7130   11.1640  -25.6010 C.3    17  PRO17       0.0208
     63  CD         7.4050   11.7720  -26.0190 C.3    17  PRO17       0.0893
     64  N          6.8590    8.4460  -24.9880 N.am   18  ALA18      -0.1980
     65  CA         6.5770    7.3140  -24.1100 C.3    18  ALA18       0.1597
     66  C          5.4720    6.4420  -24.6880 C.2    18  ALA18       0.2287
     67  O          5.6170    5.2260  -24.7930 O.2    18  ALA18      -0.2864
     68  CB         6.2000    7.7990  -22.7160 C.3    18  ALA18       0.0319
     69  N          6.7630    5.2010  -28.3850 N.3    21  TYR21      -0.1227
     70  CA         8.0670    4.5550  -28.5480 C.3    21  TYR21       0.1736
     71  C          8.6920    4.0380  -27.2460 C.2    21  TYR21       0.2596
     72  O          9.8220    3.5390  -27.2500 O.2    21  TYR21      -0.2718
     73  CB         9.0410    5.5020  -29.2580 C.3    21  TYR21       0.0548
     74  CG         8.4920    6.0820  -30.5400 C.ar   21  TYR21      -0.0200
     75  CD1        8.3780    5.3030  -31.6800 C.ar   21  TYR21      -0.0009
     76  CD2        8.0830    7.4060  -30.6050 C.ar   21  TYR21      -0.0009
     77  CE1        7.8760    5.8240  -32.8470 C.ar   21  TYR21       0.0417
     78  CE2        7.5790    7.9360  -31.7690 C.ar   21  TYR21       0.0417
     79  CZ         7.4770    7.1370  -32.8850 C.ar   21  TYR21       0.1957
     80  OH         6.9810    7.6570  -34.0510 O.3    21  TYR21      -0.2866
     81  N          7.9550    4.1500  -26.1420 N.am   22  GLY22      -0.1957
     82  CA         8.4320    3.6930  -24.8450 C.3    22  GLY22       0.1869
     83  C          8.4600    2.1810  -24.7360 C.2    22  GLY22       0.2309
     84  O          9.0990    1.6170  -23.8410 O.2    22  GLY22      -0.2863
     85  N         13.1890   -3.0730  -30.2230 N.3    27  ASN27      -0.1225
     86  CA        14.2860   -2.1410  -29.9750 C.3    27  ASN27       0.1785
     87  C         13.8720   -0.8260  -29.3050 C.2    27  ASN27       0.2597
     88  O         14.6970   -0.1550  -28.6850 O.2    27  ASN27      -0.2718
     89  CB        15.0540   -1.8610  -31.2720 C.3    27  ASN27       0.1169
     90  CG        15.6920   -3.1120  -31.8550 C.2    27  ASN27       0.2627
     91  OD1       16.8360   -3.4350  -31.5500 O.2    27  ASN27      -0.2716
     92  ND2       14.9530   -3.8200  -32.6980 N.am   27  ASN27      -0.0877
     93  N         12.6000   -0.4570  -29.4230 N.am   28  CYS28      -0.1956
     94  CA        12.1530    0.8360  -28.9020 C.3    28  CYS28       0.1843
     95  C         11.6930    0.7660  -27.4450 C.2    28  CYS28       0.2626
     96  O         10.7350    0.0620  -27.1170 O.2    28  CYS28      -0.2714
     97  CB        11.0350    1.4150  -29.7720 C.3    28  CYS28       0.0997
     98  SG        11.5030    1.7520  -31.4910 S.3    28  CYS28      -0.0797
     99  N         12.3790    1.5030  -26.5760 N.am   29  GLY29      -0.1954
    100  CA        12.0060    1.5730  -25.1730 C.3    29  GLY29       0.1869
    101  C         12.0370    0.2390  -24.4500 C.2    29  GLY29       0.2309
    102  O         11.3750    0.0640  -23.4250 O.2    29  GLY29      -0.2863
    103  N         15.2560    2.4580  -33.8420 N.3    44  CYS44      -0.1235
    104  CA        15.7170    2.2470  -32.4780 C.3    44  CYS44       0.1677
    105  C         16.8570    1.2350  -32.4170 C.2    44  CYS44       0.2270
    106  O         17.6870    1.2840  -31.5090 O.2    44  CYS44      -0.2867
    107  CB        14.5610    1.7840  -31.5970 C.3    44  CYS44       0.0956
    108  SG        13.1610    2.9230  -31.5550 S.3    44  CYS44      -0.0801
    109  N         19.7800    3.2750  -33.4210 N.3    47  HIS47      -0.1226
    110  CA        20.0320    4.1660  -32.3000 C.3    47  HIS47       0.1752
    111  C         20.8200    3.4720  -31.1900 C.2    47  HIS47       0.2595
    112  O         21.7240    4.0610  -30.5980 O.2    47  HIS47      -0.2718
    113  CB        18.7030    4.6660  -31.7480 C.3    47  HIS47       0.0759
    114  CG        18.8400    5.6150  -30.6000 C.ar   47  HIS47       0.0818
    115  ND1       18.3860    5.3150  -29.3330 N.ar   47  HIS47      -0.2268
    116  CD2       19.3700    6.8570  -30.5270 C.ar   47  HIS47       0.1154
    117  CE1       18.6290    6.3350  -28.5300 C.ar   47  HIS47       0.1986
    118  NE2       19.2220    7.2870  -29.2310 N.ar   47  HIS47      -0.2212
    119  N         20.4760    2.2200  -30.9060 N.am   48  LYS48      -0.1980
    120  CA        21.1780    1.4690  -29.8710 C.3    48  LYS48       0.1596
    121  C         22.5770    1.0540  -30.3180 C.2    48  LYS48       0.2287
    122  O         23.5080    1.0220  -29.5130 O.2    48  LYS48      -0.2864
    123  CB        20.3500    0.2680  -29.4120 C.3    48  LYS48       0.0298
    124  CG        19.1040    0.6840  -28.6450 C.3    48  LYS48       0.0038
    125  CD        18.3860   -0.4840  -27.9960 C.3    48  LYS48       0.0206
    126  CE        17.3350    0.0360  -27.0240 C.3    48  LYS48       0.1093
    127  NZ        16.4830   -1.0450  -26.4650 N.3    48  LYS48      -0.1314
    128  N         24.5690    4.2240  -29.9880 N.3    51  TYR51      -0.1241
    129  CA        25.0120    4.3580  -28.6030 C.3    51  TYR51       0.1605
    130  C         26.2400    3.4970  -28.3230 C.2    51  TYR51       0.2264
    131  O         27.1830    3.9430  -27.6650 O.2    51  TYR51      -0.2867
    132  CB        23.8890    3.9600  -27.6360 C.3    51  TYR51       0.0534
    133  CG        22.9030    5.0630  -27.3190 C.ar   51  TYR51      -0.0201
    134  CD1       22.9530    6.2740  -27.9840 C.ar   51  TYR51      -0.0009
    135  CD2       21.9280    4.8880  -26.3470 C.ar   51  TYR51      -0.0009
    136  CE1       22.0600    7.2750  -27.7000 C.ar   51  TYR51       0.0417
    137  CE2       21.0320    5.8860  -26.0510 C.ar   51  TYR51       0.0417
    138  CZ        21.1090    7.0800  -26.7290 C.ar   51  TYR51       0.1957
    139  OH        20.2200    8.0860  -26.4450 O.3    51  TYR51      -0.2866
    140  N         22.5660    7.5250  -21.3910 N.3    60  LYS60      -0.1245
    141  CA        21.3410    7.7000  -20.6190 C.3    60  LYS60       0.1561
    142  C         21.3300    8.9510  -19.7370 C.2    60  LYS60       0.2260
    143  O         20.3000    9.6210  -19.6040 O.2    60  LYS60      -0.2867
    144  CB        21.0960    6.4630  -19.7520 C.3    60  LYS60       0.0271
    145  CG        20.8700    5.1620  -20.5400 C.3    60  LYS60       0.0035
    146  CD        19.7770    5.1650  -21.6060 C.3    60  LYS60       0.0206
    147  CE        19.4590    3.7780  -22.1790 C.3    60  LYS60       0.1093
    148  NZ        20.1210    3.4640  -23.4600 N.3    60  LYS60      -0.1314
    149  N         12.2790    8.1550  -36.6300 N.3    96  LEU96      -0.1245
    150  CA        10.9470    7.8250  -36.1290 C.3    96  LEU96       0.1561
    151  C          9.8490    8.5950  -36.8670 C.2    96  LEU96       0.2260
    152  O          8.8010    8.0310  -37.1930 O.2    96  LEU96      -0.2867
    153  CB        10.8620    8.0740  -34.6220 C.3    96  LEU96       0.0270
    154  CG        11.7120    7.1520  -33.7460 C.3    96  LEU96       0.0019
    155  CD1       11.5010    7.4480  -32.2770 C.3    96  LEU96       0.0001
    156  CD2       11.4190    5.6950  -34.0480 C.3    96  LEU96       0.0001
@<TRIPOS>BOND
     1   152   151    2
     2   151   150    1
     3   149   150    1
     4   150   153    1
     5   153   154    1
     6    80    79    1
     7   156   154    1
     8   103   104    1
     9   154   155    1
    10   109   110    1
    11    79    77   ar
    12    79    78   ar
    13    77    75   ar
    14    92    90   am
    15   104   105    1
    16   104   107    1
    17   105   106    2
    18   110   113    1
    19   110   111    1
    20    90    91    2
    21    90    89    1
    22    78    76   ar
    23   113   114    1
    24    75    74   ar
    25    44    43    2
    26   107   108    1
    27   108    98    1
    28    98    97    1
    29    52    51    2
    30    89    86    1
    31   111   119   am
    32   111   112    2
    33   119   120    1
    34    76    74   ar
    35   114   116   ar
    36   114   115   ar
    37    43    42    1
    38    43    49   am
    39    51    50    1
    40    74    73    1
    41    42    41    1
    42    42    45    1
    43   116   118   ar
    44   121   120    1
    45   121   122    2
    46    85    86    1
    47    47    45    1
    48   128   129    1
    49    86    87    1
    50   120   123    1
    51    46    45    1
    52    46    48    1
    53    97    94    1
    54    49    50    1
    55    50    53    1
    56    93    87   am
    57    93    94    1
    58   123   124    1
    59   115   117   ar
    60    87    88    2
    61    73    70    1
    62   118   117   ar
    63    94    95    1
    64   124   125    1
    65    35    34    2
    66   129   130    1
    67   129   132    1
    68    70    69    1
    69    70    71    1
    70    26    25    1
    71    55    54    1
    72   130   131    2
    73    53    54    1
    74    54    56    1
    75   125   126    1
    76   134   136   ar
    77   134   133   ar
    78    34    33    1
    79    23    22    2
    80   136   138   ar
    81   132   133    1
    82    95    96    2
    83    95    99   am
    84   133   135   ar
    85    72    71    2
    86    71    81   am
    87    25    27    1
    88    25    24    1
    89   126   127    1
    90    58    57    1
    91    58    61    1
    92    58    59    1
    93    31    30    2
    94   138   139    1
    95   138   137   ar
    96    60    59    2
    97    22    21    1
    98    22    28   am
    99    57    63    1
   100    61    62    1
   101    21    24    1
   102    21    20    1
   103    99   100    1
   104    33    32    1
   105    33    36    1
   106   135   137   ar
   107    59    64   am
   108    81    82    1
   109    30    32   am
   110    30    29    1
   111    37    36    1
   112    37    38    1
   113    63    62    1
   114    39    38    1
   115    39    40    1
   116    28    29    1
   117   100   101    1
   118    64    65    1
   119    82    83    1
   120    67    66    2
   121    83    84    2
   122    66    65    1
   123   101   102    2
   124    65    68    1
   125    12    11    2
   126   148   147    1
   127     4     3    2
   128     8     6    1
   129    11    10    1
   130     3     2    1
   131     3     9   am
   132   147   146    1
   133     2     1    1
   134     2     5    1
   135   146   145    1
   136     6     5    1
   137     6     7    1
   138    10     9    1
   139    10    13    1
   140   140   141    1
   141    15    17   ar
   142    15    14   ar
   143    17    19   ar
   144   141   144    1
   145   141   142    1
   146   145   144    1
   147    13    14    1
   148    14    16   ar
   149    19    18   ar
   150   142   143    2
   151    16    18   ar
