@<TRIPOS>MOLECULE
tmp/4k0yA00.pdb
 171 158 0 0 0
SMALL
GASTEIGER

@<TRIPOS>ATOM
      1  N        -72.9920   50.1280    4.7880 N.3    12  LEU12      -0.1231
      2  CA       -72.0840   49.0360    5.1490 C.3    12  LEU12       0.1693
      3  C        -70.8320   49.5270    5.8910 C.2    12  LEU12       0.2592
      4  O        -70.2860   48.8180    6.7270 O.2    12  LEU12      -0.2718
      5  CB       -71.6890   48.2290    3.9060 C.3    12  LEU12       0.0284
      6  CG       -72.8310   47.5260    3.1620 C.3    12  LEU12       0.0019
      7  CD1      -72.3420   46.9190    1.8550 C.3    12  LEU12       0.0001
      8  CD2      -73.4680   46.4530    4.0270 C.3    12  LEU12       0.0001
      9  N        -70.3800   50.7400    5.5910 N.am   13  GLY13      -0.1957
     10  CA       -69.2150   51.3090    6.2540 C.3    13  GLY13       0.1869
     11  C        -68.8560   52.6450    5.6340 C.2    13  GLY13       0.2309
     12  O        -69.3210   52.9780    4.5330 O.2    13  GLY13      -0.2863
     13  N        -62.0990   55.8270    2.3870 N.3    17  PHE17      -0.1241
     14  CA       -62.5600   55.3950    1.0640 C.3    17  PHE17       0.1605
     15  C        -63.8690   56.0630    0.6280 C.2    17  PHE17       0.2264
     16  O        -64.1690   56.1270   -0.5660 O.2    17  PHE17      -0.2867
     17  CB       -62.7600   53.8800    1.0630 C.3    17  PHE17       0.0534
     18  CG       -63.6610   53.3980    2.1650 C.ar   17  PHE17      -0.0203
     19  CD1      -65.0300   53.2920    1.9630 C.ar   17  PHE17      -0.0042
     20  CD2      -63.1390   53.0810    3.4140 C.ar   17  PHE17      -0.0042
     21  CE1      -65.8590   52.8570    2.9860 C.ar   17  PHE17      -0.0003
     22  CE2      -63.9620   52.6530    4.4420 C.ar   17  PHE17      -0.0003
     23  CZ       -65.3260   52.5400    4.2250 C.ar   17  PHE17      -0.0000
     24  N        -70.0920   53.4560    1.7450 N.3    20  VAL20      -0.1245
     25  CA       -70.5660   52.3350    0.9460 C.3    20  VAL20       0.1561
     26  C        -71.8570   51.7700    1.5090 C.2    20  VAL20       0.2260
     27  O        -71.9330   51.4560    2.6990 O.2    20  VAL20      -0.2867
     28  CB       -69.5140   51.2040    0.8700 C.3    20  VAL20       0.0252
     29  CG1      -70.0490   50.0390    0.0430 C.3    20  VAL20       0.0019
     30  CG2      -68.2080   51.7220    0.3010 C.3    20  VAL20       0.0019
     31  N        -73.0800   46.7190   -4.1160 N.3    33  ALA33      -0.1245
     32  CA       -72.6010   47.6830   -3.1340 C.3    33  ALA33       0.1562
     33  C        -72.5420   49.0140   -3.8510 C.2    33  ALA33       0.2260
     34  O        -72.0930   49.0960   -4.9930 O.2    33  ALA33      -0.2867
     35  CB       -71.2190   47.2930   -2.6100 C.3    33  ALA33       0.0290
     36  N        -71.0150   52.7080   -3.7960 N.3    35  LYS35      -0.1245
     37  CA       -69.9350   53.4360   -3.1420 C.3    35  LYS35       0.1561
     38  C        -69.8720   54.8910   -3.5740 C.2    35  LYS35       0.2260
     39  O        -69.7220   55.2000   -4.7590 O.2    35  LYS35      -0.2867
     40  CB       -68.5790   52.7420   -3.3710 C.3    35  LYS35       0.0271
     41  CG       -67.3910   53.4750   -2.7330 C.3    35  LYS35       0.0035
     42  CD       -66.0660   52.7150   -3.0120 C.3    35  LYS35       0.0206
     43  CE       -64.8680   53.3570   -2.3300 C.3    35  LYS35       0.1093
     44  NZ       -63.5970   52.6080   -2.6710 N.3    35  LYS35      -0.1314
     45  N        -59.3830   55.2450   -9.2700 N.3    57  GLU57      -0.1245
     46  CA       -60.0370   54.0660   -8.7390 C.3    57  GLU57       0.1567
     47  C        -60.9140   53.4020   -9.8010 C.2    57  GLU57       0.2260
     48  O        -60.9690   52.1710   -9.9120 O.2    57  GLU57      -0.2867
     49  CB       -60.8850   54.4430   -7.5180 C.3    57  GLU57       0.0388
     50  CG       -61.6140   53.2710   -6.9040 C.3    57  GLU57       0.1160
     51  CD       -62.3720   53.6260   -5.6330 C.2    57  GLU57       0.3649
     52  OE1      -62.2400   54.7620   -5.1330 O.co2  57  GLU57      -0.2457
     53  OE2      -63.0960   52.7480   -5.1250 O.co2  57  GLU57      -0.2457
     54  N        -63.4770   42.2610   -6.5010 N.3    72  ILE72      -0.1245
     55  CA       -64.8520   42.7360   -6.6140 C.3    72  ILE72       0.1561
     56  C        -65.0120   43.5630   -7.8890 C.2    72  ILE72       0.2260
     57  O        -64.2780   44.5270   -8.1080 O.2    72  ILE72      -0.2867
     58  CB       -65.3090   43.5110   -5.3520 C.3    72  ILE72       0.0252
     59  CG1      -65.8510   42.5370   -4.3040 C.3    72  ILE72       0.0019
     60  CG2      -66.4020   44.5190   -5.6820 C.3    72  ILE72       0.0019
     61  CD1      -67.2500   42.0540   -4.5840 C.3    72  ILE72       0.0001
     62  N        -70.9780   48.2250   -7.3890 N.3    88  LEU88      -0.1231
     63  CA       -70.1330   47.0680   -7.3130 C.3    88  LEU88       0.1693
     64  C        -70.9130   45.8240   -6.9780 C.2    88  LEU88       0.2592
     65  O        -71.9180   45.8740   -6.3420 O.2    88  LEU88      -0.2718
     66  CB       -69.0420   47.2890   -6.2880 C.3    88  LEU88       0.0284
     67  CG       -68.1260   48.4600   -6.5600 C.3    88  LEU88       0.0019
     68  CD1      -67.9120   49.2810   -5.3340 C.3    88  LEU88       0.0001
     69  CD2      -66.8160   48.0560   -7.1650 C.3    88  LEU88       0.0001
     70  N        -70.4110   44.6990   -7.4280 N.am   89  GLU89      -0.1966
     71  CA       -71.0470   43.4400   -7.1510 C.3    89  GLU89       0.1733
     72  C        -70.9720   43.1660   -5.6690 C.2    89  GLU89       0.2616
     73  O        -70.0990   43.6280   -5.0250 O.2    89  GLU89      -0.2715
     74  CB       -70.3960   42.3220   -7.9490 C.3    89  GLU89       0.0429
     75  CG       -69.1730   41.7590   -7.2920 C.3    89  GLU89       0.1163
     76  CD       -68.4340   40.7590   -8.1470 C.2    89  GLU89       0.3649
     77  OE1      -67.2850   40.9960   -8.4560 O.co2  89  GLU89      -0.2457
     78  OE2      -68.9940   39.7190   -8.4800 O.co2  89  GLU89      -0.2457
     79  N        -71.9530   42.5000   -5.1150 N.am   90  ARG90      -0.1977
     80  CA       -71.8990   42.1620   -3.7160 C.3    90  ARG90       0.1597
     81  C        -72.2660   40.7340   -3.4490 C.2    90  ARG90       0.2287
     82  O        -73.3680   40.3280   -3.7050 O.2    90  ARG90      -0.2864
     83  CB       -72.7910   43.0980   -2.9250 C.3    90  ARG90       0.0334
     84  CG       -73.0060   42.7110   -1.4870 C.3    90  ARG90       0.0492
     85  CD       -73.7350   43.7960   -0.7270 C.3    90  ARG90       0.2205
     86  NE       -75.0720   44.0660   -1.2220 N.pl3  90  ARG90      -0.0865
     87  CZ       -76.1240   43.3290   -0.9390 C.cat  90  ARG90       0.5346
     88  NH1      -77.2980   43.6380   -1.4170 N.pl3  90  ARG90       0.1354
     89  NH2      -76.0010   42.2870   -0.1640 N.pl3  90  ARG90       0.1354
     90  N        -71.9370   37.3750    3.2310 N.3    94  VAL94      -0.1231
     91  CA       -70.5540   37.8080    3.1600 C.3    94  VAL94       0.1692
     92  C        -70.1600   38.3380    4.5310 C.2    94  VAL94       0.2592
     93  O        -71.0150   38.7660    5.3100 O.2    94  VAL94      -0.2718
     94  CB       -70.4060   38.9090    2.0930 C.3    94  VAL94       0.0266
     95  CG1      -71.1700   40.1580    2.5130 C.3    94  VAL94       0.0020
     96  CG2      -68.9660   39.2400    1.8440 C.3    94  VAL94       0.0020
     97  N        -68.8710   38.2700    4.8480 N.am   95  GLN95      -0.1966
     98  CA       -68.3340   38.9420    6.0250 C.3    95  GLN95       0.1733
     99  C        -66.9150   39.3150    5.6580 C.2    95  GLN95       0.2616
    100  O        -66.2380   38.5230    5.0100 O.2    95  GLN95      -0.2715
    101  CB       -68.3290   38.0190    7.2470 C.3    95  GLN95       0.0408
    102  CG       -67.7730   38.6770    8.5170 C.3    95  GLN95       0.0908
    103  CD       -67.7510   37.7360    9.7120 C.2    95  GLN95       0.2608
    104  OE1      -67.4190   36.5600    9.5820 O.2    95  GLN95      -0.2717
    105  NE2      -68.1090   38.2520   10.8810 N.am   95  GLN95      -0.0878
    106  N        -66.4600   40.5080    6.0330 N.am   96  ASP96      -0.1971
    107  CA       -65.0630   40.8370    5.7670 C.3    96  ASP96       0.1709
    108  C        -64.1160   40.0650    6.6720 C.2    96  ASP96       0.2293
    109  O        -64.5200   39.5550    7.7240 O.2    96  ASP96      -0.2864
    110  CB       -64.7770   42.3520    5.7250 C.3    96  ASP96       0.1436
    111  CG       -64.7560   43.0260    7.0920 C.2    96  ASP96       0.3671
    112  OD1      -65.1360   44.2230    7.1290 O.co2  96  ASP96      -0.2456
    113  OD2      -64.3240   42.4270    8.1050 O.co2  96  ASP96      -0.2456
    114  N        -63.5710   41.2690   10.4160 N.3    99  ASP99      -0.1239
    115  CA       -64.6180   40.8290   11.3300 C.3    99  ASP99       0.1674
    116  C        -64.5280   39.3340   11.6060 C.2    99  ASP99       0.2266
    117  O        -64.7670   38.8800   12.7280 O.2    99  ASP99      -0.2867
    118  CB       -65.9900   41.1440   10.7370 C.3    99  ASP99       0.1410
    119  CG       -66.3140   42.6270   10.7650 C.2    99  ASP99       0.3668
    120  OD1      -65.6490   43.3850   11.5070 O.co2  99  ASP99      -0.2456
    121  OD2      -67.2450   43.0300   10.0490 O.co2  99  ASP99      -0.2456
    122  N        -55.2150   44.2800    3.0620 N.3   137  LYS137     -0.1245
    123  CA       -55.3890   44.0860    4.4980 C.3   137  LYS137      0.1561
    124  C        -56.7100   43.3780    4.7440 C.2   137  LYS137      0.2260
    125  O        -57.5590   43.3130    3.8570 O.2   137  LYS137     -0.2867
    126  CB       -55.3620   45.4190    5.2570 C.3   137  LYS137      0.0271
    127  CG       -56.4390   46.4170    4.8200 C.3   137  LYS137      0.0035
    128  CD       -56.4770   47.6130    5.7690 C.3   137  LYS137      0.0206
    129  CE       -57.3980   48.6980    5.2260 C.3   137  LYS137      0.1093
    130  NZ       -57.4410   49.8970    6.1000 N.3   137  LYS137     -0.1314
    131  N        -59.4410   44.1770    6.2650 N.3   139  GLU139     -0.1231
    132  CA       -60.6680   44.9440    6.0240 C.3   139  GLU139      0.1699
    133  C        -61.0370   45.0510    4.5480 C.2   139  GLU139      0.2592
    134  O        -62.1870   45.3610    4.2190 O.2   139  GLU139     -0.2718
    135  CB       -60.5470   46.3610    6.5680 C.3   139  GLU139      0.0402
    136  CG       -60.2200   46.4790    8.0290 C.3   139  GLU139      0.1161
    137  CD       -59.9450   47.9260    8.4060 C.2   139  GLU139      0.3649
    138  OE1      -60.9230   48.6950    8.5280 O.co2 139  GLU139     -0.2457
    139  OE2      -58.7560   48.2960    8.5490 O.co2 139  GLU139     -0.2457
    140  N        -60.0640   44.8280    3.6620 N.am  140  ASN140     -0.1974
    141  CA       -60.2960   44.9640    2.2160 C.3   140  ASN140      0.1688
    142  C        -60.4370   43.6290    1.5180 C.2   140  ASN140      0.2292
    143  O        -60.2390   43.4970    0.2990 O.2   140  ASN140     -0.2864
    144  CB       -59.2030   45.8210    1.5830 C.3   140  ASN140      0.1181
    145  CG       -59.3340   47.2750    1.9960 C.2   140  ASN140      0.2629
    146  OD1      -60.4320   47.6980    2.3680 O.2   140  ASN140     -0.2716
    147  ND2      -58.2340   48.0420    1.9480 N.am  140  ASN140     -0.0877
    148  N        -63.2430   40.4760    1.3400 N.3   142  LEU142     -0.1245
    149  CA       -64.5290   39.8820    1.6710 C.3   142  LEU142      0.1561
    150  C        -64.5110   38.3720    1.5200 C.2   142  LEU142      0.2260
    151  O        -63.8930   37.8360    0.5890 O.2   142  LEU142     -0.2867
    152  CB       -65.6130   40.4450    0.7600 C.3   142  LEU142      0.0270
    153  CG       -65.7700   41.9600    0.8210 C.3   142  LEU142      0.0019
    154  CD1      -66.9170   42.3800   -0.0970 C.3   142  LEU142      0.0001
    155  CD2      -66.0420   42.3630    2.2710 C.3   142  LEU142      0.0001
    156  N        -61.3480   44.1030   -2.2740 N.3   153  ILE153     -0.1231
    157  CA       -62.0780   45.3370   -2.5060 C.3   153  ILE153      0.1692
    158  C        -61.2450   46.5860   -2.2430 C.2   153  ILE153      0.2592
    159  O        -60.1460   46.5200   -1.7030 O.2   153  ILE153     -0.2718
    160  CB       -63.3290   45.4250   -1.5960 C.3   153  ILE153      0.0266
    161  CG1      -62.9320   45.3970   -0.1230 C.3   153  ILE153      0.0019
    162  CG2      -64.2630   44.2790   -1.8590 C.3   153  ILE153      0.0020
    163  CD1      -64.1240   45.5390    0.8050 C.3   153  ILE153      0.0001
    164  N        -61.8210   47.7270   -2.6160 N.am  154  ASP154     -0.1974
    165  CA       -61.2550   49.0560   -2.3930 C.3   154  ASP154      0.1709
    166  C        -59.9080   49.3800   -3.0700 C.2   154  ASP154      0.2293
    167  O        -58.8360   49.2730   -2.4770 O.2   154  ASP154     -0.2864
    168  CB       -61.2400   49.4220   -0.9130 C.3   154  ASP154      0.1436
    169  CG       -60.9280   50.8960   -0.6900 C.2   154  ASP154      0.3671
    170  OD1      -60.9490   51.6880   -1.6710 O.co2 154  ASP154     -0.2456
    171  OD2      -60.6670   51.2700    0.4630 O.co2 154  ASP154     -0.2456
@<TRIPOS>BOND
     1    48    47    2
     2    47    46    1
     3    45    46    1
     4    46    49    1
     5    78    76   ar
     6    77    76   ar
     7    76    75    1
     8    57    56    2
     9    74    75    1
    10    74    71    1
    11    56    55    1
    12    49    50    1
    13    70    71    1
    14    70    64   am
    15    62    63    1
    16    63    64    1
    17    63    66    1
    18    69    67    1
    19    71    72    1
    20    64    65    2
    21    50    51    1
    22    55    54    1
    23    55    58    1
    24    67    66    1
    25    67    68    1
    26    60    58    1
    27    72    79   am
    28    72    73    2
    29    51    52   ar
    30    51    53   ar
    31    58    59    1
    32    79    80    1
    33    34    33    2
    34    39    38    2
    35    61    59    1
    36    31    32    1
    37    33    32    1
    38    36    37    1
    39    80    81    1
    40    80    83    1
    41    82    81    2
    42    38    37    1
    43    40    37    1
    44    40    41    1
    45    32    35    1
    46   166   167    2
    47   166   165    1
    48    42    41    1
    49    42    43    1
    50    83    84    1
    51    44    43    1
    52   164   165    1
    53   164   158   am
    54   157   156    1
    55   157   158    1
    56   157   160    1
    57   165   168    1
    58   158   159    2
    59   162   160    1
    60   170   169   ar
    61   160   161    1
    62    84    85    1
    63    88    87    1
    64    86    87    2
    65    86    85    1
    66    87    89    1
    67   168   169    1
    68   169   171   ar
    69    16    15    2
    70   161   163    1
    71   154   153    1
    72    29    28    1
    73   143   142    2
    74    30    28    1
    75   151   150    2
    76    15    14    1
    77   152   153    1
    78   152   149    1
    79   153   155    1
    80    28    25    1
    81    25    26    1
    82    25    24    1
    83    17    14    1
    84    17    18    1
    85    14    13    1
    86   148   149    1
    87    26    27    2
    88   142   141    1
    89   150   149    1
    90   144   145    1
    91   144   141    1
    92    96    94    1
    93     7     6    1
    94   147   145   am
    95    19    18   ar
    96    19    21   ar
    97   145   146    2
    98    94    95    1
    99    94    91    1
   100    18    20   ar
   101   141   140    1
   102    21    23   ar
   103   122   123    1
   104    91    90    1
   105    91    92    1
   106     6     5    1
   107     6     8    1
   108    20    22   ar
   109   140   133   am
   110   125   124    2
   111     5     2    1
   112   134   133    2
   113    23    22   ar
   114   123   124    1
   115   123   126    1
   116    92    97   am
   117    92    93    2
   118    12    11    2
   119   133   132    1
   120     1     2    1
   121   127   126    1
   122   127   128    1
   123    97    98    1
   124   100    99    2
   125     2     3    1
   126   129   128    1
   127   129   130    1
   128     9     3   am
   129     9    10    1
   130    11    10    1
   131    99    98    1
   132    99   106   am
   133   110   107    1
   134   110   111    1
   135   107   106    1
   136   107   108    1
   137     3     4    2
   138   132   131    1
   139   132   135    1
   140    98   101    1
   141   135   136    1
   142   108   109    2
   143   111   112   ar
   144   111   113   ar
   145   101   102    1
   146   136   137    1
   147   137   138   ar
   148   137   139   ar
   149   102   103    1
   150   104   103    2
   151   103   105   am
   152   121   119   ar
   153   114   115    1
   154   118   119    1
   155   118   115    1
   156   119   120   ar
   157   115   116    1
   158   116   117    2
