@<TRIPOS>MOLECULE
tmp/4k10C02.pdb
 133 122 0 0 0
SMALL
GASTEIGER

@<TRIPOS>ATOM
      1  N         11.2880   50.0850  124.6260 N.3    91  GLN91      -0.1245
      2  CA        12.0350   48.8640  124.9540 C.3    91  GLN91       0.1566
      3  C         13.4790   48.9600  124.4890 C.2    91  GLN91       0.2260
      4  O         14.4030   48.7560  125.2890 O.2    91  GLN91      -0.2867
      5  CB        11.3940   47.5810  124.3900 C.3    91  GLN91       0.0367
      6  CG        12.2270   46.3500  124.7660 C.3    91  GLN91       0.0905
      7  CD        11.6610   45.0230  124.2590 C.2    91  GLN91       0.2608
      8  OE1       11.3110   44.8800  123.0770 O.2    91  GLN91      -0.2717
      9  NE2       11.5950   44.0390  125.1530 N.am   91  GLN91      -0.0878
     10  N         15.5800   51.0350  126.7050 N.3    94  PHE94      -0.1227
     11  CA        15.9870   50.3170  127.9250 C.3    94  PHE94       0.1736
     12  C         17.0230   49.1870  127.7280 C.2    94  PHE94       0.2595
     13  O         17.8890   48.9860  128.5880 O.2    94  PHE94      -0.2718
     14  CB        14.7730   49.8060  128.7210 C.3    94  PHE94       0.0547
     15  CG        14.1320   50.8580  129.5960 C.ar   94  PHE94      -0.0202
     16  CD1       12.8510   51.3380  129.3060 C.ar   94  PHE94      -0.0042
     17  CD2       14.8140   51.3840  130.7020 C.ar   94  PHE94      -0.0042
     18  CE1       12.2550   52.3190  130.1020 C.ar   94  PHE94      -0.0003
     19  CE2       14.2280   52.3560  131.5040 C.ar   94  PHE94      -0.0003
     20  CZ        12.9400   52.8150  131.2040 C.ar   94  PHE94      -0.0000
     21  N         16.9320   48.4600  126.6180 N.am   95  LEU95      -0.1980
     22  CA        17.8750   47.3740  126.3230 C.3    95  LEU95       0.1596
     23  C         19.2650   47.9140  126.0150 C.2    95  LEU95       0.2287
     24  O         20.2710   47.3080  126.3900 O.2    95  LEU95      -0.2864
     25  CB        17.3820   46.5090  125.1490 C.3    95  LEU95       0.0297
     26  CG        16.0400   45.7590  125.2150 C.3    95  LEU95       0.0022
     27  CD1       15.9280   44.7330  124.0860 C.3    95  LEU95       0.0001
     28  CD2       15.8340   45.0680  126.5440 C.3    95  LEU95       0.0001
     29  N         20.3820   48.9710  129.5860 N.3    98  ASP98      -0.1239
     30  CA        20.5880   47.7890  130.4200 C.3    98  ASP98       0.1674
     31  C         21.8670   47.0710  130.0210 C.2    98  ASP98       0.2266
     32  O         22.6790   46.7330  130.8740 O.2    98  ASP98      -0.2867
     33  CB        19.4070   46.8230  130.3890 C.3    98  ASP98       0.1410
     34  CG        19.4520   45.8550  131.5290 C.2    98  ASP98       0.3668
     35  OD1       19.5390   46.3260  132.6980 O.co2  98  ASP98      -0.2456
     36  OD2       19.4340   44.6280  131.2710 O.co2  98  ASP98      -0.2456
     37  N         24.6250   46.4710  132.8320 N.3   102  ASP102     -0.1239
     38  CA        24.9730   45.0890  133.2020 C.3   102  ASP102      0.1674
     39  C         26.2820   44.6150  132.5700 C.2   102  ASP102      0.2266
     40  O         26.7560   43.5180  132.8760 O.2   102  ASP102     -0.2867
     41  CB        23.8630   44.1160  132.7860 C.3   102  ASP102      0.1410
     42  CG        22.5640   44.3400  133.5320 C.2   102  ASP102      0.3668
     43  OD1       22.5760   44.9120  134.6430 O.co2 102  ASP102     -0.2456
     44  OD2       21.5100   43.9230  133.0100 O.co2 102  ASP102     -0.2456
     45  N         23.4190   40.6800  122.1950 N.3   107  ARG107     -0.1245
     46  CA        21.9740   40.8430  122.0980 C.3   107  ARG107      0.1563
     47  C         21.5430   40.3080  120.7300 C.2   107  ARG107      0.2260
     48  O         21.9980   40.7990  119.6870 O.2   107  ARG107     -0.2867
     49  CB        21.5950   42.3200  122.2480 C.3   107  ARG107      0.0307
     50  CG        20.1380   42.6660  121.8860 C.3   107  ARG107      0.0489
     51  CD        19.1690   42.3560  123.0130 C.3   107  ARG107      0.2205
     52  NE        19.6290   42.8870  124.2980 N.pl3 107  ARG107     -0.0865
     53  CZ        18.8930   42.9080  125.4030 C.cat 107  ARG107      0.5346
     54  NH1       17.6600   42.4400  125.3820 N.pl3 107  ARG107      0.1354
     55  NH2       19.3820   43.4070  126.5280 N.pl3 107  ARG107      0.1354
     56  N          9.1430   51.7880  134.6510 N.3   163  THR163     -0.1218
     57  CA        10.2030   50.8730  134.2360 C.3   163  THR163      0.1862
     58  C         11.5660   51.2330  134.8490 C.2   163  THR163      0.2287
     59  O         12.3370   50.3350  135.2320 O.2   163  THR163     -0.2866
     60  CB        10.2340   50.7320  132.6870 C.3   163  THR163      0.1770
     61  OG1        8.9170   50.3670  132.2190 O.3   163  THR163     -0.2211
     62  CG2       11.2480   49.6720  132.2470 C.3   163  THR163      0.0375
     63  N         13.7950   49.0880  137.2110 N.3   167  GLN167     -0.1245
     64  CA        15.2490   49.0010  137.0410 C.3   167  GLN167      0.1566
     65  C         15.9590   49.2700  138.3670 C.2   167  GLN167      0.2260
     66  O         16.8390   48.5000  138.7710 O.2   167  GLN167     -0.2867
     67  CB        15.7640   49.9760  135.9820 C.3   167  GLN167      0.0367
     68  CG        15.6230   49.5240  134.5240 C.3   167  GLN167      0.0905
     69  CD        16.5740   48.3940  134.1400 C.2   167  GLN167      0.2608
     70  OE1       16.4210   47.2520  134.5720 O.2   167  GLN167     -0.2717
     71  NE2       17.5290   48.7060  133.2830 N.am  167  GLN167     -0.0878
     72  N         15.8240   46.2170  140.5240 N.3   170  ASP170     -0.1239
     73  CA        16.7910   45.2720  139.9930 C.3   170  ASP170      0.1674
     74  C         18.2280   45.5760  140.4040 C.2   170  ASP170      0.2266
     75  O         18.9880   44.6600  140.7210 O.2   170  ASP170     -0.2867
     76  CB        16.6940   45.1730  138.4610 C.3   170  ASP170      0.1410
     77  CG        17.1210   43.7890  137.9420 C.2   170  ASP170      0.3668
     78  OD1       18.0010   43.6890  137.0480 O.co2 170  ASP170     -0.2456
     79  OD2       16.5900   42.7920  138.4540 O.co2 170  ASP170     -0.2456
     80  N          9.4460   46.4280  136.3210 N.3   207  LYS207     -0.1231
     81  CA        10.4820   46.4010  135.3020 C.3   207  LYS207      0.1693
     82  C          9.9310   45.9550  133.9490 C.2   207  LYS207      0.2592
     83  O         10.3250   46.4950  132.9050 O.2   207  LYS207     -0.2718
     84  CB        11.6200   45.4810  135.7410 C.3   207  LYS207      0.0285
     85  CG        12.8100   45.4350  134.8100 C.3   207  LYS207      0.0035
     86  CD        13.9190   44.6020  135.4190 C.3   207  LYS207      0.0206
     87  CE        13.8040   43.1120  135.0560 C.3   207  LYS207      0.1093
     88  NZ        15.0500   42.3770  135.4450 N.3   207  LYS207     -0.1314
     89  N          8.9970   45.0050  133.9820 N.am  208  THR208     -0.1953
     90  CA         8.5690   44.2570  132.7980 C.3   208  THR208      0.1897
     91  C          7.0890   44.3990  132.4450 C.2   208  THR208      0.2313
     92  O          6.7450   44.5810  131.2690 O.2   208  THR208     -0.2863
     93  CB         8.8820   42.7260  132.9760 C.3   208  THR208      0.1794
     94  OG1       10.2650   42.4820  132.6970 O.3   208  THR208     -0.2208
     95  CG2        8.0440   41.8720  132.0440 C.3   208  THR208      0.0378
     96  N          5.1740   47.8300  130.7470 N.3   211  TYR211     -0.1241
     97  CA         5.5570   48.0360  129.3440 C.3   211  TYR211      0.1605
     98  C          5.3160   46.8450  128.4080 C.2   211  TYR211      0.2264
     99  O          5.1260   47.0580  127.2160 O.2   211  TYR211     -0.2867
    100  CB         6.9980   48.5500  129.2320 C.3   211  TYR211      0.0534
    101  CG         8.0380   47.5220  128.8840 C.ar  211  TYR211     -0.0201
    102  CD1        8.3830   47.2700  127.5450 C.ar  211  TYR211     -0.0009
    103  CD2        8.7240   46.8410  129.8780 C.ar  211  TYR211     -0.0009
    104  CE1        9.3560   46.3500  127.2200 C.ar  211  TYR211      0.0417
    105  CE2        9.7040   45.9030  129.5580 C.ar  211  TYR211      0.0417
    106  CZ        10.0140   45.6640  128.2310 C.ar  211  TYR211      0.1957
    107  OH        10.9820   44.7370  127.9180 O.3   211  TYR211     -0.2866
    108  N          7.6890   35.9500  133.6840 N.3   247  GLN247     -0.1245
    109  CA         9.0400   36.0290  134.2280 C.3   247  GLN247      0.1566
    110  C          9.3570   34.9850  135.3050 C.2   247  GLN247      0.2260
    111  O         10.5040   34.5520  135.4280 O.2   247  GLN247     -0.2867
    112  CB         9.3420   37.4450  134.7240 C.3   247  GLN247      0.0367
    113  CG         9.8680   38.3840  133.6290 C.3   247  GLN247      0.0905
    114  CD        11.2550   38.0010  133.1080 C.2   247  GLN247      0.2608
    115  OE1       11.6890   38.4970  132.0710 O.2   247  GLN247     -0.2717
    116  NE2       11.9590   37.1170  133.8340 N.am  247  GLN247     -0.0878
    117  N          9.8960   32.3210  133.0950 N.3   250  ASP250     -0.1239
    118  CA        11.2010   32.5010  132.4600 C.3   250  ASP250      0.1674
    119  C         12.3440   32.0270  133.3580 C.2   250  ASP250      0.2266
    120  O         13.3370   31.4870  132.8640 O.2   250  ASP250     -0.2867
    121  CB        11.3940   33.9700  132.0490 C.3   250  ASP250      0.1410
    122  CG        12.6370   34.1920  131.1960 C.2   250  ASP250      0.3668
    123  OD1       12.6620   33.7230  130.0400 O.co2 250  ASP250     -0.2456
    124  OD2       13.5860   34.8520  131.6810 O.co2 250  ASP250     -0.2456
    125  N         21.4220   35.6160  139.5890 N.3   273  LYS273     -0.1245
    126  CA        20.2050   36.3720  139.3750 C.3   273  LYS273      0.1561
    127  C         19.3300   36.2830  140.6100 C.2   273  LYS273      0.2260
    128  O         19.2520   35.2290  141.2490 O.2   273  LYS273     -0.2867
    129  CB        19.4420   35.8300  138.1620 C.3   273  LYS273      0.0271
    130  CG        18.8980   36.8780  137.1720 C.3   273  LYS273      0.0035
    131  CD        17.8290   37.7960  137.7600 C.3   273  LYS273      0.0206
    132  CE        18.3120   39.2740  137.9030 C.3   273  LYS273      0.1093
    133  NZ        19.3560   39.5300  138.9590 N.3   273  LYS273     -0.1314
@<TRIPOS>BOND
     1    48    47    2
     2    47    46    1
     3    50    49    1
     4    50    51    1
     5    46    45    1
     6    46    49    1
     7    51    52    1
     8     8     7    2
     9    27    26    1
    10     7     6    1
    11     7     9   am
    12    52    53    2
    13     5     6    1
    14     5     2    1
    15     3     2    1
    16     3     4    2
    17     1     2    1
    18    25    26    1
    19    25    22    1
    20    26    28    1
    21    54    53    1
    22    53    55    1
    23    23    22    1
    24    23    24    2
    25    22    21    1
    26    21    12   am
    27    10    11    1
    28    99    98    2
    29   104   102   ar
    30   104   106   ar
    31   102   101   ar
    32    12    11    1
    33    12    13    2
    34   107   106    1
    35    11    14    1
    36   106   105   ar
    37    98    97    1
    38    14    15    1
    39   101   100    1
    40   101   103   ar
    41   100    97    1
    42    16    15   ar
    43    16    18   ar
    44    97    96    1
    45   105   103   ar
    46    29    30    1
    47    15    17   ar
    48    31    30    1
    49    31    32    2
    50   123   122   ar
    51    18    20   ar
    52    33    30    1
    53    33    34    1
    54    17    19   ar
    55   122   124   ar
    56   122   121    1
    57    20    19   ar
    58    92    91    2
    59    36    34   ar
    60    34    35   ar
    61    95    93    1
    62   121   118    1
    63   115   114    2
    64    61    60    1
    65    62    60    1
    66    91    90    1
    67   118   117    1
    68   118   119    1
    69    39    40    2
    70    39    38    1
    71    60    57    1
    72    94    93    1
    73    41    38    1
    74    41    42    1
    75    90    93    1
    76    90    89    1
    77    37    38    1
    78   120   119    2
    79    83    82    2
    80    44    42   ar
    81   114   113    1
    82   114   116   am
    83    71    69   am
    84    42    43   ar
    85   113   112    1
    86   108   109    1
    87    82    89   am
    88    82    81    1
    89    69    68    1
    90    69    70    2
    91   109   112    1
    92   109   110    1
    93    57    56    1
    94    57    58    1
    95    68    67    1
    96    85    86    1
    97    85    84    1
    98    58    59    2
    99    87    86    1
   100    87    88    1
   101    81    84    1
   102    81    80    1
   103   110   111    2
   104    67    64    1
   105    64    63    1
   106    64    65    1
   107    78    77   ar
   108   130   131    1
   109   130   129    1
   110   131   132    1
   111   132   133    1
   112    77    79   ar
   113    77    76    1
   114   129   126    1
   115    65    66    2
   116    76    73    1
   117   126   125    1
   118   126   127    1
   119    73    74    1
   120    73    72    1
   121    74    75    2
   122   127   128    2
