@<TRIPOS>MOLECULE
tmp/4k11A00.pdb
 156 146 0 0 0
SMALL
GASTEIGER

@<TRIPOS>ATOM
      1  N         22.8110   17.3660   53.2830 N.3   190  LEU190     -0.1231
      2  CA        22.9860   17.5170   54.7210 C.3   190  LEU190      0.1693
      3  C         21.9370   16.7370   55.4690 C.2   190  LEU190      0.2592
      4  O         22.2100   16.1880   56.5340 O.2   190  LEU190     -0.2718
      5  CB        22.9590   18.9870   55.1010 C.3   190  LEU190      0.0284
      6  CG        24.0860   19.8070   54.4780 C.3   190  LEU190      0.0019
      7  CD1       23.9030   21.2470   54.9080 C.3   190  LEU190      0.0001
      8  CD2       25.4260   19.2380   54.9280 C.3   190  LEU190      0.0001
      9  N         20.7380   16.6950   54.9200 N.am  191  GLY191     -0.1957
     10  CA        19.6610   16.0430   55.5890 C.3   191  GLY191      0.1869
     11  C         18.4440   15.8050   54.7160 C.2   191  GLY191      0.2309
     12  O         18.3100   16.3120   53.6160 O.2   191  GLY191     -0.2863
     13  N         17.8260   19.0440   52.6540 N.3   198  VAL198     -0.1245
     14  CA        18.6880   20.1680   52.8860 C.3   198  VAL198      0.1561
     15  C         20.0710   19.8530   52.2830 C.2   198  VAL198      0.2260
     16  O         20.6430   18.7560   52.5390 O.2   198  VAL198     -0.2867
     17  CB        18.8480   20.4340   54.3990 C.3   198  VAL198      0.0252
     18  CG1       19.7580   21.6290   54.6220 C.3   198  VAL198      0.0019
     19  CG2       17.4760   20.6850   55.0400 C.3   198  VAL198      0.0019
     20  N         23.0770   27.3140   52.3470 N.3   210  ALA210     -0.1231
     21  CA        22.3860   26.0540   52.5220 C.3   210  ALA210      0.1694
     22  C         21.1340   26.1550   51.7580 C.2   210  ALA210      0.2592
     23  O         20.5540   27.2440   51.6480 O.2   210  ALA210     -0.2718
     24  CB        22.1270   25.7810   54.0140 C.3   210  ALA210      0.0304
     25  N         20.6780   25.0420   51.2080 N.am  211  ILE211     -0.1966
     26  CA        19.4780   25.0480   50.3850 C.3   211  ILE211      0.1727
     27  C         18.5210   23.9890   50.8670 C.2   211  ILE211      0.2616
     28  O         18.8640   22.8030   50.8660 O.2   211  ILE211     -0.2715
     29  CB        19.8140   24.7670   48.8980 C.3   211  ILE211      0.0290
     30  CG1       20.7560   25.8220   48.3700 C.3   211  ILE211      0.0022
     31  CG2       18.5770   24.7620   48.0500 C.3   211  ILE211      0.0023
     32  CD1       21.8300   25.2240   47.4940 C.3   211  ILE211      0.0001
     33  N         17.3120   24.3980   51.2300 N.am  212  LYS212     -0.1977
     34  CA        16.2760   23.4680   51.5710 C.3   212  LYS212      0.1596
     35  C         15.2670   23.3450   50.4150 C.2   212  LYS212      0.2287
     36  O         14.6840   24.3330   49.9460 O.2   212  LYS212     -0.2864
     37  CB        15.6190   23.8790   52.8910 C.3   212  LYS212      0.0298
     38  CG        14.4270   23.0400   53.2970 C.3   212  LYS212      0.0038
     39  CD        13.8860   23.4750   54.6430 C.3   212  LYS212      0.0206
     40  CE        12.7070   22.5830   55.0920 C.3   212  LYS212      0.1093
     41  NZ        12.5830   22.4990   56.5920 N.3   212  LYS212     -0.1314
     42  N         17.8160   31.8040   62.4260 N.3   240  VAL240     -0.1245
     43  CA        18.4400   31.4880   61.1660 C.3   240  VAL240      0.1561
     44  C         17.9390   32.4340   60.0530 C.2   240  VAL240      0.2260
     45  O         16.7770   32.3350   59.6650 O.2   240  VAL240     -0.2867
     46  CB        18.1650   30.0100   60.8050 C.3   240  VAL240      0.0252
     47  CG1       18.6380   29.6680   59.3880 C.3   240  VAL240      0.0019
     48  CG2       18.8730   29.0920   61.7920 C.3   240  VAL240      0.0019
     49  N         16.7670   33.7910   56.6010 N.3   242  LEU242     -0.1245
     50  CA        16.3850   33.2750   55.2880 C.3   242  LEU242      0.1561
     51  C         16.9050   34.2870   54.1980 C.2   242  LEU242      0.2260
     52  O         16.5090   35.4540   54.2070 O.2   242  LEU242     -0.2867
     53  CB        14.8770   33.0770   55.2440 C.3   242  LEU242      0.0270
     54  CG        14.1460   33.0580   53.9080 C.3   242  LEU242      0.0019
     55  CD1       14.3000   31.7500   53.1690 C.3   242  LEU242      0.0001
     56  CD2       12.6630   33.3710   54.0300 C.3   242  LEU242      0.0001
     57  N         14.5360   27.1130   49.4770 N.3   253  ILE253     -0.1231
     58  CA        14.7180   28.1290   50.4960 C.3   253  ILE253      0.1692
     59  C         16.1880   28.1930   50.7460 C.2   253  ILE253      0.2592
     60  O         16.7940   27.1870   51.1320 O.2   253  ILE253     -0.2718
     61  CB        13.9740   27.7340   51.8110 C.3   253  ILE253      0.0266
     62  CG1       12.4990   27.4550   51.5090 C.3   253  ILE253      0.0019
     63  CG2       14.1330   28.8140   52.8620 C.3   253  ILE253      0.0020
     64  CD1       11.7220   26.7970   52.6370 C.3   253  ILE253      0.0001
     65  N         16.7750   29.3690   50.5450 N.am  254  VAL254     -0.1966
     66  CA        18.1970   29.5230   50.6890 C.3   254  VAL254      0.1727
     67  C         18.4930   30.2650   51.9870 C.2   254  VAL254      0.2617
     68  O         17.8520   31.2730   52.2640 O.2   254  VAL254     -0.2715
     69  CB        18.7510   30.3000   49.4830 C.3   254  VAL254      0.0290
     70  CG1       20.2410   30.4570   49.5420 C.3   254  VAL254      0.0023
     71  CG2       18.3150   29.6430   48.1970 C.3   254  VAL254      0.0023
     72  N         19.4620   29.7750   52.7730 N.am  255  GLY255     -0.1940
     73  CA        19.7160   30.3370   54.0930 C.3   255  GLY255      0.2014
     74  C         21.1410   30.2010   54.4610 C.2   255  GLY255      0.2639
     75  O         21.8880   29.5610   53.7330 O.2   255  GLY255     -0.2714
     76  N         21.5340   30.8110   55.5750 N.am  256  GLU256     -0.1963
     77  CA        22.9060   30.6520   56.0340 C.3   256  GLU256      0.1733
     78  C         23.2550   29.1900   56.3020 C.2   256  GLU256      0.2616
     79  O         22.4510   28.4410   56.8700 O.2   256  GLU256     -0.2715
     80  CB        23.1950   31.5380   57.2940 C.3   256  GLU256      0.0429
     81  CG        22.5310   31.1130   58.6170 C.3   256  GLU256      0.1163
     82  CD        22.5720   32.2160   59.7340 C.2   256  GLU256      0.3649
     83  OE1       21.6020   33.0750   59.8360 O.co2 256  GLU256     -0.2457
     84  OE2       23.5510   32.2190   60.5120 O.co2 256  GLU256     -0.2457
     85  N         24.4470   28.7900   55.8740 N.am  257  TYR257     -0.1960
     86  CA        24.9480   27.4430   56.1520 C.3   257  TYR257      0.1771
     87  C         25.5560   27.3130   57.5800 C.2   257  TYR257      0.2619
     88  O         26.5680   27.9450   57.9120 O.2   257  TYR257     -0.2715
     89  CB        25.9490   27.0180   55.0870 C.3   257  TYR257      0.0574
     90  CG        26.6370   25.7340   55.4050 C.ar  257  TYR257     -0.0198
     91  CD1       25.9200   24.5410   55.5450 C.ar  257  TYR257     -0.0009
     92  CD2       28.0180   25.6830   55.5690 C.ar  257  TYR257     -0.0009
     93  CE1       26.5710   23.3580   55.8530 C.ar  257  TYR257      0.0417
     94  CE2       28.6610   24.4990   55.8990 C.ar  257  TYR257      0.0417
     95  CZ        27.9260   23.3510   56.0540 C.ar  257  TYR257      0.1957
     96  OH        28.5730   22.1870   56.3790 O.3   257  TYR257     -0.2866
     97  N         24.9510   26.4840   58.4140 N.am  258  MET258     -0.1977
     98  CA        25.4190   26.3360   59.7980 C.3   258  MET258      0.1605
     99  C         26.1710   25.0150   59.8280 C.2   258  MET258      0.2287
    100  O         25.5800   23.9240   59.8730 O.2   258  MET258     -0.2864
    101  CB        24.2210   26.2530   60.7430 C.3   258  MET258      0.0413
    102  CG        23.1790   27.3540   60.6360 C.3   258  MET258      0.0598
    103  SD        23.6170   28.8660   61.5290 S.3   258  MET258     -0.1393
    104  CE        23.7770   28.3340   63.2540 C.3   258  MET258      0.0692
    105  N         25.5560   21.8450   62.2430 N.3   261  GLY261     -0.1210
    106  CA        24.3670   21.0650   62.1310 C.3   261  GLY261      0.1956
    107  C         23.3110   21.3630   63.2370 C.2   261  GLY261      0.2612
    108  O         23.3750   22.4000   63.9420 O.2   261  GLY261     -0.2717
    109  N         22.3500   20.4480   63.3800 N.am  262  SER262     -0.1952
    110  CA        21.2160   20.6560   64.2710 C.3   262  SER262      0.1924
    111  C         21.6060   20.4210   65.7210 C.2   262  SER262      0.2314
    112  O         22.5520   19.7090   66.0100 O.2   262  SER262     -0.2863
    113  CB        20.0380   19.7460   63.8970 C.3   262  SER262      0.2116
    114  OG        20.3060   18.3840   64.2540 O.3   262  SER262     -0.2180
    115  N         21.4330   16.5970   66.7430 N.3   265  ASP265     -0.1239
    116  CA        22.5690   15.7150   66.4410 C.3   265  ASP265      0.1674
    117  C         23.7580   16.1050   67.2740 C.2   265  ASP265      0.2266
    118  O         24.4550   15.2410   67.7560 O.2   265  ASP265     -0.2867
    119  CB        22.9560   15.7160   64.9540 C.3   265  ASP265      0.1410
    120  CG        21.8950   15.0980   64.1120 C.2   265  ASP265      0.3668
    121  OD1       21.2720   14.1310   64.6150 O.co2 265  ASP265     -0.2456
    122  OD2       21.6330   15.6150   62.9900 O.co2 265  ASP265     -0.2456
    123  N         15.5060   19.4050   66.6540 N.3   307  ALA307     -0.1231
    124  CA        15.8000   19.2380   65.2370 C.3   307  ALA307      0.1694
    125  C         15.7820   20.5370   64.4590 C.2   307  ALA307      0.2592
    126  O         16.4660   20.6680   63.4530 O.2   307  ALA307     -0.2718
    127  CB        14.8040   18.2440   64.6120 C.3   307  ALA307      0.0304
    128  N         14.9500   21.4750   64.8530 N.am  308  ASN308     -0.1974
    129  CA        14.8720   22.7650   64.1790 C.3   308  ASN308      0.1688
    130  C         15.6550   23.9030   64.8990 C.2   308  ASN308      0.2292
    131  O         15.3350   25.1170   64.7680 O.2   308  ASN308     -0.2864
    132  CB        13.4180   23.1610   63.9940 C.3   308  ASN308      0.1181
    133  CG        12.6880   22.2450   62.9950 C.2   308  ASN308      0.2629
    134  OD1       13.2820   21.7250   62.0800 O.2   308  ASN308     -0.2716
    135  ND2       11.3960   22.0850   63.1630 N.am  308  ASN308     -0.0877
    136  N         19.6690   25.2270   65.0960 N.3   310  LEU310     -0.1245
    137  CA        20.9830   25.0250   64.4960 C.3   310  LEU310      0.1561
    138  C         22.1150   25.6050   65.3300 C.2   310  LEU310      0.2260
    139  O         21.9950   26.6630   65.9390 O.2   310  LEU310     -0.2867
    140  CB        21.0250   25.5800   63.0500 C.3   310  LEU310      0.0270
    141  CG        19.9300   25.1510   62.0220 C.3   310  LEU310      0.0019
    142  CD1       20.0850   25.8900   60.6800 C.3   310  LEU310      0.0001
    143  CD2       19.8300   23.6680   61.7980 C.3   310  LEU310      0.0001
    144  N         15.3130   27.7740   63.6770 N.3   320  ALA320     -0.1231
    145  CA        15.1630   27.6130   62.2480 C.3   320  ALA320      0.1694
    146  C         13.7840   27.0690   61.9170 C.2   320  ALA320      0.2592
    147  O         13.0960   26.5770   62.8150 O.2   320  ALA320     -0.2718
    148  CB        16.2060   26.6360   61.7360 C.3   320  ALA320      0.0304
    149  N         13.3830   27.1560   60.6320 N.am  321  ASP321     -0.1974
    150  CA        12.1120   26.5670   60.1260 C.3   321  ASP321      0.1709
    151  C         10.8230   27.1360   60.6950 C.2   321  ASP321      0.2293
    152  O          9.8510   26.4230   60.8130 O.2   321  ASP321     -0.2864
    153  CB        12.1130   25.0280   60.2090 C.3   321  ASP321      0.1436
    154  CG        12.8030   24.4100   58.9990 C.2   321  ASP321      0.3671
    155  OD1       12.7460   25.0610   57.9150 O.co2 321  ASP321     -0.2456
    156  OD2       13.4360   23.3310   59.0980 O.co2 321  ASP321     -0.2456
@<TRIPOS>BOND
     1    32    30    1
     2    31    29    1
     3    71    69    1
     4    30    29    1
     5    29    26    1
     6    57    58    1
     7    69    70    1
     8    69    66    1
     9    36    35    2
    10    26    27    1
    11    26    25    1
    12    35    34    1
    13    58    59    1
    14    58    61    1
    15    65    66    1
    16    65    59   am
    17    66    67    1
    18    59    60    2
    19    28    27    2
    20    27    33   am
    21    25    22   am
    22    33    34    1
    23    62    61    1
    24    62    64    1
    25    34    37    1
    26    23    22    2
    27    22    21    1
    28    61    63    1
    29    67    68    2
    30    67    72   am
    31    15    16    2
    32    15    14    1
    33    20    21    1
    34    21    24    1
    35    13    14    1
    36    72    73    1
    37    14    17    1
    38    37    38    1
    39    55    54    1
    40     1     2    1
    41    38    39    1
    42    12    11    2
    43    75    74    2
    44    54    56    1
    45    54    53    1
    46    73    74    1
    47    51    52    2
    48    51    50    1
    49    17    18    1
    50    17    19    1
    51    74    76   am
    52     6     7    1
    53     6     8    1
    54     6     5    1
    55    39    40    1
    56    11    10    1
    57     2     5    1
    58     2     3    1
    59     9     3   am
    60     9    10    1
    61    89    90    1
    62    89    86    1
    63    40    41    1
    64    53    50    1
    65    50    49    1
    66    90    91   ar
    67    90    92   ar
    68     3     4    2
    69    91    93   ar
    70    92    94   ar
    71    76    77    1
    72    93    95   ar
    73    85    86    1
    74    85    78   am
    75    94    95   ar
    76    77    78    1
    77    77    80    1
    78    95    96    1
    79    86    87    1
    80    78    79    2
    81    80    81    1
    82    87    88    2
    83    87    97   am
    84   155   154   ar
    85    97    98    1
    86    81    82    1
    87   154   156   ar
    88   154   153    1
    89    47    46    1
    90    45    44    2
    91    82    83   ar
    92    82    84   ar
    93    98    99    1
    94    98   101    1
    95    99   100    2
    96    44    43    1
    97   150   153    1
    98   150   149    1
    99   150   151    1
   100   149   146   am
   101   102   101    1
   102   102   103    1
   103   142   141    1
   104   151   152    2
   105    46    43    1
   106    46    48    1
   107    43    42    1
   108   103   104    1
   109   148   145    1
   110   143   141    1
   111   146   145    1
   112   146   147    2
   113   141   140    1
   114   134   133    2
   115   106   105    1
   116   106   107    1
   117   145   144    1
   118   122   120   ar
   119   133   135   am
   120   133   132    1
   121   140   137    1
   122   107   109   am
   123   107   108    2
   124   109   110    1
   125   126   125    2
   126   113   114    1
   127   113   110    1
   128   132   129    1
   129   120   121   ar
   130   120   119    1
   131   129   128    1
   132   129   130    1
   133   110   111    1
   134   125   128   am
   135   125   124    1
   136   137   136    1
   137   137   138    1
   138   127   124    1
   139   131   130    2
   140   119   116    1
   141   124   123    1
   142   138   139    2
   143   111   112    2
   144   116   115    1
   145   116   117    1
   146   117   118    2
