@<TRIPOS>MOLECULE
tmp/4k18A00.pdb
 187 175 0 0 0
SMALL
GASTEIGER

@<TRIPOS>ATOM
      1  N        -25.7360  -32.6730    5.9930 N.3    13  LEU13      -0.1231
      2  CA       -24.9810  -33.8800    6.3340 C.3    13  LEU13       0.1693
      3  C        -23.7340  -33.5010    7.1340 C.2    13  LEU13       0.2593
      4  O        -23.4080  -34.1340    8.1400 O.2    13  LEU13      -0.2718
      5  CB       -24.5590  -34.6450    5.0750 C.3    13  LEU13       0.0284
      6  CG       -25.6230  -35.2880    4.1830 C.3    13  LEU13       0.0019
      7  CD1      -24.9730  -35.9110    2.9600 C.3    13  LEU13       0.0001
      8  CD2      -26.4190  -36.3300    4.9490 C.3    13  LEU13       0.0001
      9  N        -23.0360  -32.5010    6.6080 N.am   14  GLY14      -0.1942
     10  CA       -21.7410  -32.0520    7.0740 C.3    14  GLY14       0.2014
     11  C        -21.2850  -30.7210    6.4790 C.2    14  GLY14       0.2639
     12  O        -21.9490  -30.1540    5.6360 O.2    14  GLY14      -0.2714
     13  N        -20.1380  -30.2270    6.9330 N.am   15  SER15      -0.1949
     14  CA       -19.5540  -29.0180    6.3570 C.3    15  SER15       0.1924
     15  C        -18.1650  -28.7110    6.8720 C.2    15  SER15       0.2314
     16  O        -17.4830  -29.5690    7.4020 O.2    15  SER15      -0.2863
     17  CB       -20.4410  -27.8180    6.5960 C.3    15  SER15       0.2116
     18  OG       -20.4030  -27.5090    7.9700 O.3    15  SER15      -0.2180
     19  N        -14.3370  -26.1460    3.8420 N.3    18  PHE18      -0.1227
     20  CA       -14.3530  -26.6720    2.4690 C.3    18  PHE18       0.1736
     21  C        -15.6970  -26.5480    1.7680 C.2    18  PHE18       0.2596
     22  O        -15.7610  -26.4140    0.5500 O.2    18  PHE18      -0.2718
     23  CB       -13.9070  -28.1350    2.4170 C.3    18  PHE18       0.0547
     24  CG       -14.1070  -28.8790    3.7060 C.ar   18  PHE18      -0.0202
     25  CD1      -15.2140  -28.6430    4.4950 C.ar   18  PHE18      -0.0042
     26  CD2      -13.1930  -29.8240    4.1120 C.ar   18  PHE18      -0.0042
     27  CE1      -15.3920  -29.3160    5.6840 C.ar   18  PHE18      -0.0003
     28  CE2      -13.3700  -30.5110    5.2950 C.ar   18  PHE18      -0.0003
     29  CZ       -14.4710  -30.2580    6.0860 C.ar   18  PHE18      -0.0000
     30  N        -16.7690  -26.5810    2.5460 N.am   19  GLY19      -0.1957
     31  CA       -18.1050  -26.4490    1.9880 C.3    19  GLY19       0.1869
     32  C        -19.1900  -26.9860    2.9020 C.2    19  GLY19       0.2309
     33  O        -18.9060  -27.4500    4.0020 O.2    19  GLY19      -0.2863
     34  N        -22.5790  -29.6090    2.9180 N.3    21  VAL21      -0.1245
     35  CA       -23.1330  -30.7000    2.1320 C.3    21  VAL21       0.1561
     36  C        -24.4730  -31.1510    2.6960 C.2    21  VAL21       0.2260
     37  O        -24.5940  -31.4070    3.8940 O.2    21  VAL21      -0.2867
     38  CB       -22.1620  -31.8950    2.0810 C.3    21  VAL21       0.0252
     39  CG1      -22.6250  -32.9100    1.0500 C.3    21  VAL21       0.0019
     40  CG2      -20.7570  -31.4090    1.7610 C.3    21  VAL21       0.0019
     41  N        -25.6260  -36.2980   -2.7120 N.3    34  ALA34      -0.1245
     42  CA       -25.1170  -35.3540   -1.7400 C.3    34  ALA34       0.1562
     43  C        -24.9160  -34.0470   -2.4830 C.2    34  ALA34       0.2260
     44  O        -24.4070  -34.0310   -3.6000 O.2    34  ALA34      -0.2867
     45  CB       -23.8030  -35.8420   -1.1520 C.3    34  ALA34       0.0290
     46  N        -23.2480  -30.4260   -2.4190 N.3    36  LYS36      -0.1245
     47  CA       -22.2370  -29.5750   -1.8070 C.3    36  LYS36       0.1561
     48  C        -22.2500  -28.1730   -2.3990 C.2    36  LYS36       0.2260
     49  O        -22.1890  -28.0000   -3.6160 O.2    36  LYS36      -0.2867
     50  CB       -20.8440  -30.1880   -1.9730 C.3    36  LYS36       0.0271
     51  CG       -19.7270  -29.2990   -1.4490 C.3    36  LYS36       0.0035
     52  CD       -18.3620  -29.9760   -1.5790 C.3    36  LYS36       0.0206
     53  CE       -17.2700  -29.1370   -0.9190 C.3    36  LYS36       0.1093
     54  NZ       -15.9180  -29.7730   -1.0080 N.3    36  LYS36      -0.1314
     55  N        -11.8060  -27.7410   -7.8740 N.3    58  GLU58      -0.1245
     56  CA       -12.4500  -28.9290   -7.3240 C.3    58  GLU58       0.1567
     57  C        -13.3220  -29.6270   -8.3610 C.2    58  GLU58       0.2260
     58  O        -13.3440  -30.8550   -8.4370 O.2    58  GLU58      -0.2867
     59  CB       -13.2750  -28.5660   -6.0860 C.3    58  GLU58       0.0388
     60  CG       -13.9620  -29.7510   -5.4230 C.3    58  GLU58       0.1160
     61  CD       -14.6740  -29.3700   -4.1340 C.2    58  GLU58       0.3649
     62  OE1      -14.6330  -28.1810   -3.7550 O.co2  58  GLU58      -0.2457
     63  OE2      -15.2680  -30.2620   -3.4910 O.co2  58  GLU58      -0.2457
     64  N        -12.7580  -33.2970   -9.9320 N.3    62  LEU62      -0.1245
     65  CA       -13.8480  -34.2600   -9.7950 C.3    62  LEU62       0.1561
     66  C        -14.2290  -34.8590  -11.1440 C.2    62  LEU62       0.2260
     67  O        -14.3810  -36.0760  -11.2670 O.2    62  LEU62      -0.2867
     68  CB       -15.0690  -33.6290   -9.1140 C.3    62  LEU62       0.0270
     69  CG       -15.0470  -33.5870   -7.5830 C.3    62  LEU62       0.0019
     70  CD1      -16.1090  -32.6370   -7.0540 C.3    62  LEU62       0.0001
     71  CD2      -15.2430  -34.9830   -7.0010 C.3    62  LEU62       0.0001
     72  N        -16.0910  -40.9510   -4.7940 N.3    73  ILE73      -0.1245
     73  CA       -17.4510  -40.4400   -4.9280 C.3    73  ILE73       0.1561
     74  C        -17.4860  -39.5970   -6.1960 C.2    73  ILE73       0.2260
     75  O        -16.6780  -38.6850   -6.3630 O.2    73  ILE73      -0.2867
     76  CB       -17.8800  -39.6030   -3.7060 C.3    73  ILE73       0.0252
     77  CG1      -18.1890  -40.5150   -2.5190 C.3    73  ILE73       0.0019
     78  CG2      -19.1000  -38.7490   -4.0430 C.3    73  ILE73       0.0019
     79  CD1      -19.4380  -41.3580   -2.6950 C.3    73  ILE73       0.0001
     80  N        -23.2160  -34.9310   -5.9660 N.3    89  LEU89      -0.1231
     81  CA       -22.3260  -36.0650   -5.7620 C.3    89  LEU89       0.1693
     82  C        -23.1480  -37.2910   -5.4200 C.2    89  LEU89       0.2592
     83  O        -24.2370  -37.1710   -4.8670 O.2    89  LEU89      -0.2718
     84  CB       -21.3640  -35.7640   -4.6090 C.3    89  LEU89       0.0284
     85  CG       -20.4310  -34.5640   -4.8110 C.3    89  LEU89       0.0019
     86  CD1      -20.0730  -33.9220   -3.4810 C.3    89  LEU89       0.0001
     87  CD2      -19.1750  -34.9940   -5.5450 C.3    89  LEU89       0.0001
     88  N        -22.6370  -38.4780   -5.7270 N.am   90  GLU90      -0.1966
     89  CA       -23.3630  -39.6810   -5.3390 C.3    90  GLU90       0.1733
     90  C        -23.3700  -39.8440   -3.8220 C.2    90  GLU90       0.2616
     91  O        -22.5030  -39.3180   -3.1250 O.2    90  GLU90      -0.2715
     92  CB       -22.8380  -40.9310   -6.0620 C.3    90  GLU90       0.0429
     93  CG       -21.3420  -41.0220   -6.1820 C.3    90  GLU90       0.1163
     94  CD       -20.8950  -42.2580   -6.9410 C.2    90  GLU90       0.3649
     95  OE1      -19.7180  -42.6350   -6.8090 O.co2  90  GLU90      -0.2457
     96  OE2      -21.7160  -42.8570   -7.6680 O.co2  90  GLU90      -0.2457
     97  N        -24.3850  -40.5290   -3.3100 N.am   91  ARG91      -0.1964
     98  CA       -24.5000  -40.7450   -1.8770 C.3    91  ARG91       0.1714
     99  C        -24.8750  -42.1920   -1.5960 C.2    91  ARG91       0.2458
    100  O        -26.0310  -42.5750   -1.7690 O.2    91  ARG91      -0.2730
    101  CB       -25.5510  -39.8140   -1.2610 C.3    91  ARG91       0.0347
    102  CG       -25.8510  -40.1130    0.2090 C.3    91  ARG91       0.0492
    103  CD       -26.6490  -39.0000    0.8820 C.3    91  ARG91       0.2205
    104  NE       -27.9720  -38.8130    0.2890 N.pl3  91  ARG91      -0.0865
    105  CZ       -29.0510  -39.5110    0.6310 C.cat  91  ARG91       0.5346
    106  NH1      -30.2140  -39.2670    0.0410 N.pl3  91  ARG91       0.1354
    107  NH2      -28.9670  -40.4550    1.5600 N.pl3  91  ARG91       0.1354
    108  N        -23.8950  -43.0050   -1.1700 N.am   92  PRO92      -0.2727
    109  CA       -24.2030  -44.3850   -0.7800 C.3    92  PRO92       0.1402
    110  C        -25.0730  -44.4010    0.4790 C.2    92  PRO92       0.2269
    111  O        -24.9950  -43.4800    1.2920 O.2    92  PRO92      -0.2865
    112  CB       -22.8200  -44.9910   -0.4810 C.3    92  PRO92       0.0296
    113  CG       -21.8180  -44.0400   -1.1070 C.3    92  PRO92       0.0237
    114  CD       -22.4620  -42.6900   -1.0270 C.3    92  PRO92       0.0939
    115  N        -24.0360  -45.2060    4.8430 N.3    95  VAL95      -0.1231
    116  CA       -22.6580  -44.7630    4.6740 C.3    95  VAL95       0.1692
    117  C        -22.1260  -44.2040    5.9910 C.2    95  VAL95       0.2592
    118  O        -22.8880  -43.6940    6.8180 O.2    95  VAL95      -0.2718
    119  CB       -22.5450  -43.6940    3.5500 C.3    95  VAL95       0.0266
    120  CG1      -23.1430  -42.3700    4.0050 C.3    95  VAL95       0.0020
    121  CG2      -21.1020  -43.5090    3.1120 C.3    95  VAL95       0.0020
    122  N        -20.8180  -44.3240    6.1890 N.am   96  GLN96      -0.1966
    123  CA       -20.1590  -43.7810    7.3680 C.3    96  GLN96       0.1733
    124  C        -18.7270  -43.4200    6.9910 C.2    96  GLN96       0.2616
    125  O        -18.0770  -44.1690    6.2580 O.2    96  GLN96      -0.2715
    126  CB       -20.1530  -44.8200    8.4930 C.3    96  GLN96       0.0408
    127  CG       -19.5700  -44.3160    9.8070 C.3    96  GLN96       0.0908
    128  CD       -19.5290  -45.3900   10.8830 C.2    96  GLN96       0.2608
    129  OE1      -19.3280  -46.5690   10.5940 O.2    96  GLN96      -0.2717
    130  NE2      -19.7230  -44.9830   12.1300 N.am   96  GLN96      -0.0878
    131  N        -18.2250  -42.2860    7.4710 N.am   97  ASP97      -0.1971
    132  CA       -16.8360  -41.9540    7.1790 C.3    97  ASP97       0.1709
    133  C        -15.8900  -42.7930    8.0340 C.2    97  ASP97       0.2293
    134  O        -16.2650  -43.2830    9.1040 O.2    97  ASP97      -0.2864
    135  CB       -16.5390  -40.4430    7.2540 C.3    97  ASP97       0.1436
    136  CG       -16.6490  -39.8670    8.6620 C.2    97  ASP97       0.3671
    137  OD1      -16.1080  -40.4540    9.6230 O.co2  97  ASP97      -0.2456
    138  OD2      -17.2650  -38.7900    8.8000 O.co2  97  ASP97      -0.2456
    139  N        -15.2710  -41.6980   11.7990 N.3   100  ASP100     -0.1239
    140  CA       -16.3030  -42.1470   12.7290 C.3   100  ASP100      0.1674
    141  C        -16.2050  -43.6450   12.9660 C.2   100  ASP100      0.2266
    142  O        -16.4240  -44.1260   14.0790 O.2   100  ASP100     -0.2867
    143  CB       -17.6950  -41.8200   12.1850 C.3   100  ASP100      0.1410
    144  CG       -18.0520  -40.3570   12.3300 C.2   100  ASP100      0.3668
    145  OD1      -17.3460  -39.6420   13.0740 O.co2 100  ASP100     -0.2456
    146  OD2      -19.0500  -39.9260   11.7120 O.co2 100  ASP100     -0.2456
    147  N        -11.1630  -38.7210    7.5680 N.3   140  GLU140     -0.1231
    148  CA       -12.3330  -37.8630    7.3600 C.3   140  GLU140      0.1699
    149  C        -12.7240  -37.7480    5.8890 C.2   140  GLU140      0.2592
    150  O        -13.8640  -37.4200    5.5680 O.2   140  GLU140     -0.2718
    151  CB       -12.0930  -36.4610    7.9280 C.3   140  GLU140      0.0402
    152  CG       -11.7470  -36.4250    9.3990 C.3   140  GLU140      0.1161
    153  CD       -11.3570  -35.0320    9.8590 C.2   140  GLU140      0.3649
    154  OE1      -12.1130  -34.0790    9.5780 O.co2 140  GLU140     -0.2457
    155  OE2      -10.2870  -34.8880   10.4860 O.co2 140  GLU140     -0.2457
    156  N        -11.7770  -38.0180    4.9960 N.am  141  ASN141     -0.1974
    157  CA       -12.0320  -37.9060    3.5620 C.3   141  ASN141      0.1688
    158  C        -12.2480  -39.2400    2.8600 C.2   141  ASN141      0.2292
    159  O        -12.1190  -39.3450    1.6420 O.2   141  ASN141     -0.2864
    160  CB       -10.9270  -37.0880    2.8830 C.3   141  ASN141      0.1181
    161  CG       -11.0150  -35.6210    3.2270 C.2   141  ASN141      0.2629
    162  OD1      -12.0990  -35.1180    3.5270 O.2   141  ASN141     -0.2716
    163  ND2       -9.8810  -34.9260    3.1980 N.am  141  ASN141     -0.0877
    164  N        -15.0880  -42.4730    2.6960 N.3   143  LEU143     -0.1245
    165  CA       -16.3970  -43.0000    3.0750 C.3   143  LEU143      0.1561
    166  C        -16.4340  -44.5030    2.9290 C.2   143  LEU143      0.2260
    167  O        -15.7810  -45.0660    2.0560 O.2   143  LEU143     -0.2867
    168  CB       -17.5010  -42.4160    2.2010 C.3   143  LEU143      0.0270
    169  CG       -17.6320  -40.9010    2.1340 C.3   143  LEU143      0.0019
    170  CD1      -18.8480  -40.5500    1.2920 C.3   143  LEU143      0.0001
    171  CD2      -17.7520  -40.3240    3.5320 C.3   143  LEU143      0.0001
    172  N        -13.4700  -38.7660   -0.8440 N.3   154  ILE154     -0.1231
    173  CA       -14.1810  -37.5030   -1.0120 C.3   154  ILE154      0.1692
    174  C        -13.2800  -36.2990   -0.7810 C.2   154  ILE154      0.2592
    175  O        -12.1400  -36.4260   -0.3150 O.2   154  ILE154     -0.2718
    176  CB       -15.3790  -37.3670   -0.0450 C.3   154  ILE154      0.0266
    177  CG1      -14.9060  -37.4480    1.4070 C.3   154  ILE154      0.0019
    178  CG2      -16.4270  -38.4180   -0.3330 C.3   154  ILE154      0.0020
    179  CD1      -15.9440  -36.9750    2.4160 C.3   154  ILE154      0.0001
    180  N        -13.8220  -35.1320   -1.1190 N.am  155  ASP155     -0.1974
    181  CA       -13.2210  -33.8380   -0.8000 C.3   155  ASP155      0.1709
    182  C        -11.9170  -33.5510   -1.5390 C.2   155  ASP155      0.2293
    183  O        -10.8250  -33.6320   -0.9670 O.2   155  ASP155     -0.2864
    184  CB       -13.0520  -33.6650    0.7140 C.3   155  ASP155      0.1436
    185  CG       -12.6670  -32.2380    1.1040 C.2   155  ASP155      0.3671
    186  OD1      -12.5860  -31.3650    0.2150 O.co2 155  ASP155     -0.2456
    187  OD2      -12.4530  -31.9820    2.3080 O.co2 155  ASP155     -0.2456
@<TRIPOS>BOND
     1    67    66    2
     2    66    65    1
     3    64    65    1
     4    65    68    1
     5    68    69    1
     6    58    57    2
     7    57    56    1
     8    55    56    1
     9    96    94   ar
    10    69    70    1
    11    69    71    1
    12    56    59    1
    13    94    95   ar
    14    94    93    1
    15    75    74    2
    16    74    73    1
    17    93    92    1
    18    59    60    1
    19    92    89    1
    20    80    81    1
    21    81    82    1
    22    81    84    1
    23    88    82   am
    24    88    89    1
    25    87    85    1
    26    60    61    1
    27    82    83    2
    28    89    90    1
    29    73    72    1
    30    73    76    1
    31    85    84    1
    32    85    86    1
    33    61    62   ar
    34    61    63   ar
    35    78    76    1
    36    90    97   am
    37    90    91    2
    38    76    77    1
    39    49    48    2
    40    44    43    2
    41    97    98    1
    42    41    42    1
    43    79    77    1
    44    43    42    1
    45    46    47    1
    46    48    47    1
    47    50    47    1
    48    50    51    1
    49    98    99    1
    50    98   101    1
    51   100    99    2
    52    42    45    1
    53    99   108   am
    54    52    51    1
    55    52    53    1
    56   182   183    2
    57   182   181    1
    58   101   102    1
    59   108   114    1
    60   108   109    1
    61   180   181    1
    62   180   174   am
    63   113   114    1
    64   113   112    1
    65   173   172    1
    66   173   174    1
    67   173   176    1
    68    54    53    1
    69   181   184    1
    70   174   175    2
    71   109   112    1
    72   109   110    1
    73   178   176    1
    74   176   177    1
    75   106   105    1
    76   102   103    1
    77   186   185   ar
    78   104   105    2
    79   104   103    1
    80   110   111    2
    81    22    21    2
    82   105   107    1
    83   184   185    1
    84    39    38    1
    85   185   187   ar
    86   170   169    1
    87   177   179    1
    88   159   158    2
    89    40    38    1
    90    21    20    1
    91    21    30   am
    92    31    30    1
    93    31    32    1
    94   167   166    2
    95    38    35    1
    96    35    36    1
    97    35    34    1
    98   169   168    1
    99   169   171    1
   100   168   165    1
   101    23    20    1
   102    23    24    1
   103    20    19    1
   104    36    37    2
   105   164   165    1
   106   158   157    1
   107   160   161    1
   108   160   157    1
   109    32    33    2
   110   166   165    1
   111     7     6    1
   112   121   119    1
   113   163   161   am
   114   161   162    2
   115   119   120    1
   116   119   116    1
   117   157   156    1
   118    24    26   ar
   119    24    25   ar
   120    26    28   ar
   121     6     8    1
   122     6     5    1
   123    25    27   ar
   124   116   115    1
   125   116   117    1
   126   156   149   am
   127     5     2    1
   128    28    29   ar
   129   150   149    2
   130    12    11    2
   131    27    29   ar
   132   149   148    1
   133   117   122   am
   134   117   118    2
   135     1     2    1
   136   122   123    1
   137   125   124    2
   138     2     3    1
   139    14    17    1
   140    14    15    1
   141    14    13    1
   142    11    13   am
   143    11    10    1
   144    17    18    1
   145     9    10    1
   146     9     3   am
   147    15    16    2
   148   124   123    1
   149   124   131   am
   150     3     4    2
   151   132   135    1
   152   132   131    1
   153   132   133    1
   154   135   136    1
   155   148   147    1
   156   148   151    1
   157   123   126    1
   158   151   152    1
   159   133   134    2
   160   126   127    1
   161   136   138   ar
   162   136   137   ar
   163   152   153    1
   164   154   153   ar
   165   127   128    1
   166   153   155   ar
   167   129   128    2
   168   128   130   am
   169   146   144   ar
   170   139   140    1
   171   143   144    1
   172   143   140    1
   173   144   145   ar
   174   140   141    1
   175   141   142    2
