@<TRIPOS>MOLECULE
tmp/4k19A00.pdb
 196 191 0 0 0
SMALL
GASTEIGER

@<TRIPOS>ATOM
      1  N         30.4550   86.2800   61.3100 N.3    36  ALA36      -0.1231
      2  CA        31.1010   86.2960   62.6230 C.3    36  ALA36       0.1694
      3  C         32.5070   85.6860   62.6020 C.2    36  ALA36       0.2591
      4  O         33.1150   85.5070   63.6540 O.2    36  ALA36      -0.2718
      5  CB        30.2320   85.5930   63.6530 C.3    36  ALA36       0.0304
      6  N         33.0300   85.3920   61.4140 N.am   37  ILE37      -0.1980
      7  CA        34.3710   84.8320   61.2830 C.3    37  ILE37       0.1595
      8  C         35.3750   85.9090   60.9030 C.2    37  ILE37       0.2287
      9  O         35.1880   86.6160   59.9200 O.2    37  ILE37      -0.2864
     10  CB        34.4420   83.7500   60.1980 C.3    37  ILE37       0.0276
     11  CG1       33.3110   82.7210   60.3620 C.3    37  ILE37       0.0022
     12  CG2       35.8130   83.0910   60.2300 C.3    37  ILE37       0.0022
     13  CD1       33.5190   81.7190   61.4660 C.3    37  ILE37       0.0001
     14  N         39.7650   71.8600   61.7180 N.3    48  TYR48      -0.1241
     15  CA        39.0060   70.9060   62.5040 C.3    48  TYR48       0.1605
     16  C         38.1830   70.0580   61.5500 C.2    48  TYR48       0.2264
     17  O         38.1380   70.3130   60.3460 O.2    48  TYR48      -0.2867
     18  CB        38.1170   71.6180   63.5280 C.3    48  TYR48       0.0534
     19  CG        37.0950   72.5670   62.9310 C.ar   48  TYR48      -0.0201
     20  CD1       37.4080   73.9000   62.6800 C.ar   48  TYR48      -0.0009
     21  CD2       35.8100   72.1350   62.6450 C.ar   48  TYR48      -0.0009
     22  CE1       36.4690   74.7680   62.1420 C.ar   48  TYR48       0.0417
     23  CE2       34.8670   72.9910   62.1230 C.ar   48  TYR48       0.0417
     24  CZ        35.1980   74.3040   61.8650 C.ar   48  TYR48       0.1957
     25  OH        34.2450   75.1380   61.3240 O.3    48  TYR48      -0.2866
     26  N         34.5410   67.6260   60.8690 N.3    50  THR50      -0.1218
     27  CA        33.1450   67.4500   61.2220 C.3    50  THR50       0.1862
     28  C         32.6720   66.1380   60.6330 C.2    50  THR50       0.2287
     29  O         32.7270   65.9430   59.4180 O.2    50  THR50      -0.2866
     30  CB        32.2790   68.5960   60.6780 C.3    50  THR50       0.1770
     31  OG1       32.6910   69.8380   61.2710 O.3    50  THR50      -0.2211
     32  CG2       30.8020   68.3350   60.9620 C.3    50  THR50       0.0375
     33  N         31.6720   67.7230   65.6360 N.3    64  SER64      -0.1217
     34  CA        32.8820   68.4300   65.2130 C.3    64  SER64       0.1889
     35  C         33.9720   68.2300   66.2560 C.2    64  SER64       0.2288
     36  O         33.7010   68.2280   67.4550 O.2    64  SER64      -0.2866
     37  CB        32.6080   69.9180   64.9800 C.3    64  SER64       0.2089
     38  OG        31.9290   70.1300   63.7510 O.3    64  SER64      -0.2183
     39  N         37.7130   69.4910   67.5070 N.3    66  LEU66      -0.1245
     40  CA        38.5900   70.6510   67.4230 C.3    66  LEU66       0.1561
     41  C         39.7520   70.5240   68.4010 C.2    66  LEU66       0.2260
     42  O         39.5480   70.1780   69.5580 O.2    66  LEU66      -0.2867
     43  CB        37.8090   71.9340   67.7480 C.3    66  LEU66       0.0270
     44  CG        36.3700   72.0920   67.2320 C.3    66  LEU66       0.0019
     45  CD1       35.3680   71.4820   68.2030 C.3    66  LEU66       0.0001
     46  CD2       36.0380   73.5660   67.0100 C.3    66  LEU66       0.0001
     47  N         38.1820   68.7770   71.6580 N.3    73  ASP73      -0.1225
     48  CA        36.8690   69.1810   72.1260 C.3    73  ASP73       0.1805
     49  C         35.8290   68.7090   71.1320 C.2    73  ASP73       0.2598
     50  O         36.0450   68.7630   69.9240 O.2    73  ASP73      -0.2718
     51  CB        36.8020   70.7000   72.3090 C.3    73  ASP73       0.1424
     52  CG        37.7940   71.2090   73.3650 C.2    73  ASP73       0.3668
     53  OD1       38.3810   70.4360   74.0820 O.co2  73  ASP73      -0.2456
     54  OD2       37.9180   72.4980   73.4090 O.co2  73  ASP73      -0.2456
     55  N         34.6980   68.2400   71.6420 N.am   74  TYR74      -0.1962
     56  CA        33.6950   67.6250   70.7910 C.3    74  TYR74       0.1771
     57  C         32.4010   68.4280   70.8300 C.2    74  TYR74       0.2619
     58  O         31.7920   68.5650   71.8860 O.2    74  TYR74      -0.2715
     59  CB        33.4760   66.1700   71.2150 C.3    74  TYR74       0.0574
     60  CG        34.7210   65.3260   71.0430 C.ar   74  TYR74      -0.0198
     61  CD1       35.0430   64.7860   69.8110 C.ar   74  TYR74      -0.0009
     62  CD2       35.6030   65.1120   72.0990 C.ar   74  TYR74      -0.0009
     63  CE1       36.2020   64.0440   69.6270 C.ar   74  TYR74       0.0417
     64  CE2       36.7630   64.3500   71.9320 C.ar   74  TYR74       0.0417
     65  CZ        37.0610   63.8280   70.6880 C.ar   74  TYR74       0.1957
     66  OH        38.2060   63.0860   70.4830 O.3    74  TYR74      -0.2866
     67  N         32.0200   68.9910   69.6820 N.am   75  TRP75      -0.1974
     68  CA        30.7570   69.7120   69.5360 C.3    75  TRP75       0.1640
     69  C         29.7340   68.8340   68.8130 C.2    75  TRP75       0.2290
     70  O         29.8620   68.5890   67.6110 O.2    75  TRP75      -0.2864
     71  CB        30.9920   71.0140   68.7710 C.3    75  TRP75       0.0576
     72  CG        29.7890   71.9090   68.6520 C.ar   75  TRP75       0.0006
     73  CD1       29.2040   72.3380   67.4960 C.ar   75  TRP75       0.0946
     74  CD2       29.0290   72.4870   69.7230 C.ar   75  TRP75       0.0152
     75  NE1       28.1440   73.1620   67.7790 N.ar   75  TRP75      -0.2442
     76  CE2       28.0090   73.2630   69.1380 C.ar   75  TRP75       0.0810
     77  CE3       29.1260   72.4400   71.1170 C.ar   75  TRP75       0.0012
     78  CZ2       27.0780   73.9750   69.8980 C.ar   75  TRP75       0.0191
     79  CZ3       28.2080   73.1520   71.8740 C.ar   75  TRP75       0.0001
     80  CH2       27.1930   73.9050   71.2610 C.ar   75  TRP75       0.0015
     81  N         25.7050   67.7690   67.7990 N.3    77  ARG77      -0.1245
     82  CA        24.3570   68.2620   67.5700 C.3    77  ARG77       0.1563
     83  C         23.7400   67.4640   66.4350 C.2    77  ARG77       0.2260
     84  O         24.4450   66.7490   65.7190 O.2    77  ARG77      -0.2867
     85  CB        24.3650   69.7560   67.2330 C.3    77  ARG77       0.0307
     86  CG        24.9840   70.1250   65.8820 C.3    77  ARG77       0.0489
     87  CD        26.5070   70.0810   65.9070 C.3    77  ARG77       0.2205
     88  NE        27.0900   70.8420   64.8030 N.pl3  77  ARG77      -0.0865
     89  CZ        28.3340   70.6970   64.3500 C.cat  77  ARG77       0.5346
     90  NH1       29.1540   69.8090   64.9030 N.pl3  77  ARG77       0.1354
     91  NH2       28.7600   71.4470   63.3370 N.pl3  77  ARG77       0.1354
     92  N         17.9970   72.1380   62.9530 N.3    90  LEU90      -0.1245
     93  CA        18.6930   71.6370   64.1310 C.3    90  LEU90       0.1561
     94  C         17.7070   71.0070   65.1120 C.2    90  LEU90       0.2260
     95  O         16.7060   71.6280   65.4760 O.2    90  LEU90      -0.2867
     96  CB        19.4450   72.7880   64.8020 C.3    90  LEU90       0.0270
     97  CG        20.4440   72.4460   65.9080 C.3    90  LEU90       0.0019
     98  CD1       21.6990   71.7820   65.3390 C.3    90  LEU90       0.0001
     99  CD2       20.8070   73.7000   66.6880 C.3    90  LEU90       0.0001
    100  N         19.7160   74.9230   73.5240 N.3    96  TYR96      -0.1228
    101  CA        20.6860   75.9620   73.2050 C.3    96  TYR96       0.1721
    102  C         20.1330   77.3470   73.5680 C.2    96  TYR96       0.2437
    103  O         19.2370   77.8590   72.9010 O.2    96  TYR96      -0.2733
    104  CB        21.0600   75.8780   71.7260 C.3    96  TYR96       0.0547
    105  CG        21.5670   74.5110   71.3090 C.ar   96  TYR96      -0.0200
    106  CD1       22.8900   74.1500   71.5070 C.ar   96  TYR96      -0.0009
    107  CD2       20.7170   73.5810   70.7250 C.ar   96  TYR96      -0.0009
    108  CE1       23.3550   72.9030   71.1290 C.ar   96  TYR96       0.0417
    109  CE2       21.1690   72.3350   70.3440 C.ar   96  TYR96       0.0417
    110  CZ        22.4900   72.0010   70.5460 C.ar   96  TYR96       0.1957
    111  OH        22.9490   70.7600   70.1700 O.3    96  TYR96      -0.2866
    112  N         20.6440   77.9400   74.6580 N.am   97  PRO97      -0.2729
    113  CA        20.1040   79.2050   75.1530 C.3    97  PRO97       0.1401
    114  C         20.1910   80.3470   74.1400 C.2    97  PRO97       0.2269
    115  O         21.2770   80.6670   73.6510 O.2    97  PRO97      -0.2865
    116  CB        20.9790   79.5090   76.3770 C.3    97  PRO97       0.0296
    117  CG        21.4500   78.1830   76.8410 C.3    97  PRO97       0.0237
    118  CD        21.6260   77.3610   75.5960 C.3    97  PRO97       0.0939
    119  N         18.8720   80.4640   71.1900 N.3    99  LEU99      -0.1245
    120  CA        18.7560   80.0060   69.8180 C.3    99  LEU99       0.1561
    121  C         17.2830   79.9130   69.4660 C.2    99  LEU99       0.2260
    122  O         16.4930   79.3690   70.2340 O.2    99  LEU99      -0.2867
    123  CB        19.4450   78.6530   69.6510 C.3    99  LEU99       0.0270
    124  CG        19.8010   78.2440   68.2250 C.3    99  LEU99       0.0019
    125  CD1       20.7500   79.2410   67.5910 C.3    99  LEU99       0.0001
    126  CD2       20.4140   76.8570   68.2310 C.3    99  LEU99       0.0001
    127  N         17.8210   77.7550   63.0930 N.3   102  TYR102     -0.1241
    128  CA        19.0410   77.1920   62.5430 C.3   102  TYR102      0.1605
    129  C         18.7530   76.4920   61.2220 C.2   102  TYR102      0.2264
    130  O         17.8920   75.6190   61.1580 O.2   102  TYR102     -0.2867
    131  CB        19.6630   76.2010   63.5250 C.3   102  TYR102      0.0534
    132  CG        21.1300   75.9340   63.2670 C.ar  102  TYR102     -0.0201
    133  CD1       21.5300   75.0040   62.3130 C.ar  102  TYR102     -0.0009
    134  CD2       22.1140   76.6200   63.9710 C.ar  102  TYR102     -0.0009
    135  CE1       22.8710   74.7610   62.0670 C.ar  102  TYR102      0.0417
    136  CE2       23.4560   76.3770   63.7430 C.ar  102  TYR102      0.0417
    137  CZ        23.8260   75.4490   62.7830 C.ar  102  TYR102      0.1957
    138  OH        25.1510   75.2020   62.5460 O.3   102  TYR102     -0.2866
    139  N         25.4000   77.7240   56.4730 N.3   119  PHE119     -0.1241
    140  CA        24.6850   77.6840   57.7470 C.3   119  PHE119      0.1605
    141  C         24.1220   79.0570   58.0980 C.2   119  PHE119      0.2264
    142  O         24.7870   80.0770   57.9010 O.2   119  PHE119     -0.2867
    143  CB        25.6130   77.2400   58.8760 C.3   119  PHE119      0.0534
    144  CG        26.3280   75.9500   58.6120 C.ar  119  PHE119     -0.0203
    145  CD1       27.4660   75.9230   57.8210 C.ar  119  PHE119     -0.0042
    146  CD2       25.8890   74.7700   59.1860 C.ar  119  PHE119     -0.0042
    147  CE1       28.1300   74.7340   57.5830 C.ar  119  PHE119     -0.0003
    148  CE2       26.5610   73.5780   58.9680 C.ar  119  PHE119     -0.0003
    149  CZ        27.6790   73.5610   58.1680 C.ar  119  PHE119     -0.0000
    150  N         21.9900   80.8430   61.4150 N.3   121  LYS121     -0.1245
    151  CA        21.3850   80.7000   62.7310 C.3   121  LYS121      0.1561
    152  C         20.9550   82.0370   63.3200 C.2   121  LYS121      0.2260
    153  O         21.5990   83.0590   63.0920 O.2   121  LYS121     -0.2867
    154  CB        22.3490   79.9890   63.6790 C.3   121  LYS121      0.0271
    155  CG        23.5280   80.8120   64.1370 C.3   121  LYS121      0.0035
    156  CD        24.3340   80.0500   65.1680 C.3   121  LYS121      0.0206
    157  CE        25.5840   80.8120   65.5660 C.3   121  LYS121      0.1093
    158  NZ        26.3150   80.1260   66.6600 N.3   121  LYS121     -0.1314
    159  N         20.5890   83.4710   66.9320 N.3   123  SER123     -0.1217
    160  CA        20.8440   83.2850   68.3530 C.3   123  SER123      0.1889
    161  C         20.8490   84.6600   68.9780 C.2   123  SER123      0.2288
    162  O         21.4550   85.5890   68.4350 O.2   123  SER123     -0.2866
    163  CB        22.2010   82.6280   68.5990 C.3   123  SER123      0.2089
    164  OG        22.5080   82.4730   69.8930 O.3   123  SER123     -0.2183
    165  N         23.3490   85.1100   62.2950 N.3   128  TYR128     -0.1227
    166  CA        24.6840   84.7030   61.8700 C.3   128  TYR128      0.1736
    167  C         24.6090   83.7470   60.6890 C.2   128  TYR128      0.2595
    168  O         23.7180   82.9050   60.6150 O.2   128  TYR128     -0.2718
    169  CB        25.4130   83.9970   63.0010 C.3   128  TYR128      0.0548
    170  CG        25.5340   84.7890   64.2750 C.ar  128  TYR128     -0.0200
    171  CD1       26.5100   85.7660   64.4250 C.ar  128  TYR128     -0.0009
    172  CD2       24.7180   84.5080   65.3590 C.ar  128  TYR128     -0.0009
    173  CE1       26.6400   86.4680   65.6110 C.ar  128  TYR128      0.0417
    174  CE2       24.8440   85.1970   66.5410 C.ar  128  TYR128      0.0417
    175  CZ        25.7980   86.1750   66.6630 C.ar  128  TYR128      0.1957
    176  OH        25.9110   86.8430   67.8600 O.3   128  TYR128     -0.2866
    177  N         25.5470   83.8780   59.7620 N.am  129  PHE129     -0.1962
    178  CA        25.6780   82.8920   58.6970 C.3   129  PHE129      0.1771
    179  C         27.1400   82.5490   58.4510 C.2   129  PHE129      0.2619
    180  O         28.0380   83.3570   58.7140 O.2   129  PHE129     -0.2715
    181  CB        24.9870   83.3560   57.4080 C.3   129  PHE129      0.0574
    182  CG        25.7900   84.3230   56.5760 C.ar  129  PHE129     -0.0200
    183  CD1       25.7440   85.6870   56.8290 C.ar  129  PHE129     -0.0042
    184  CD2       26.5170   83.8800   55.4850 C.ar  129  PHE129     -0.0042
    185  CE1       26.4440   86.5860   56.0440 C.ar  129  PHE129     -0.0003
    186  CE2       27.2170   84.7690   54.6950 C.ar  129  PHE129     -0.0003
    187  CZ        27.1830   86.1260   54.9770 C.ar  129  PHE129     -0.0000
    188  N         27.3730   81.3210   58.0000 N.am  130  LYS130     -0.1977
    189  CA        28.7080   80.9300   57.5790 C.3   130  LYS130      0.1596
    190  C         28.6560   79.9170   56.4450 C.2   130  LYS130      0.2287
    191  O         27.6830   79.1810   56.2990 O.2   130  LYS130     -0.2864
    192  CB        29.5070   80.3800   58.7610 C.3   130  LYS130      0.0298
    193  CG        28.9600   79.0930   59.3620 C.3   130  LYS130      0.0038
    194  CD        29.9690   78.4760   60.3200 C.3   130  LYS130      0.0206
    195  CE        29.4440   77.1990   60.9490 C.3   130  LYS130      0.1093
    196  NZ        30.3920   76.6810   61.9720 N.3   130  LYS130     -0.1314
@<TRIPOS>BOND
     1   186   187   ar
     2   186   184   ar
     3   187   185   ar
     4   184   182   ar
     5   185   183   ar
     6   191   190    2
     7   190   189    1
     8   139   140    1
     9   182   183   ar
    10   182   181    1
    11   181   178    1
    12   189   188    1
    13   189   192    1
    14   147   145   ar
    15   147   149   ar
    16   140   141    1
    17   140   143    1
    18   145   144   ar
    19   142   141    2
    20   188   179   am
    21   149   148   ar
    22   179   178    1
    23   179   180    2
    24   144   143    1
    25   144   146   ar
    26   178   177    1
    27   192   193    1
    28   148   146   ar
    29   193   194    1
    30    29    28    2
    31   177   167   am
    32     9     8    2
    33    10    12    1
    34    10    11    1
    35    10     7    1
    36   194   195    1
    37    17    16    2
    38    11    13    1
    39   168   167    2
    40    28    27    1
    41    30    32    1
    42    30    27    1
    43    30    31    1
    44   167   166    1
    45    26    27    1
    46     8     7    1
    47   195   196    1
    48   130   129    2
    49   129   128    1
    50     7     6    1
    51     1     2    1
    52    25    24    1
    53     6     3   am
    54   150   151    1
    55    16    15    1
    56    14    15    1
    57    24    23   ar
    58    24    22   ar
    59   166   165    1
    60   166   169    1
    61   135   133   ar
    62   135   137   ar
    63    23    21   ar
    64    22    20   ar
    65   133   132   ar
    66    15    18    1
    67   128   127    1
    68   128   131    1
    69   138   137    1
    70     3     2    1
    71     3     4    2
    72     2     5    1
    73    21    19   ar
    74    20    19   ar
    75   151   152    1
    76   151   154    1
    77   137   136   ar
    78    19    18    1
    79    92    93    1
    80   169   170    1
    81   153   152    2
    82   132   131    1
    83   132   134   ar
    84    91    89    1
    85   154   155    1
    86   136   134   ar
    87    38    37    1
    88    93    96    1
    89    93    94    1
    90   155   156    1
    91   170   171   ar
    92   170   172   ar
    93    89    88    2
    94    89    90    1
    95   171   173   ar
    96    96    97    1
    97    88    87    1
    98    37    34    1
    99    94    95    2
   100   156   157    1
   101    34    33    1
   102    34    35    1
   103    98    97    1
   104   172   174   ar
   105   157   158    1
   106   173   175   ar
   107    84    83    2
   108    86    87    1
   109    86    85    1
   110    97    99    1
   111    35    36    2
   112    83    82    1
   113   174   175   ar
   114   175   176    1
   115   159   160    1
   116    46    44    1
   117    44    43    1
   118    44    45    1
   119    85    82    1
   120    40    39    1
   121    40    43    1
   122    40    41    1
   123    73    75   ar
   124    73    72   ar
   125    82    81    1
   126   125   124    1
   127    70    69    2
   128    75    76   ar
   129   124   126    1
   130   124   123    1
   131   160   163    1
   132   160   161    1
   133    41    42    2
   134   162   161    2
   135   163   164    1
   136    72    71    1
   137    72    74   ar
   138    71    68    1
   139    69    68    1
   140    76    74   ar
   141    76    78   ar
   142   121   120    1
   143   121   122    2
   144    68    67    1
   145    63    61   ar
   146    63    65   ar
   147   123   120    1
   148    67    57   am
   149    74    77   ar
   150    61    60   ar
   151   120   119    1
   152    78    80   ar
   153    50    49    2
   154   111   110    1
   155   109   110   ar
   156   109   107   ar
   157    66    65    1
   158   110   108   ar
   159    65    64   ar
   160   107   105   ar
   161    56    57    1
   162    56    59    1
   163    56    55    1
   164    57    58    2
   165    60    59    1
   166    60    62   ar
   167    77    79   ar
   168   108   106   ar
   169    49    55   am
   170    49    48    1
   171    80    79   ar
   172   105   106   ar
   173   105   104    1
   174    47    48    1
   175   104   101    1
   176    64    62   ar
   177    48    51    1
   178    51    52    1
   179   103   102    2
   180   101   100    1
   181   101   102    1
   182    52    54   ar
   183    52    53   ar
   184   102   112   am
   185   115   114    2
   186   114   113    1
   187   112   113    1
   188   112   118    1
   189   113   116    1
   190   118   117    1
   191   116   117    1
