@<TRIPOS>MOLECULE
tmp/4k1bA00.pdb
 191 179 0 0 0
SMALL
GASTEIGER

@<TRIPOS>ATOM
      1  N        -41.7840    4.9420    1.9300 N.3    12  LEU12      -0.1231
      2  CA       -42.3900    3.6710    2.3130 C.3    12  LEU12       0.1693
      3  C        -41.4090    2.8050    3.0900 C.2    12  LEU12       0.2593
      4  O        -41.7660    2.1750    4.0860 O.2    12  LEU12      -0.2718
      5  CB       -42.8800    2.9170    1.0750 C.3    12  LEU12       0.0284
      6  CG       -44.1090    3.4880    0.3640 C.3    12  LEU12       0.0019
      7  CD1      -44.4410    2.6600   -0.8640 C.3    12  LEU12       0.0001
      8  CD2      -45.2990    3.5460    1.3110 C.3    12  LEU12       0.0001
      9  N        -40.1670    2.7790    2.6230 N.am   13  GLY13      -0.1942
     10  CA       -39.1370    1.9750    3.2470 C.3    13  GLY13       0.2014
     11  C        -37.7650    2.3740    2.7500 C.2    13  GLY13       0.2640
     12  O        -37.6340    3.0450    1.7240 O.2    13  GLY13      -0.2714
     13  N        -36.7380    1.9600    3.4790 N.am   14  SER14      -0.1935
     14  CA       -35.3800    2.3420    3.1350 C.3    14  SER14       0.2055
     15  C        -34.3340    1.3560    3.6200 C.2    14  SER14       0.2643
     16  O        -34.4670    0.7470    4.6800 O.2    14  SER14      -0.2714
     17  CB       -35.0580    3.7230    3.7010 C.3    14  SER14       0.2130
     18  OG       -33.6570    3.8960    3.8020 O.3    14  SER14      -0.2179
     19  N        -33.2860    1.2180    2.8230 N.am   15  GLY15      -0.1954
     20  CA       -32.1040    0.4750    3.2070 C.3    15  GLY15       0.1869
     21  C        -30.9510    1.0930    2.4460 C.2    15  GLY15       0.2309
     22  O        -31.1370    2.0900    1.7470 O.2    15  GLY15      -0.2863
     23  N        -29.7430   -0.4710    0.2620 N.3    17  PHE17      -0.1227
     24  CA       -30.3260   -0.9260   -0.9840 C.3    17  PHE17       0.1740
     25  C        -31.0010    0.2190   -1.7340 C.2    17  PHE17       0.2635
     26  O        -30.8200    0.3700   -2.9420 O.2    17  PHE17      -0.2714
     27  CB       -31.3440   -2.0320   -0.6940 C.3    17  PHE17       0.0548
     28  CG       -30.7660   -3.3430   -0.1320 C.ar   17  PHE17      -0.0202
     29  CD1      -29.4430   -3.6620   -0.3530 C.ar   17  PHE17      -0.0042
     30  CD2      -31.6210   -4.2080    0.5480 C.ar   17  PHE17      -0.0042
     31  CE1      -28.9890   -4.8730    0.1280 C.ar   17  PHE17      -0.0003
     32  CE2      -31.1540   -5.4110    1.0180 C.ar   17  PHE17      -0.0003
     33  CZ       -29.8250   -5.7310    0.7960 C.ar   17  PHE17      -0.0000
     34  N        -31.7820    1.0270   -1.0240 N.am   18  GLY18      -0.1732
     35  CA       -32.4630    2.1330   -1.6680 C.2    18  GLY18       0.1340
     36  C        -33.5870    2.7510   -0.8640 C.2    18  GLY18       0.2521
     37  O        -33.9190    2.2980    0.2290 O.2    18  GLY18      -0.2816
     38  N        -37.6250    4.0260   -1.1530 N.3    20  VAL20      -0.1245
     39  CA       -38.8250    3.8100   -1.9480 C.3    20  VAL20       0.1561
     40  C        -39.9610    4.6950   -1.4650 C.2    20  VAL20       0.2260
     41  O        -40.3560    4.6320   -0.3030 O.2    20  VAL20      -0.2867
     42  CB       -39.2740    2.3390   -1.9000 C.3    20  VAL20       0.0252
     43  CG1      -40.4420    2.1210   -2.8490 C.3    20  VAL20       0.0019
     44  CG2      -38.1170    1.4220   -2.2570 C.3    20  VAL20       0.0019
     45  N        -44.8520    3.0190   -7.0040 N.3    33  ALA33      -0.1245
     46  CA       -43.7920    3.1470   -6.0200 C.3    33  ALA33       0.1562
     47  C        -42.5580    3.6710   -6.7350 C.2    33  ALA33       0.2260
     48  O        -42.2270    3.2200   -7.8300 O.2    33  ALA33      -0.2867
     49  CB       -43.5020    1.8060   -5.3540 C.3    33  ALA33       0.0290
     50  N        -38.6300    4.0230   -6.5760 N.3    35  LYS35      -0.1245
     51  CA       -37.4090    3.5620   -5.9320 C.3    35  LYS35       0.1561
     52  C        -36.1730    4.2870   -6.4500 C.2    35  LYS35       0.2260
     53  O        -35.9040    4.3110   -7.6550 O.2    35  LYS35      -0.2867
     54  CB       -37.2400    2.0480   -6.1070 C.3    35  LYS35       0.0271
     55  CG       -35.9850    1.4940   -5.4430 C.3    35  LYS35       0.0035
     56  CD       -35.8460   -0.0090   -5.6500 C.3    35  LYS35       0.0206
     57  CE       -34.5210   -0.5120   -5.0930 C.3    35  LYS35       0.1093
     58  NZ       -34.3520   -1.9810   -5.2710 N.3    35  LYS35      -0.1314
     59  N        -30.4450   -4.7780  -11.7660 N.3    57  GLU57      -0.1245
     60  CA       -31.8330   -4.7770  -11.3180 C.3    57  GLU57       0.1567
     61  C        -32.7880   -4.3330  -12.4240 C.2    57  GLU57       0.2260
     62  O        -33.8570   -4.9170  -12.6020 O.2    57  GLU57      -0.2867
     63  CB       -31.9990   -3.8740  -10.0940 C.3    57  GLU57       0.0388
     64  CG       -33.4060   -3.8850   -9.5050 C.3    57  GLU57       0.1160
     65  CD       -33.5330   -3.0440   -8.2440 C.2    57  GLU57       0.3649
     66  OE1      -32.5190   -2.4630   -7.8040 O.co2  57  GLU57      -0.2457
     67  OE2      -34.6510   -2.9690   -7.6920 O.co2  57  GLU57      -0.2457
     68  N        -35.5850   -6.6280  -14.1840 N.3    61  LEU61      -0.1245
     69  CA       -36.9690   -6.1690  -14.0910 C.3    61  LEU61       0.1561
     70  C        -37.6340   -6.0910  -15.4620 C.2    61  LEU61       0.2260
     71  O        -38.7790   -6.5110  -15.6330 O.2    61  LEU61      -0.2867
     72  CB       -37.0550   -4.8230  -13.3650 C.3    61  LEU61       0.0270
     73  CG       -37.0480   -4.8910  -11.8330 C.3    61  LEU61       0.0019
     74  CD1      -36.8020   -3.5180  -11.2290 C.3    61  LEU61       0.0001
     75  CD2      -38.3520   -5.4740  -11.3130 C.3    61  LEU61       0.0001
     76  N        -44.0850   -7.6020   -9.3350 N.3    72  ILE72      -0.1245
     77  CA       -44.2980   -6.1650   -9.4600 C.3    72  ILE72       0.1561
     78  C        -43.5640   -5.6800  -10.7030 C.2    72  ILE72       0.2260
     79  O        -42.3640   -5.9080  -10.8490 O.2    72  ILE72      -0.2867
     80  CB       -43.8140   -5.4100   -8.2230 C.3    72  ILE72       0.0252
     81  CG1      -44.7950   -5.6340   -7.0760 C.3    72  ILE72       0.0019
     82  CG2      -43.7220   -3.9140   -8.5050 C.3    72  ILE72       0.0019
     83  CD1      -46.1130   -4.8980   -7.2610 C.3    72  ILE72       0.0001
     84  N        -42.3690    1.7030  -10.1960 N.3    88  LEU88      -0.1231
     85  CA       -42.9080    0.3570  -10.0730 C.3    88  LEU88       0.1693
     86  C        -44.4000    0.3850   -9.7700 C.2    88  LEU88       0.2592
     87  O        -44.9200    1.3920   -9.2950 O.2    88  LEU88      -0.2718
     88  CB       -42.1590   -0.3880   -8.9680 C.3    88  LEU88       0.0284
     89  CG       -40.6450   -0.4860   -9.2010 C.3    88  LEU88       0.0019
     90  CD1      -39.8780   -0.4080   -7.8920 C.3    88  LEU88       0.0001
     91  CD2      -40.3100   -1.7700   -9.9470 C.3    88  LEU88       0.0001
     92  N        -45.0880   -0.7190  -10.0540 N.am   89  GLU89      -0.1966
     93  CA       -46.4980   -0.8510   -9.7020 C.3    89  GLU89       0.1733
     94  C        -46.6560   -0.7450   -8.1960 C.2    89  GLU89       0.2616
     95  O        -45.7760   -1.1660   -7.4430 O.2    89  GLU89      -0.2715
     96  CB       -47.0410   -2.2130  -10.1360 C.3    89  GLU89       0.0429
     97  CG       -47.0650   -2.4810  -11.6250 C.3    89  GLU89       0.1163
     98  CD       -47.7340   -3.8100  -11.9410 C.2    89  GLU89       0.3649
     99  OE1      -47.1460   -4.8710  -11.6320 O.co2  89  GLU89      -0.2457
    100  OE2      -48.8590   -3.7880  -12.4830 O.co2  89  GLU89      -0.2457
    101  N        -47.7750   -0.1870   -7.7530 N.am   90  ARG90      -0.1964
    102  CA       -48.1070   -0.2140   -6.3340 C.3    90  ARG90       0.1714
    103  C        -49.5410   -0.6720   -6.1040 C.2    90  ARG90       0.2458
    104  O        -50.4850    0.0720   -6.3690 O.2    90  ARG90      -0.2730
    105  CB       -47.8790    1.1460   -5.6680 C.3    90  ARG90       0.0347
    106  CG       -48.3710    1.1840   -4.2280 C.3    90  ARG90       0.0492
    107  CD       -47.8690    2.4030   -3.4710 C.3    90  ARG90       0.2205
    108  NE       -48.3610    3.6620   -4.0250 N.pl3  90  ARG90      -0.0865
    109  CZ       -49.5490    4.1890   -3.7470 C.cat  90  ARG90       0.5346
    110  NH1      -49.9060    5.3450   -4.2910 N.pl3  90  ARG90       0.1354
    111  NH2      -50.3840    3.5590   -2.9290 N.pl3  90  ARG90       0.1354
    112  N        -49.7040   -1.9080   -5.6150 N.am   91  PRO91      -0.2727
    113  CA       -51.0250   -2.4140   -5.2390 C.3    91  PRO91       0.1402
    114  C        -51.5550   -1.6280   -4.0510 C.2    91  PRO91       0.2269
    115  O        -50.7690   -1.1020   -3.2620 O.2    91  PRO91      -0.2865
    116  CB       -50.7450   -3.8620   -4.8210 C.3    91  PRO91       0.0296
    117  CG       -49.4110   -4.2000   -5.4290 C.3    91  PRO91       0.0237
    118  CD       -48.6480   -2.9150   -5.4220 C.3    91  PRO91       0.0939
    119  N        -52.1900   -2.9150    0.3630 N.3    94  VAL94      -0.1231
    120  CA       -51.1080   -3.8820    0.2910 C.3    94  VAL94       0.1692
    121  C        -50.4840   -4.0920    1.6690 C.2    94  VAL94       0.2592
    122  O        -50.5440   -3.2150    2.5320 O.2    94  VAL94      -0.2718
    123  CB       -50.0240   -3.4190   -0.7260 C.3    94  VAL94       0.0266
    124  CG1      -49.3000   -2.1810   -0.2110 C.3    94  VAL94       0.0020
    125  CG2      -49.0340   -4.5380   -1.0370 C.3    94  VAL94       0.0020
    126  N        -49.9220   -5.2770    1.8780 N.am   95  GLN95      -0.1966
    127  CA       -49.1110   -5.5650    3.0500 C.3    95  GLN95       0.1733
    128  C        -48.1010   -6.6250    2.6350 C.2    95  GLN95       0.2616
    129  O        -48.4480   -7.5480    1.8950 O.2    95  GLN95      -0.2715
    130  CB       -49.9840   -6.0800    4.1930 C.3    95  GLN95       0.0408
    131  CG       -49.2220   -6.3320    5.4800 C.3    95  GLN95       0.0908
    132  CD       -50.1170   -6.8300    6.5950 C.2    95  GLN95       0.2608
    133  OE1      -51.0180   -7.6380    6.3670 O.2    95  GLN95      -0.2717
    134  NE2      -49.8820   -6.3420    7.8100 N.am   95  GLN95      -0.0878
    135  N        -46.8510   -6.4950    3.0760 N.am   96  ASP96      -0.1971
    136  CA       -45.8660   -7.5160    2.7320 C.3    96  ASP96       0.1709
    137  C        -46.1110   -8.7870    3.5420 C.2    96  ASP96       0.2293
    138  O        -46.8060   -8.7540    4.5590 O.2    96  ASP96      -0.2864
    139  CB       -44.4080   -7.0110    2.8200 C.3    96  ASP96       0.1436
    140  CG       -43.8630   -6.9260    4.2520 C.2    96  ASP96       0.3671
    141  OD1      -44.5180   -7.3390    5.2250 O.co2  96  ASP96      -0.2456
    142  OD2      -42.7270   -6.4410    4.3960 O.co2  96  ASP96      -0.2456
    143  N        -44.8700   -8.7670    7.4250 N.3    99  ASP99      -0.1239
    144  CA       -45.7730   -8.1020    8.3620 C.3    99  ASP99       0.1674
    145  C        -47.0520   -8.9060    8.5610 C.2    99  ASP99       0.2266
    146  O        -47.6040   -8.9550    9.6620 O.2    99  ASP99      -0.2867
    147  CB       -46.1330   -6.6940    7.8750 C.3    99  ASP99       0.1410
    148  CG       -44.9700   -5.7310    7.9630 C.2    99  ASP99       0.3668
    149  OD1      -43.9810   -6.0590    8.6530 O.co2  99  ASP99      -0.2456
    150  OD2      -45.0490   -4.6440    7.3530 O.co2  99  ASP99      -0.2456
    151  N        -40.2740  -10.7230    3.2460 N.3   139  GLU139     -0.1231
    152  CA       -40.1160   -9.2770    3.0810 C.3   139  GLU139      0.1699
    153  C        -40.1500   -8.8580    1.6170 C.2   139  GLU139      0.2592
    154  O        -40.4090   -7.6930    1.3000 O.2   139  GLU139     -0.2718
    155  CB       -38.7920   -8.8060    3.6800 C.3   139  GLU139      0.0402
    156  CG       -38.6860   -8.9340    5.1820 C.3   139  GLU139      0.1161
    157  CD       -37.3050   -8.5610    5.6790 C.2   139  GLU139      0.3649
    158  OE1      -37.1270   -7.4130    6.1400 O.co2 139  GLU139     -0.2457
    159  OE2      -36.3970   -9.4160    5.6000 O.co2 139  GLU139     -0.2457
    160  N        -39.8840   -9.7940    0.7230 N.am  140  ASN140     -0.1974
    161  CA       -39.8510   -9.5290   -0.7000 C.3   140  ASN140      0.1688
    162  C        -41.0910   -9.9690   -1.4560 C.2   140  ASN140      0.2292
    163  O        -41.0660  -10.1090   -2.6430 O.2   140  ASN140     -0.2864
    164  CB       -38.5750  -10.0570   -1.3260 C.3   140  ASN140      0.1181
    165  CG       -37.3730   -9.2700   -0.9100 C.2   140  ASN140      0.2629
    166  OD1      -37.4780   -8.1150   -0.6490 O.2   140  ASN140     -0.2716
    167  ND2      -36.2490   -9.8980   -0.8490 N.am  140  ASN140     -0.0877
    168  N        -45.2280   -8.9920   -1.7610 N.3   142  LEU142     -0.1245
    169  CA       -46.3750   -8.1580   -1.4150 C.3   142  LEU142      0.1561
    170  C        -47.6890   -8.9070   -1.6170 C.2   142  LEU142      0.2260
    171  O        -47.8320   -9.7000   -2.5540 O.2   142  LEU142     -0.2867
    172  CB       -46.3920   -6.8810   -2.2590 C.3   142  LEU142      0.0270
    173  CG       -45.1180   -6.0390   -2.2520 C.3   142  LEU142      0.0019
    174  CD1      -45.3000   -4.8300   -3.1530 C.3   142  LEU142      0.0001
    175  CD2      -44.7690   -5.6170   -0.8320 C.3   142  LEU142      0.0001
    176  N        -41.0160   -8.7950   -5.3380 N.3   153  ILE153     -0.1231
    177  CA       -40.3010   -7.5320   -5.4200 C.3   153  ILE153      0.1692
    178  C        -38.8270   -7.6630   -5.1140 C.2   153  ILE153      0.2592
    179  O        -38.4180   -8.6520   -4.5800 O.2   153  ILE153     -0.2718
    180  CB       -40.8840   -6.4670   -4.4860 C.3   153  ILE153      0.0266
    181  CG1      -40.7340   -6.8760   -3.0300 C.3   153  ILE153      0.0019
    182  CG2      -42.3290   -6.2050   -4.8040 C.3   153  ILE153      0.0020
    183  CD1      -40.9950   -5.7620   -2.0640 C.3   153  ILE153      0.0001
    184  N        -38.0610   -6.6380   -5.4660 N.am  154  ASP154     -0.1974
    185  CA       -36.6490   -6.5100   -5.1190 C.3   154  ASP154      0.1709
    186  C        -35.7130   -7.4830   -5.8320 C.2   154  ASP154      0.2293
    187  O        -35.2820   -8.4740   -5.2630 O.2   154  ASP154     -0.2864
    188  CB       -36.4530   -6.5860   -3.6020 C.3   154  ASP154      0.1436
    189  CG       -35.1030   -6.0530   -3.1590 C.2   154  ASP154      0.3671
    190  OD1      -34.2570   -5.7600   -4.0260 O.co2 154  ASP154     -0.2456
    191  OD2      -34.8890   -5.9280   -1.9370 O.co2 154  ASP154     -0.2456
@<TRIPOS>BOND
     1    71    70    2
     2    70    69    1
     3    68    69    1
     4    69    72    1
     5    72    73    1
     6    62    61    2
     7   100    98   ar
     8    61    60    1
     9    98    99   ar
    10    98    97    1
    11    73    75    1
    12    73    74    1
    13    59    60    1
    14    97    96    1
    15    60    63    1
    16    79    78    2
    17    78    77    1
    18    84    85    1
    19    96    93    1
    20    63    64    1
    21    85    86    1
    22    85    88    1
    23    92    86   am
    24    92    93    1
    25    91    89    1
    26    86    87    2
    27    93    94    1
    28    64    65    1
    29    77    76    1
    30    77    80    1
    31    89    88    1
    32    89    90    1
    33    82    80    1
    34    65    66   ar
    35    65    67   ar
    36    80    81    1
    37    94   101   am
    38    94    95    2
    39    48    47    2
    40   101   102    1
    41    53    52    2
    42    83    81    1
    43    45    46    1
    44    47    46    1
    45    50    51    1
    46    52    51    1
    47   104   103    2
    48   102   103    1
    49   102   105    1
    50    54    51    1
    51    54    55    1
    52   103   112   am
    53    46    49    1
    54   186   187    2
    55   186   185    1
    56   105   106    1
    57    56    55    1
    58    56    57    1
    59   112   118    1
    60   112   113    1
    61   184   185    1
    62   184   178   am
    63   117   118    1
    64   117   116    1
    65   177   176    1
    66   177   178    1
    67   177   180    1
    68    58    57    1
    69   113   116    1
    70   113   114    1
    71   185   188    1
    72   178   179    2
    73   182   180    1
    74   180   181    1
    75   110   109    1
    76   106   107    1
    77   114   115    2
    78   190   189   ar
    79   108   109    2
    80   108   107    1
    81   109   111    1
    82   188   189    1
    83   189   191   ar
    84   174   173    1
    85   181   183    1
    86    26    25    2
    87    43    42    1
    88   163   162    2
    89   171   170    2
    90   172   173    1
    91   172   169    1
    92    44    42    1
    93   173   175    1
    94    39    42    1
    95    39    40    1
    96    39    38    1
    97   168   169    1
    98    25    34    1
    99    25    24    1
   100    35    34    2
   101    35    36    1
   102   170   169    1
   103    40    41    2
   104   162   161    1
   105   164   165    1
   106   164   161    1
   107   125   123    1
   108    24    27    1
   109    24    23    1
   110   165   167   am
   111   165   166    2
   112    36    37    2
   113     7     6    1
   114   123   124    1
   115   123   120    1
   116   161   160    1
   117    27    28    1
   118    29    28   ar
   119    29    31   ar
   120    28    30   ar
   121    31    33   ar
   122   120   119    1
   123   120   121    1
   124     6     5    1
   125     6     8    1
   126    30    32   ar
   127   160   153   am
   128    33    32   ar
   129     5     2    1
   130   154   153    2
   131   153   152    1
   132   121   126   am
   133   121   122    2
   134    12    11    2
   135    22    21    2
   136   126   127    1
   137   129   128    2
   138     1     2    1
   139     2     3    1
   140    21    20    1
   141     9     3   am
   142     9    10    1
   143   128   127    1
   144   128   135   am
   145   136   139    1
   146   136   135    1
   147   136   137    1
   148    11    10    1
   149    11    13   am
   150   139   140    1
   151    19    20    1
   152    19    15   am
   153   127   130    1
   154   152   151    1
   155   152   155    1
   156     3     4    2
   157    14    13    1
   158    14    15    1
   159    14    17    1
   160   137   138    2
   161    15    16    2
   162   155   156    1
   163    17    18    1
   164   130   131    1
   165   140   142   ar
   166   140   141   ar
   167   156   157    1
   168   131   132    1
   169   159   157   ar
   170   157   158   ar
   171   133   132    2
   172   132   134   am
   173   150   148   ar
   174   143   144    1
   175   147   148    1
   176   147   144    1
   177   148   149   ar
   178   144   145    1
   179   145   146    2
