@<TRIPOS>MOLECULE
tmp/4k1cA05.pdb
 100 98 0 0 0
SMALL
GASTEIGER

@<TRIPOS>ATOM
      1  N         32.8570  -14.4520  -31.7190 N.3    21  PHE21      -0.1227
      2  CA        31.5680  -14.6010  -31.0490 C.3    21  PHE21       0.1736
      3  C         31.6930  -14.5860  -29.5260 C.2    21  PHE21       0.2595
      4  O         30.7010  -14.4160  -28.8190 O.2    21  PHE21      -0.2718
      5  CB        30.8480  -15.8720  -31.5150 C.3    21  PHE21       0.0547
      6  CG        31.6200  -17.1400  -31.2660 C.ar   21  PHE21      -0.0202
      7  CD1       31.4830  -17.8290  -30.0720 C.ar   21  PHE21      -0.0042
      8  CD2       32.4710  -17.6490  -32.2330 C.ar   21  PHE21      -0.0042
      9  CE1       32.1860  -18.9960  -29.8420 C.ar   21  PHE21      -0.0003
     10  CE2       33.1770  -18.8160  -32.0100 C.ar   21  PHE21      -0.0003
     11  CZ        33.0340  -19.4900  -30.8120 C.ar   21  PHE21      -0.0000
     12  N         32.9120  -14.7650  -29.0250 N.am   22  LEU22      -0.1980
     13  CA        33.1520  -14.7360  -27.5870 C.3    22  LEU22       0.1596
     14  C         33.3030  -13.3050  -27.0770 C.2    22  LEU22       0.2287
     15  O         33.5100  -13.0870  -25.8830 O.2    22  LEU22      -0.2864
     16  CB        34.3920  -15.5580  -27.2230 C.3    22  LEU22       0.0297
     17  CG        34.3790  -17.0580  -27.5160 C.3    22  LEU22       0.0022
     18  CD1       35.7680  -17.6500  -27.3170 C.3    22  LEU22       0.0001
     19  CD2       33.3630  -17.7660  -26.6360 C.3    22  LEU22       0.0001
     20  N         31.3650  -11.9130  -24.1270 N.3    25  PHE25      -0.1241
     21  CA        31.8190  -12.0920  -22.7530 C.3    25  PHE25       0.1605
     22  C         32.6670  -10.9220  -22.2690 C.2    25  PHE25       0.2264
     23  O         32.9940  -10.8360  -21.0860 O.2    25  PHE25      -0.2867
     24  CB        32.5800  -13.4120  -22.5950 C.3    25  PHE25       0.0534
     25  CG        31.7050  -14.6270  -22.7180 C.ar   25  PHE25      -0.0203
     26  CD1       30.9120  -15.0320  -21.6580 C.ar   25  PHE25      -0.0042
     27  CD2       31.6680  -15.3580  -23.8950 C.ar   25  PHE25      -0.0042
     28  CE1       30.0980  -16.1450  -21.7670 C.ar   25  PHE25      -0.0003
     29  CE2       30.8610  -16.4700  -24.0110 C.ar   25  PHE25      -0.0003
     30  CZ        30.0740  -16.8650  -22.9460 C.ar   25  PHE25      -0.0000
     31  N         31.1890   -8.2970  -14.3270 N.3    32  TRP32      -0.1241
     32  CA        31.4610   -9.2100  -13.2200 C.3    32  TRP32       0.1605
     33  C         32.6790   -8.7860  -12.4110 C.2    32  TRP32       0.2264
     34  O         32.6580   -8.8250  -11.1820 O.2    32  TRP32      -0.2867
     35  CB        31.6580  -10.6360  -13.7400 C.3    32  TRP32       0.0550
     36  CG        30.6490  -11.6000  -13.2160 C.ar   32  TRP32       0.0003
     37  CD1       30.8240  -12.5080  -12.2130 C.ar   32  TRP32       0.0946
     38  CD2       29.2970  -11.7490  -13.6620 C.ar   32  TRP32       0.0152
     39  NE1       29.6640  -13.2160  -12.0080 N.ar   32  TRP32      -0.2442
     40  CE2       28.7110  -12.7690  -12.8870 C.ar   32  TRP32       0.0810
     41  CE3       28.5240  -11.1190  -14.6430 C.ar   32  TRP32       0.0012
     42  CZ2       27.3900  -13.1730  -13.0610 C.ar   32  TRP32       0.0191
     43  CZ3       27.2130  -11.5210  -14.8140 C.ar   32  TRP32       0.0001
     44  CH2       26.6590  -12.5380  -14.0270 C.ar   32  TRP32       0.0015
     45  N         31.0290   -9.6380   -8.7140 N.3    37  LEU37      -0.1231
     46  CA        29.8280  -10.4360   -8.4950 C.3    37  LEU37       0.1693
     47  C         30.1270  -11.8160   -7.9140 C.2    37  LEU37       0.2592
     48  O         29.7270  -12.1250   -6.7920 O.2    37  LEU37      -0.2718
     49  CB        29.0350  -10.5570   -9.7980 C.3    37  LEU37       0.0284
     50  CG        28.6300   -9.2100  -10.4050 C.3    37  LEU37       0.0019
     51  CD1       27.7050   -9.3870  -11.5980 C.3    37  LEU37       0.0001
     52  CD2       27.9820   -8.3320   -9.3510 C.3    37  LEU37       0.0001
     53  N         30.8220  -12.6450   -8.6840 N.am   38  SER38      -0.1952
     54  CA        31.2080  -13.9760   -8.2290 C.3    38  SER38       0.1924
     55  C         32.5440  -14.3620   -8.8510 C.2    38  SER38       0.2314
     56  O         32.7240  -14.2680  -10.0650 O.2    38  SER38      -0.2863
     57  CB        30.1310  -15.0090   -8.5720 C.3    38  SER38       0.2116
     58  OG        29.9390  -15.1130   -9.9710 O.3    38  SER38      -0.2180
     59  N         34.3550  -17.1280   -9.4680 N.3    40  THR40      -0.1203
     60  CA        34.4740  -18.1680  -10.4830 C.3    40  THR40       0.1994
     61  C         34.0230  -17.6780  -11.8590 C.2    40  THR40       0.2617
     62  O         34.7120  -17.8900  -12.8590 O.2    40  THR40      -0.2717
     63  CB        33.6930  -19.4360  -10.0840 C.3    40  THR40       0.1784
     64  OG1       34.2630  -19.9900   -8.8920 O.3    40  THR40      -0.2211
     65  CG2       33.7540  -20.4760  -11.1940 C.3    40  THR40       0.0376
     66  N         32.8740  -17.0130  -11.9080 N.am   41  LEU41      -0.1979
     67  CA        32.3660  -16.4860  -13.1710 C.3    41  LEU41       0.1596
     68  C         33.1690  -15.2840  -13.6550 C.2    41  LEU41       0.2287
     69  O         33.3000  -15.0620  -14.8590 O.2    41  LEU41      -0.2864
     70  CB        30.8850  -16.1250  -13.0610 C.3    41  LEU41       0.0297
     71  CG        29.9160  -17.3070  -13.0660 C.3    41  LEU41       0.0022
     72  CD1       28.4860  -16.8100  -13.0210 C.3    41  LEU41       0.0001
     73  CD2       30.1440  -18.1740  -14.2920 C.3    41  LEU41       0.0001
     74  N         35.9390  -16.8930  -15.4020 N.3    44  LEU44      -0.1231
     75  CA        35.5190  -17.4940  -16.6660 C.3    44  LEU44       0.1693
     76  C         35.1580  -16.4750  -17.7420 C.2    44  LEU44       0.2592
     77  O         35.5750  -16.6090  -18.8940 O.2    44  LEU44      -0.2718
     78  CB        34.3410  -18.4440  -16.4440 C.3    44  LEU44       0.0284
     79  CG        33.7860  -19.1060  -17.7080 C.3    44  LEU44       0.0019
     80  CD1       34.8090  -20.0570  -18.3190 C.3    44  LEU44       0.0001
     81  CD2       32.4790  -19.8270  -17.4130 C.3    44  LEU44       0.0001
     82  N         34.3760  -15.4660  -17.3660 N.am   45  PHE45      -0.1976
     83  CA        33.9140  -14.4610  -18.3200 C.3    45  PHE45       0.1639
     84  C         35.0720  -13.6830  -18.9350 C.2    45  PHE45       0.2290
     85  O         35.1110  -13.4720  -20.1470 O.2    45  PHE45      -0.2864
     86  CB        32.9120  -13.5030  -17.6680 C.3    45  PHE45       0.0560
     87  CG        31.5720  -14.1240  -17.3920 C.ar   45  PHE45      -0.0200
     88  CD1       31.1570  -15.2500  -18.0880 C.ar   45  PHE45      -0.0042
     89  CD2       30.7270  -13.5820  -16.4370 C.ar   45  PHE45      -0.0042
     90  CE1       29.9220  -15.8260  -17.8370 C.ar   45  PHE45      -0.0003
     91  CE2       29.4880  -14.1510  -16.1810 C.ar   45  PHE45      -0.0003
     92  CZ        29.0850  -15.2750  -16.8830 C.ar   45  PHE45      -0.0000
     93  N         37.1250  -15.9730  -21.1510 N.3    48  LEU48      -0.1245
     94  CA        36.5090  -16.0600  -22.4700 C.3    48  LEU48       0.1561
     95  C         36.6470  -14.7560  -23.2460 C.2    48  LEU48       0.2260
     96  O         36.7270  -14.7620  -24.4720 O.2    48  LEU48      -0.2867
     97  CB        35.0280  -16.4270  -22.3440 C.3    48  LEU48       0.0270
     98  CG        34.7030  -17.8190  -21.8020 C.3    48  LEU48       0.0019
     99  CD1       33.2110  -17.9570  -21.5560 C.3    48  LEU48       0.0001
    100  CD2       35.1950  -18.8940  -22.7620 C.3    48  LEU48       0.0001
@<TRIPOS>BOND
     1     8    10   ar
     2     8     6   ar
     3    10    11   ar
     4     1     2    1
     5     5     6    1
     6     5     2    1
     7     6     7   ar
     8     2     3    1
     9    11     9   ar
    10     7     9   ar
    11     3    12   am
    12     3     4    2
    13    12    13    1
    14    13    16    1
    15    13    14    1
    16    17    18    1
    17    17    16    1
    18    17    19    1
    19    14    15    2
    20    96    95    2
    21    20    21    1
    22    29    27   ar
    23    29    30   ar
    24    27    25   ar
    25    95    94    1
    26    30    28   ar
    27   100    98    1
    28    21    24    1
    29    21    22    1
    30    25    24    1
    31    25    26   ar
    32    94    97    1
    33    94    93    1
    34    97    98    1
    35    22    23    2
    36    98    99    1
    37    28    26   ar
    38    85    84    2
    39    84    83    1
    40    77    76    2
    41    83    86    1
    42    83    82    1
    43    80    79    1
    44    88    90   ar
    45    88    87   ar
    46    90    92   ar
    47    76    82   am
    48    76    75    1
    49    79    81    1
    50    79    78    1
    51    86    87    1
    52    87    89   ar
    53    92    91   ar
    54    75    78    1
    55    75    74    1
    56    89    91   ar
    57    69    68    2
    58    43    41   ar
    59    43    44   ar
    60    41    38   ar
    61    31    32    1
    62    73    71    1
    63    44    42   ar
    64    35    32    1
    65    35    36    1
    66    38    36   ar
    67    38    40   ar
    68    68    67    1
    69    32    33    1
    70    36    37   ar
    71    67    70    1
    72    67    66    1
    73    71    70    1
    74    71    72    1
    75    42    40   ar
    76    40    39   ar
    77    62    61    2
    78    33    34    2
    79    37    39   ar
    80    66    61   am
    81    61    60    1
    82    51    50    1
    83    65    63    1
    84    60    63    1
    85    60    59    1
    86    50    49    1
    87    50    52    1
    88    63    64    1
    89    56    55    2
    90    58    57    1
    91    49    46    1
    92    55    54    1
    93    45    46    1
    94    53    54    1
    95    53    47   am
    96    57    54    1
    97    46    47    1
    98    47    48    2
