@<TRIPOS>MOLECULE
tmp/4k1cA04.pdb
 130 120 0 0 0
SMALL
GASTEIGER

@<TRIPOS>ATOM
      1  N         37.4600  -16.4900  -33.3790 N.3    19  LEU19      -0.1245
      2  CA        36.4890  -16.6880  -32.3080 C.3    19  LEU19       0.1561
      3  C         35.8720  -15.3770  -31.8240 C.2    19  LEU19       0.2260
      4  O         35.8240  -15.1130  -30.6220 O.2    19  LEU19      -0.2867
      5  CB        37.1600  -17.4080  -31.1370 C.3    19  LEU19       0.0270
      6  CG        37.8370  -18.7370  -31.4770 C.3    19  LEU19       0.0019
      7  CD1       38.7960  -19.1500  -30.3730 C.3    19  LEU19       0.0001
      8  CD2       36.7960  -19.8180  -31.7130 C.3    19  LEU19       0.0001
      9  N         51.0370  -26.5510  -24.5890 N.3   111  SER111     -0.1217
     10  CA        49.8720  -26.4480  -25.4580 C.3   111  SER111      0.1889
     11  C         50.2730  -26.3460  -26.9270 C.2   111  SER111      0.2288
     12  O         49.6280  -26.9290  -27.7960 O.2   111  SER111     -0.2866
     13  CB        49.0180  -25.2440  -25.0620 C.3   111  SER111      0.2089
     14  OG        47.9670  -25.0430  -25.9890 O.3   111  SER111     -0.2183
     15  N         49.1200  -30.0030  -27.7080 N.3   115  LEU115     -0.1245
     16  CA        47.6890  -29.7860  -27.8960 C.3   115  LEU115      0.1561
     17  C         47.3280  -29.4110  -29.3300 C.2   115  LEU115      0.2260
     18  O         46.6150  -30.1500  -30.0100 O.2   115  LEU115     -0.2867
     19  CB        47.1750  -28.7250  -26.9210 C.3   115  LEU115      0.0270
     20  CG        45.6780  -28.4230  -26.9770 C.3   115  LEU115      0.0019
     21  CD1       44.8710  -29.7000  -26.8090 C.3   115  LEU115      0.0001
     22  CD2       45.3130  -27.4150  -25.9060 C.3   115  LEU115      0.0001
     23  N         45.5430  -31.5080  -32.3910 N.3   119  LEU119     -0.1245
     24  CA        44.3590  -30.9830  -33.0660 C.3   119  LEU119      0.1561
     25  C         44.5810  -30.8020  -34.5650 C.2   119  LEU119      0.2260
     26  O         43.7030  -31.1100  -35.3680 O.2   119  LEU119     -0.2867
     27  CB        43.9280  -29.6550  -32.4360 C.3   119  LEU119      0.0270
     28  CG        43.4980  -29.7160  -30.9690 C.3   119  LEU119      0.0019
     29  CD1       43.2040  -28.3250  -30.4360 C.3   119  LEU119      0.0001
     30  CD2       42.2920  -30.6300  -30.8020 C.3   119  LEU119      0.0001
     31  N         42.3520  -32.9510  -37.2440 N.3   123  PHE123     -0.1241
     32  CA        41.4320  -32.2640  -38.1480 C.3   123  PHE123      0.1605
     33  C         41.9510  -32.1930  -39.5780 C.2   123  PHE123      0.2264
     34  O         41.1710  -32.1750  -40.5280 O.2   123  PHE123     -0.2867
     35  CB        41.1040  -30.8640  -37.6280 C.3   123  PHE123      0.0534
     36  CG        40.1210  -30.8590  -36.4940 C.ar  123  PHE123     -0.0203
     37  CD1       38.7590  -30.9300  -36.7420 C.ar  123  PHE123     -0.0042
     38  CD2       40.5560  -30.7880  -35.1810 C.ar  123  PHE123     -0.0042
     39  CE1       37.8510  -30.9280  -35.7020 C.ar  123  PHE123     -0.0003
     40  CE2       39.6520  -30.7850  -34.1360 C.ar  123  PHE123     -0.0003
     41  CZ        38.2970  -30.8550  -34.3970 C.ar  123  PHE123     -0.0000
     42  N         40.0440  -18.6190  -46.0670 N.3   213  ILE213     -0.1245
     43  CA        39.0970  -19.1810  -45.1110 C.3   213  ILE213      0.1561
     44  C         38.1540  -18.1220  -44.5440 C.2   213  ILE213      0.2260
     45  O         36.9380  -18.3080  -44.5300 O.2   213  ILE213     -0.2867
     46  CB        39.8280  -19.8770  -43.9490 C.3   213  ILE213      0.0252
     47  CG1       40.7410  -20.9810  -44.4830 C.3   213  ILE213      0.0019
     48  CG2       38.8280  -20.4430  -42.9540 C.3   213  ILE213      0.0019
     49  CD1       41.5880  -21.6390  -43.4170 C.3   213  ILE213      0.0001
     50  N         37.3980  -15.4030  -45.7790 N.3   215  ARG215     -0.1245
     51  CA        36.5920  -14.9120  -46.8950 C.3   215  ARG215      0.1563
     52  C         36.3650  -13.4010  -46.8710 C.2   215  ARG215      0.2260
     53  O         35.2270  -12.9310  -46.8860 O.2   215  ARG215     -0.2867
     54  CB        35.2620  -15.6690  -46.9780 C.3   215  ARG215      0.0307
     55  CG        35.4420  -17.1670  -47.1730 C.3   215  ARG215      0.0489
     56  CD        34.1180  -17.9030  -47.2690 C.3   215  ARG215      0.2205
     57  NE        34.3180  -19.3100  -47.6080 N.pl3 215  ARG215     -0.0865
     58  CZ        33.3470  -20.1360  -47.9820 C.cat 215  ARG215      0.5346
     59  NH1       32.0980  -19.6980  -48.0710 N.pl3 215  ARG215      0.1354
     60  NH2       33.6240  -21.4000  -48.2720 N.pl3 215  ARG215      0.1354
     61  N         45.4510  -21.2430  -22.4680 N.3   269  ILE269     -0.1245
     62  CA        44.3560  -21.2420  -23.4370 C.3   269  ILE269      0.1561
     63  C         44.0110  -19.8190  -23.8730 C.2   269  ILE269      0.2260
     64  O         43.6920  -19.5730  -25.0380 O.2   269  ILE269     -0.2867
     65  CB        43.0980  -21.9300  -22.8580 C.3   269  ILE269      0.0252
     66  CG1       43.4030  -23.3880  -22.5150 C.3   269  ILE269      0.0019
     67  CG2       41.9270  -21.8450  -23.8290 C.3   269  ILE269      0.0019
     68  CD1       42.2220  -24.1380  -21.9330 C.3   269  ILE269      0.0001
     69  N         46.3980  -18.5940  -26.5390 N.3   272  ASN272     -0.1225
     70  CA        46.6600  -19.5750  -27.5900 C.3   272  ASN272      0.1785
     71  C         45.4400  -19.9910  -28.4080 C.2   272  ASN272      0.2597
     72  O         45.5790  -20.3800  -29.5680 O.2   272  ASN272     -0.2718
     73  CB        47.3320  -20.8210  -27.0060 C.3   272  ASN272      0.1169
     74  CG        48.7790  -20.5810  -26.6270 C.2   272  ASN272      0.2627
     75  OD1       49.4700  -19.7680  -27.2440 O.2   272  ASN272     -0.2716
     76  ND2       49.2490  -21.2940  -25.6090 N.am  272  ASN272     -0.0877
     77  N         44.2560  -19.9130  -27.8040 N.am  273  ALA273     -0.1979
     78  CA        43.0320  -20.4290  -28.4200 C.3   273  ALA273      0.1597
     79  C         42.7840  -19.9000  -29.8300 C.2   273  ALA273      0.2287
     80  O         42.4640  -20.6680  -30.7370 O.2   273  ALA273     -0.2864
     81  CB        41.8290  -20.1550  -27.5320 C.3   273  ALA273      0.0319
     82  N         45.4340  -21.2670  -32.0500 N.3   276  HIS276     -0.1226
     83  CA        45.1710  -22.6910  -32.2440 C.3   276  HIS276      0.1752
     84  C         44.1140  -22.9350  -33.3160 C.2   276  HIS276      0.2595
     85  O         44.2890  -23.7950  -34.1830 O.2   276  HIS276     -0.2718
     86  CB        44.7600  -23.3560  -30.9300 C.3   276  HIS276      0.0759
     87  CG        45.8960  -23.5810  -29.9860 C.ar  276  HIS276      0.0818
     88  ND1       47.1620  -23.0700  -30.2070 N.ar  276  HIS276     -0.2268
     89  CD2       45.9720  -24.2650  -28.8220 C.ar  276  HIS276      0.1154
     90  CE1       47.9570  -23.4280  -29.2200 C.ar  276  HIS276      0.1986
     91  NE2       47.2610  -24.1540  -28.3620 N.ar  276  HIS276     -0.2212
     92  N         43.0230  -22.1760  -33.2530 N.am  277  VAL277     -0.1980
     93  CA        41.9590  -22.2710  -34.2490 C.3   277  VAL277      0.1595
     94  C         42.5060  -21.9560  -35.6400 C.2   277  VAL277      0.2287
     95  O         42.1790  -22.6280  -36.6160 O.2   277  VAL277     -0.2864
     96  CB        40.7840  -21.3260  -33.9160 C.3   277  VAL277      0.0276
     97  CG1       39.7620  -21.3160  -35.0440 C.3   277  VAL277      0.0022
     98  CG2       40.1290  -21.7420  -32.6110 C.3   277  VAL277      0.0022
     99  N         44.6170  -24.9660  -36.8350 N.3   280  VAL280     -0.1231
    100  CA        43.7570  -26.0800  -37.2150 C.3   280  VAL280      0.1692
    101  C         43.1400  -25.8660  -38.5950 C.2   280  VAL280      0.2591
    102  O         43.1930  -26.7500  -39.4470 O.2   280  VAL280     -0.2718
    103  CB        42.6410  -26.3130  -36.1770 C.3   280  VAL280      0.0266
    104  CG1       41.6270  -27.3240  -36.6980 C.3   280  VAL280      0.0020
    105  CG2       43.2390  -26.7800  -34.8580 C.3   280  VAL280      0.0020
    106  N         42.5670  -24.6860  -38.8110 N.am  281  LEU281     -0.1980
    107  CA        41.9340  -24.3600  -40.0880 C.3   281  LEU281      0.1596
    108  C         42.9210  -24.4500  -41.2520 C.2   281  LEU281      0.2287
    109  O         42.5690  -24.9050  -42.3390 O.2   281  LEU281     -0.2864
    110  CB        41.2980  -22.9680  -40.0370 C.3   281  LEU281      0.0297
    111  CG        40.1090  -22.7840  -39.0870 C.3   281  LEU281      0.0022
    112  CD1       39.6130  -21.3460  -39.1210 C.3   281  LEU281      0.0001
    113  CD2       38.9830  -23.7490  -39.4290 C.3   281  LEU281      0.0001
    114  N         43.6680  -28.0240  -42.0580 N.3   284  MET284     -0.1230
    115  CA        42.5660  -28.6270  -42.7950 C.3   284  MET284      0.1702
    116  C         42.6380  -28.2880  -44.2810 C.2   284  MET284      0.2592
    117  O         42.0220  -28.9560  -45.1100 O.2   284  MET284     -0.2718
    118  CB        41.2230  -28.1960  -42.2100 C.3   284  MET284      0.0401
    119  CG        41.0220  -28.6190  -40.7660 C.3   284  MET284      0.0596
    120  SD        39.4010  -28.1710  -40.1320 S.3   284  MET284     -0.1393
    121  CE        38.3550  -29.2380  -41.1280 C.3   284  MET284      0.0692
    122  N         43.3990  -27.2500  -44.6130 N.am  285  LYS285     -0.1980
    123  CA        43.6380  -26.8950  -46.0060 C.3   285  LYS285      0.1596
    124  C         44.8660  -27.6250  -46.5380 C.2   285  LYS285      0.2287
    125  O         45.3930  -27.2790  -47.5970 O.2   285  LYS285     -0.2864
    126  CB        43.8150  -25.3840  -46.1570 C.3   285  LYS285      0.0298
    127  CG        42.5320  -24.5920  -45.9760 C.3   285  LYS285      0.0038
    128  CD        41.5140  -24.9580  -47.0420 C.3   285  LYS285      0.0206
    129  CE        40.2450  -24.1340  -46.9030 C.3   285  LYS285      0.1093
    130  NZ        39.1970  -24.5790  -47.8630 N.3   285  LYS285     -0.1314
@<TRIPOS>BOND
     1    60    58    1
     2    59    58    1
     3    58    57    2
     4   130   129    1
     5    57    56    1
     6   125   124    2
     7    56    55    1
     8    55    54    1
     9   128   129    1
    10   128   127    1
    11    54    51    1
    12    51    52    1
    13    51    50    1
    14    53    52    2
    15   124   123    1
    16   126   123    1
    17   126   127    1
    18    42    43    1
    19   123   122    1
    20    43    44    1
    21    43    46    1
    22   117   116    2
    23   122   116   am
    24    44    45    2
    25    47    46    1
    26    47    49    1
    27   116   115    1
    28    46    48    1
    29   115   118    1
    30   115   114    1
    31   109   108    2
    32   118   119    1
    33   108   107    1
    34   121   120    1
    35   119   120    1
    36    34    33    2
    37   107   110    1
    38   107   106    1
    39   110   111    1
    40    33    32    1
    41   102   101    2
    42   113   111    1
    43   112   111    1
    44   106   101   am
    45   101   100    1
    46    32    35    1
    47    32    31    1
    48    35    36    1
    49   100    99    1
    50   100   103    1
    51    37    36   ar
    52    37    39   ar
    53   104   103    1
    54    95    94    2
    55    36    38   ar
    56   103   105    1
    57    39    41   ar
    58    94    93    1
    59    26    25    2
    60    38    40   ar
    61    97    96    1
    62    25    24    1
    63    41    40   ar
    64    93    96    1
    65    93    92    1
    66    85    84    2
    67    96    98    1
    68     1     2    1
    69    84    92   am
    70    84    83    1
    71    24    27    1
    72    24    23    1
    73    27    28    1
    74     2     3    1
    75     2     5    1
    76    83    82    1
    77    83    86    1
    78     3     4    2
    79     8     6    1
    80     6     5    1
    81     6     7    1
    82    28    30    1
    83    28    29    1
    84    86    87    1
    85    80    79    2
    86    88    87   ar
    87    88    90   ar
    88    18    17    2
    89    87    89   ar
    90    79    78    1
    91    72    71    2
    92    17    16    1
    93    90    91   ar
    94    89    91   ar
    95    78    77    1
    96    78    81    1
    97    71    77   am
    98    71    70    1
    99    16    15    1
   100    16    19    1
   101    12    11    2
   102    70    73    1
   103    70    69    1
   104    75    74    2
   105    73    74    1
   106    20    19    1
   107    20    21    1
   108    20    22    1
   109    11    10    1
   110    74    76   am
   111    14    13    1
   112    10    13    1
   113    10     9    1
   114    64    63    2
   115    63    62    1
   116    67    65    1
   117    62    65    1
   118    62    61    1
   119    65    66    1
   120    66    68    1
