@<TRIPOS>MOLECULE
tmp/4k1fB01.pdb
 96 94 0 0 0
SMALL
GASTEIGER

@<TRIPOS>ATOM
      1  N        -16.6360  -11.8150   -1.0180 N.3   164  PHE164     -0.1241
      2  CA       -15.9300  -10.5450   -0.8800 C.3   164  PHE164      0.1605
      3  C        -14.4410  -10.7770   -0.5690 C.2   164  PHE164      0.2264
      4  O        -13.5700  -10.2860   -1.2840 O.2   164  PHE164     -0.2867
      5  CB       -16.6020   -9.6680    0.1920 C.3   164  PHE164      0.0534
      6  CG       -16.0140   -8.3050    0.2860 C.ar  164  PHE164     -0.0203
      7  CD1      -14.9210   -8.0580    1.1140 C.ar  164  PHE164     -0.0042
      8  CD2      -16.5130   -7.2650   -0.5140 C.ar  164  PHE164     -0.0042
      9  CE1      -14.3500   -6.7910    1.1710 C.ar  164  PHE164     -0.0003
     10  CE2      -15.9690   -6.0160   -0.4540 C.ar  164  PHE164     -0.0003
     11  CZ       -14.8870   -5.7680    0.3790 C.ar  164  PHE164     -0.0000
     12  N        -12.4730  -12.1950   -3.4860 N.3   167  LYS167     -0.1231
     13  CA       -12.3710  -11.2560   -4.5820 C.3   167  LYS167      0.1693
     14  C        -11.3280  -10.1870   -4.2870 C.2   167  LYS167      0.2592
     15  O        -10.3860   -9.9840   -5.0740 O.2   167  LYS167     -0.2718
     16  CB       -13.7340  -10.6070   -4.8430 C.3   167  LYS167      0.0285
     17  CG       -13.8770   -9.9020   -6.1730 C.3   167  LYS167      0.0035
     18  CD       -15.2670   -9.2760   -6.2980 C.3   167  LYS167      0.0206
     19  CE       -15.4350   -8.4120   -7.5600 C.3   167  LYS167      0.1093
     20  NZ       -14.9240   -9.0740   -8.8260 N.3   167  LYS167     -0.1314
     21  N        -11.4770   -9.5240   -3.1470 N.am  168  HIS168     -0.1976
     22  CA       -10.6730   -8.3550   -2.8330 C.3   168  HIS168      0.1656
     23  C         -9.4700   -8.6170   -1.9490 C.2   168  HIS168      0.2291
     24  O         -8.7410   -7.6850   -1.6620 O.2   168  HIS168     -0.2864
     25  CB       -11.5520   -7.2310   -2.2150 C.3   168  HIS168      0.0771
     26  CG       -12.7460   -6.8860   -3.0410 C.ar  168  HIS168      0.0820
     27  ND1      -12.6590   -6.1520   -4.2030 N.ar  168  HIS168     -0.2267
     28  CD2      -14.0490   -7.2240   -2.9110 C.ar  168  HIS168      0.1154
     29  CE1      -13.8560   -6.0460   -4.7500 C.ar  168  HIS168      0.1986
     30  NE2      -14.7230   -6.6680   -3.9740 N.ar  168  HIS168     -0.2212
     31  N         -9.3930   -9.0770    1.2650 N.3   170  GLU170     -0.1245
     32  CA        -9.6350   -8.3120    2.4590 C.3   170  GLU170      0.1567
     33  C        -10.4360   -9.1890    3.4380 C.2   170  GLU170      0.2260
     34  O        -10.7950  -10.3130    3.0850 O.2   170  GLU170     -0.2867
     35  CB       -10.3790   -7.0480    2.0920 C.3   170  GLU170      0.0388
     36  CG        -9.4670   -5.9990    1.4350 C.3   170  GLU170      0.1160
     37  CD       -10.1490   -4.6770    1.1550 C.2   170  GLU170      0.3649
     38  OE1       -9.5280   -3.8110    0.4870 O.co2 170  GLU170     -0.2457
     39  OE2      -11.3000   -4.5040    1.5870 O.co2 170  GLU170     -0.2457
     40  N        -22.1250   -4.6500    0.4960 N.3   179  GLY179     -0.1210
     41  CA       -21.9540   -3.2230    0.2510 C.3   179  GLY179      0.1956
     42  C        -20.9420   -2.5930    1.1670 C.2   179  GLY179      0.2612
     43  O        -20.3750   -1.5290    0.8700 O.2   179  GLY179     -0.2717
     44  N        -20.7230   -3.2180    2.3140 N.am  180  ASP180     -0.1960
     45  CA       -19.8450   -2.6520    3.3460 C.3   180  ASP180      0.1825
     46  C        -18.4040   -2.8100    2.8710 C.2   180  ASP180      0.2464
     47  O        -18.1220   -3.6980    2.0830 O.2   180  ASP180     -0.2730
     48  CB       -20.0430   -3.3960    4.6740 C.3   180  ASP180      0.1450
     49  CG       -21.3470   -2.9960    5.4080 C.2   180  ASP180      0.3671
     50  OD1      -22.0430   -2.0250    4.9830 O.co2 180  ASP180     -0.2456
     51  OD2      -21.6620   -3.6610    6.4310 O.co2 180  ASP180     -0.2456
     52  N        -17.4980   -1.9540    3.3450 N.am  181  PRO181     -0.2715
     53  CA       -16.0930   -2.1710    3.0790 C.3   181  PRO181      0.1536
     54  C        -15.5290   -3.3050    3.9300 C.2   181  PRO181      0.2599
     55  O        -16.0440   -3.5480    5.0270 O.2   181  PRO181     -0.2715
     56  CB       -15.4470   -0.8600    3.5490 C.3   181  PRO181      0.0310
     57  CG       -16.4150   -0.2450    4.4920 C.3   181  PRO181      0.0237
     58  CD       -17.7550   -0.7000    4.0810 C.3   181  PRO181      0.0939
     59  N        -14.4720   -3.9610    3.4530 N.am  182  GLY182     -0.1955
     60  CA       -13.6500   -4.8180    4.3300 C.3   182  GLY182      0.1869
     61  C        -12.4110   -4.0660    4.8370 C.2   182  GLY182      0.2309
     62  O        -12.3330   -2.8330    4.7140 O.2   182  GLY182     -0.2863
     63  N         -6.5750    2.6370    6.5470 N.3   193  GLY193     -0.1210
     64  CA        -7.7870    2.3570    5.7890 C.3   193  GLY193      0.1956
     65  C         -9.0740    2.1760    6.5960 C.2   193  GLY193      0.2611
     66  O        -10.1520    2.5770    6.1440 O.2   193  GLY193     -0.2717
     67  N         -8.9830    1.5450    7.7760 N.am  194  TYR194     -0.1976
     68  CA       -10.1890    1.1460    8.4590 C.3   194  TYR194      0.1639
     69  C        -10.3380    1.7430    9.8650 C.2   194  TYR194      0.2290
     70  O        -11.1700    2.6460   10.0550 O.2   194  TYR194     -0.2864
     71  CB       -10.3550   -0.3820    8.4660 C.3   194  TYR194      0.0560
     72  CG       -11.7720   -0.8060    8.7600 C.ar  194  TYR194     -0.0198
     73  CD1      -12.2940   -0.7860   10.0730 C.ar  194  TYR194     -0.0009
     74  CD2      -12.6080   -1.1820    7.7290 C.ar  194  TYR194     -0.0009
     75  CE1      -13.6250   -1.1610   10.3260 C.ar  194  TYR194      0.0417
     76  CE2      -13.8980   -1.5180    7.9600 C.ar  194  TYR194      0.0417
     77  CZ       -14.4130   -1.5140    9.2530 C.ar  194  TYR194      0.1957
     78  OH       -15.7370   -1.8750    9.3950 O.3   194  TYR194     -0.2866
     79  N        -10.9420    5.3760   10.4540 N.3   197  LYS197     -0.1231
     80  CA       -12.0100    5.9420    9.6250 C.3   197  LYS197      0.1693
     81  C        -13.4250    5.7410   10.1650 C.2   197  LYS197      0.2591
     82  O        -14.3830    6.0150    9.4640 O.2   197  LYS197     -0.2718
     83  CB       -11.9310    5.4360    8.1870 C.3   197  LYS197      0.0285
     84  CG       -10.6310    5.7130    7.4650 C.3   197  LYS197      0.0035
     85  CD       -10.4590    7.1720    7.0830 C.3   197  LYS197      0.0206
     86  CE        -9.0730    7.4340    6.4930 C.3   197  LYS197      0.1093
     87  NZ        -8.1020    7.7060    7.5840 N.3   197  LYS197     -0.1314
     88  N        -13.5860    5.2750   11.3970 N.am  198  GLN198     -0.1979
     89  CA       -14.9100    5.4130   12.0460 C.3   198  GLN198      0.1601
     90  C        -14.9460    6.7370   12.8000 C.2   198  GLN198      0.2287
     91  O        -14.5060    6.8080   13.9650 O.2   198  GLN198     -0.2864
     92  CB       -15.2030    4.2840   13.0340 C.3   198  GLN198      0.0394
     93  CG       -15.5740    2.9670   12.4200 C.3   198  GLN198      0.0908
     94  CD       -14.4230    2.0150   12.4070 C.2   198  GLN198      0.2608
     95  OE1      -14.3550    1.0710   13.2070 O.2   198  GLN198     -0.2717
     96  NE2      -13.4990    2.2480   11.4990 N.am  198  GLN198     -0.0878
@<TRIPOS>BOND
     1    20    19    1
     2    19    18    1
     3    18    17    1
     4    17    16    1
     5    15    14    2
     6    16    13    1
     7    29    27   ar
     8    29    30   ar
     9    13    14    1
    10    13    12    1
    11    14    21   am
    12    27    26   ar
    13    30    28   ar
    14    21    22    1
    15    26    28   ar
    16    26    25    1
    17    22    25    1
    18    22    23    1
    19    23    24    2
    20     4     3    2
    21     1     2    1
    22     2     3    1
    23     2     5    1
    24     8    10   ar
    25     8     6   ar
    26    10    11   ar
    27     5     6    1
    28    41    40    1
    29    41    42    1
    30     6     7   ar
    31    11     9   ar
    32    38    37   ar
    33    43    42    2
    34     7     9   ar
    35    37    36    1
    36    37    39   ar
    37    42    44   am
    38    31    32    1
    39    36    35    1
    40    47    46    2
    41    35    32    1
    42    44    45    1
    43    32    33    1
    44    46    52   am
    45    46    45    1
    46    53    52    1
    47    53    56    1
    48    53    54    1
    49    34    33    2
    50    52    58    1
    51    45    48    1
    52    59    54   am
    53    59    60    1
    54    56    57    1
    55    54    55    2
    56    58    57    1
    57    60    61    1
    58    48    49    1
    59    62    61    2
    60    50    49   ar
    61    49    51   ar
    62    64    63    1
    63    64    65    1
    64    66    65    2
    65    86    85    1
    66    86    87    1
    67    65    67   am
    68    85    84    1
    69    84    83    1
    70    74    76   ar
    71    74    72   ar
    72    67    68    1
    73    76    77   ar
    74    83    80    1
    75    68    71    1
    76    68    69    1
    77    71    72    1
    78    72    73   ar
    79    77    78    1
    80    77    75   ar
    81    82    81    2
    82    80    81    1
    83    80    79    1
    84    69    70    2
    85    73    75   ar
    86    81    88   am
    87    88    89    1
    88    96    94   am
    89    89    90    1
    90    89    92    1
    91    94    93    1
    92    94    95    2
    93    93    92    1
    94    90    91    2
