@<TRIPOS>MOLECULE
tmp/4k1kA01.pdb
 163 153 0 0 0
SMALL
GASTEIGER

@<TRIPOS>ATOM
      1  N         46.8310   14.7310  -14.1590 N.3    37  ARG37      -0.1231
      2  CA        46.6210   16.1480  -14.4380 C.3    37  ARG37       0.1694
      3  C         45.1690   16.3130  -14.8770 C.2    37  ARG37       0.2591
      4  O         44.4250   15.3230  -14.9470 O.2    37  ARG37      -0.2718
      5  CB        47.6100   16.7120  -15.4700 C.3    37  ARG37       0.0321
      6  CG        48.7430   17.5380  -14.8530 C.3    37  ARG37       0.0489
      7  CD        49.1710   18.6790  -15.7690 C.3    37  ARG37       0.2205
      8  NE        48.1030   19.6760  -15.8740 N.pl3  37  ARG37      -0.0865
      9  CZ        47.9480   20.5390  -16.8720 C.cat  37  ARG37       0.5346
     10  NH1       48.7950   20.5570  -17.8960 N.pl3  37  ARG37       0.1354
     11  NH2       46.9220   21.3890  -16.8390 N.pl3  37  ARG37       0.1354
     12  N         44.7720   17.5530  -15.1480 N.am   38  GLU38      -0.1979
     13  CA        43.4050   17.8670  -15.5980 C.3    38  GLU38       0.1602
     14  C         42.3250   17.3150  -14.6540 C.2    38  GLU38       0.2287
     15  O         41.4250   16.5750  -15.0830 O.2    38  GLU38      -0.2864
     16  CB        43.1870   17.3670  -17.0370 C.3    38  GLU38       0.0415
     17  CG        44.1220   17.9940  -18.0710 C.3    38  GLU38       0.1163
     18  CD        45.4480   17.2640  -18.2460 C.2    38  GLU38       0.3649
     19  OE1       45.5660   16.0690  -17.8840 O.co2  38  GLU38      -0.2457
     20  OE2       46.3910   17.9010  -18.7650 O.co2  38  GLU38      -0.2457
     21  N         52.6750   13.4490  -24.8000 N.3    70  ASP70      -0.1225
     22  CA        51.3040   13.9330  -24.7810 C.3    70  ASP70       0.1805
     23  C         50.3490   12.8170  -25.1580 C.2    70  ASP70       0.2597
     24  O         50.6460   12.0070  -26.0430 O.2    70  ASP70      -0.2718
     25  CB        51.1300   15.1050  -25.7520 C.3    70  ASP70       0.1424
     26  CG        52.0310   16.2850  -25.4190 C.2    70  ASP70       0.3668
     27  OD1       52.2660   16.5510  -24.2200 O.co2  70  ASP70      -0.2456
     28  OD2       52.5010   16.9490  -26.3660 O.co2  70  ASP70      -0.2456
     29  N         49.2150   12.7760  -24.4630 N.am   71  ARG71      -0.1979
     30  CA        48.0770   11.9490  -24.8540 C.3    71  ARG71       0.1597
     31  C         48.4230   10.4640  -25.0600 C.2    71  ARG71       0.2287
     32  O         48.0540    9.8520  -26.0770 O.2    71  ARG71      -0.2864
     33  CB        47.4180   12.5510  -26.1070 C.3    71  ARG71       0.0334
     34  CG        46.7700   13.9080  -25.8520 C.3    71  ARG71       0.0492
     35  CD        46.2650   14.5730  -27.1270 C.3    71  ARG71       0.2205
     36  NE        47.3450   14.8770  -28.0650 N.pl3  71  ARG71      -0.0865
     37  CZ        48.1090   15.9670  -28.0290 C.cat  71  ARG71       0.5346
     38  NH1       47.9380   16.9000  -27.0980 N.pl3  71  ARG71       0.1354
     39  NH2       49.0630   16.1180  -28.9360 N.pl3  71  ARG71       0.1354
     40  N         46.5110    6.8140  -20.4700 N.3    75  ARG75      -0.1245
     41  CA        45.7120    7.7700  -19.6970 C.3    75  ARG75       0.1563
     42  C         44.2840    7.2690  -19.5500 C.2    75  ARG75       0.2260
     43  O         43.6620    6.8320  -20.5160 O.2    75  ARG75      -0.2867
     44  CB        45.7510    9.1730  -20.3120 C.3    75  ARG75       0.0307
     45  CG        47.1640    9.7550  -20.3970 C.3    75  ARG75       0.0489
     46  CD        47.1230   11.2720  -20.3690 C.3    75  ARG75       0.2205
     47  NE        46.9610   11.7940  -19.0120 N.pl3  75  ARG75      -0.0865
     48  CZ        47.0020   13.0850  -18.6940 C.cat  75  ARG75       0.5346
     49  NH1       47.1780   14.0060  -19.6380 N.pl3  75  ARG75       0.1354
     50  NH2       46.8680   13.4610  -17.4290 N.pl3  75  ARG75       0.1354
     51  N         42.3720   10.6650  -22.5680 N.3    97  TRP97      -0.1227
     52  CA        43.3150   11.7660  -22.3920 C.3    97  TRP97       0.1737
     53  C         42.6480   13.1470  -22.4560 C.2    97  TRP97       0.2596
     54  O         43.3160   14.1840  -22.3980 O.2    97  TRP97      -0.2718
     55  CB        44.5540   11.6550  -23.3060 C.3    97  TRP97       0.0564
     56  CG        44.3610   11.3390  -24.7770 C.ar   97  TRP97       0.0003
     57  CD1       44.8350   10.2370  -25.4400 C.ar   97  TRP97       0.0946
     58  CD2       43.7260   12.1610  -25.7740 C.ar   97  TRP97       0.0152
     59  NE1       44.5190   10.3120  -26.7780 N.ar   97  TRP97      -0.2442
     60  CE2       43.8380   11.4780  -27.0100 C.ar   97  TRP97       0.0810
     61  CE3       43.0620   13.3980  -25.7400 C.ar   97  TRP97       0.0012
     62  CZ2       43.3110   11.9930  -28.2070 C.ar   97  TRP97       0.0191
     63  CZ3       42.5420   13.9140  -26.9330 C.ar   97  TRP97       0.0001
     64  CH2       42.6610   13.2030  -28.1470 C.ar   97  TRP97       0.0015
     65  N         41.3210   13.1320  -22.5520 N.am   98  SER98      -0.1952
     66  CA        40.4720   14.3140  -22.3960 C.3    98  SER98       0.1924
     67  C         39.1300   13.7620  -21.9530 C.2    98  SER98       0.2314
     68  O         38.7210   12.7030  -22.4230 O.2    98  SER98      -0.2863
     69  CB        40.3190   15.0680  -23.7200 C.3    98  SER98       0.2116
     70  OG        39.6060   16.2780  -23.5400 O.3    98  SER98      -0.2180
     71  N         43.1360   16.3920  -32.8510 N.3   141  ILE141     -0.1245
     72  CA        42.9570   16.3110  -31.3940 C.3   141  ILE141      0.1561
     73  C         41.5420   16.6760  -30.9460 C.2   141  ILE141      0.2260
     74  O         41.3060   17.7050  -30.3140 O.2   141  ILE141     -0.2867
     75  CB        44.0400   17.1010  -30.6150 C.3   141  ILE141      0.0252
     76  CG1       45.4370   16.7970  -31.1800 C.3   141  ILE141      0.0019
     77  CG2       43.9830   16.7630  -29.1300 C.3   141  ILE141      0.0019
     78  CD1       46.4960   17.8050  -30.7860 C.3   141  ILE141      0.0001
     79  N         38.7130   16.9190  -28.5660 N.3   143  ARG143     -0.1245
     80  CA        38.9440   17.2260  -27.1520 C.3   143  ARG143      0.1563
     81  C         37.7410   17.8870  -26.4960 C.2   143  ARG143      0.2260
     82  O         36.8840   18.4490  -27.1750 O.2   143  ARG143     -0.2867
     83  CB        40.1940   18.0970  -26.9930 C.3   143  ARG143      0.0307
     84  CG        40.1630   19.4030  -27.7710 C.3   143  ARG143      0.0489
     85  CD        41.5620   19.9810  -27.8550 C.3   143  ARG143      0.2205
     86  NE        41.6060   21.2510  -28.5700 N.pl3 143  ARG143     -0.0865
     87  CZ        41.8310   21.3920  -29.8760 C.cat 143  ARG143      0.5346
     88  NH1       41.8640   22.6080  -30.4030 N.pl3 143  ARG143      0.1354
     89  NH2       42.0230   20.3340  -30.6580 N.pl3 143  ARG143      0.1354
     90  N         37.3650   18.9320  -19.7480 N.3   146  GLU146     -0.1245
     91  CA        38.1840   18.6800  -18.5380 C.3   146  GLU146      0.1567
     92  C         37.5090   19.2150  -17.2620 C.2   146  GLU146      0.2260
     93  O         38.1760   19.5510  -16.2850 O.2   146  GLU146     -0.2867
     94  CB        39.6280   19.2210  -18.6510 C.3   146  GLU146      0.0388
     95  CG        40.2640   19.2170  -20.0420 C.3   146  GLU146      0.1160
     96  CD        40.4230   17.8420  -20.6760 C.2   146  GLU146      0.3649
     97  OE1       40.0140   16.8150  -20.0830 O.co2 146  GLU146     -0.2457
     98  OE2       40.9600   17.7950  -21.8040 O.co2 146  GLU146     -0.2457
     99  N         44.8950   24.4450  -32.2080 N.3   165  ALA165     -0.1245
    100  CA        44.9350   25.0570  -30.8830 C.3   165  ALA165      0.1562
    101  C         45.4520   26.4980  -30.9590 C.2   165  ALA165      0.2260
    102  O         45.5200   27.1930  -29.9480 O.2   165  ALA165     -0.2867
    103  CB        45.8060   24.2270  -29.9460 C.3   165  ALA165      0.0290
    104  N         38.1180   26.4720  -25.9870 N.3   195  GLU195     -0.1231
    105  CA        38.8100   25.3320  -25.4000 C.3   195  GLU195      0.1699
    106  C         38.3470   25.1670  -23.9660 C.2   195  GLU195      0.2592
    107  O         38.0850   26.1540  -23.2790 O.2   195  GLU195     -0.2718
    108  CB        40.3320   25.5460  -25.3850 C.3   195  GLU195      0.0402
    109  CG        40.9850   25.7930  -26.7380 C.3   195  GLU195      0.1161
    110  CD        41.2940   24.5220  -27.5200 C.2   195  GLU195      0.3649
    111  OE1       40.8350   23.4190  -27.1410 O.co2 195  GLU195     -0.2457
    112  OE2       42.0100   24.6300  -28.5370 O.co2 195  GLU195     -0.2457
    113  N         38.2480   23.9160  -23.5220 N.am  196  GLU196     -0.1979
    114  CA        38.1300   23.5850  -22.0980 C.3   196  GLU196      0.1602
    115  C         37.0610   24.3760  -21.3420 C.2   196  GLU196      0.2287
    116  O         37.3560   25.0490  -20.3540 O.2   196  GLU196     -0.2864
    117  CB        39.4950   23.7470  -21.4260 C.3   196  GLU196      0.0415
    118  CG        40.5260   22.8010  -22.0110 C.3   196  GLU196      0.1163
    119  CD        41.9470   23.1090  -21.6000 C.2   196  GLU196      0.3649
    120  OE1       42.2310   24.2310  -21.1260 O.co2 196  GLU196     -0.2457
    121  OE2       42.7970   22.2050  -21.7700 O.co2 196  GLU196     -0.2457
    122  N         38.2750   28.9420  -22.6520 N.3   211  ARG211     -0.1245
    123  CA        39.6400   29.3890  -22.8670 C.3   211  ARG211      0.1563
    124  C         39.8350   29.6610  -24.3560 C.2   211  ARG211      0.2260
    125  O         39.6170   28.7790  -25.1900 O.2   211  ARG211     -0.2867
    126  CB        40.6030   28.3020  -22.3790 C.3   211  ARG211      0.0307
    127  CG        42.0350   28.4100  -22.8800 C.3   211  ARG211      0.0489
    128  CD        42.7950   27.1750  -22.4360 C.3   211  ARG211      0.2205
    129  NE        44.1330   27.0820  -23.0040 N.pl3 211  ARG211     -0.0865
    130  CZ        45.0390   26.1840  -22.6210 C.cat 211  ARG211      0.5346
    131  NH1       44.7500   25.3090  -21.6630 N.pl3 211  ARG211      0.1354
    132  NH2       46.2350   26.1620  -23.1900 N.pl3 211  ARG211      0.1354
    133  N         42.5180   30.1370  -26.9530 N.3   213  ASN213     -0.1240
    134  CA        43.9350   29.7980  -27.0360 C.3   213  ASN213      0.1653
    135  C         44.6340   30.4920  -28.2020 C.2   213  ASN213      0.2266
    136  O         45.8250   30.2680  -28.4520 O.2   213  ASN213     -0.2867
    137  CB        44.1010   28.2810  -27.1510 C.3   213  ASN213      0.1155
    138  CG        45.3580   27.7810  -26.4750 C.2   213  ASN213      0.2627
    139  OD1       45.5640   28.0060  -25.2830 O.2   213  ASN213     -0.2716
    140  ND2       46.1960   27.0850  -27.2270 N.am  213  ASN213     -0.0877
    141  N         51.4390   30.1530  -14.4800 N.3   290  ARG290     -0.1245
    142  CA        50.4060   29.4680  -13.7020 C.3   290  ARG290      0.1563
    143  C         50.8090   29.4020  -12.2330 C.2   290  ARG290      0.2260
    144  O         51.0690   28.3290  -11.6750 O.2   290  ARG290     -0.2867
    145  CB        50.1340   28.0850  -14.2870 C.3   290  ARG290      0.0307
    146  CG        49.4710   28.1600  -15.6520 C.3   290  ARG290      0.0489
    147  CD        49.5150   26.8210  -16.3630 C.3   290  ARG290      0.2205
    148  NE        48.8830   26.9120  -17.6760 N.pl3 290  ARG290     -0.0865
    149  CZ        48.6380   25.8740  -18.4700 C.cat 290  ARG290      0.5346
    150  NH1       48.9910   24.6460  -18.1050 N.pl3 290  ARG290      0.1354
    151  NH2       48.0470   26.0710  -19.6390 N.pl3 290  ARG290      0.1354
    152  N         45.0790   24.5110  -13.9350 N.3   325  TYR325     -0.1241
    153  CA        43.6810   24.5750  -14.3490 C.3   325  TYR325      0.1605
    154  C         42.7640   24.8920  -13.1770 C.2   325  TYR325      0.2264
    155  O         43.0810   24.6100  -12.0170 O.2   325  TYR325     -0.2867
    156  CB        43.2570   23.2450  -14.9850 C.3   325  TYR325      0.0534
    157  CG        43.6790   23.0720  -16.4310 C.ar  325  TYR325     -0.0201
    158  CD1       44.6710   23.8800  -17.0020 C.ar  325  TYR325     -0.0009
    159  CD2       43.1000   22.0830  -17.2260 C.ar  325  TYR325     -0.0009
    160  CE1       45.0510   23.7210  -18.3250 C.ar  325  TYR325      0.0417
    161  CE2       43.4750   21.9190  -18.5500 C.ar  325  TYR325      0.0417
    162  CZ        44.4480   22.7420  -19.0900 C.ar  325  TYR325      0.1957
    163  OH        44.8130   22.5790  -20.4040 O.3   325  TYR325     -0.2866
@<TRIPOS>BOND
     1    71    72    1
     2    99   100    1
     3    72    73    1
     4    72    75    1
     5    76    78    1
     6    76    75    1
     7   101   100    1
     8   101   102    2
     9    73    74    2
    10   100   103    1
    11    89    87    1
    12    75    77    1
    13    88    87    1
    14    87    86    2
    15    39    37    1
    16    86    85    1
    17    79    80    1
    18   112   110   ar
    19   136   135    2
    20    62    64   ar
    21    62    60   ar
    22   135   134    1
    23    64    63   ar
    24    36    37    2
    25    36    35    1
    26    37    38    1
    27    85    84    1
    28    84    83    1
    29   110   111   ar
    30   110   109    1
    31   140   138   am
    32    82    81    2
    33    80    83    1
    34    80    81    1
    35   137   134    1
    36   137   138    1
    37    35    34    1
    38   134   133    1
    39    60    59   ar
    40    60    58   ar
    41    63    61   ar
    42    59    57   ar
    43   109   108    1
    44   138   139    2
    45    28    26   ar
    46    33    34    1
    47    33    30    1
    48    32    31    2
    49    24    23    2
    50   104   105    1
    51    58    61   ar
    52    58    56   ar
    53    25    26    1
    54    25    22    1
    55    57    56   ar
    56    26    27   ar
    57   105   108    1
    58   105   106    1
    59   125   124    2
    60    23    22    1
    61    23    29   am
    62    31    30    1
    63    30    29    1
    64    21    22    1
    65    56    55    1
    66   124   123    1
    67   106   113   am
    68   106   107    2
    69    69    70    1
    70    69    66    1
    71   113   114    1
    72    55    52    1
    73   132   130    1
    74   129   130    2
    75   129   128    1
    76   127   128    1
    77   127   126    1
    78   123   122    1
    79   123   126    1
    80   130   131    1
    81    51    52    1
    82    65    53   am
    83    65    66    1
    84    53    54    2
    85    53    52    1
    86    68    67    2
    87    66    67    1
    88   114   117    1
    89   114   115    1
    90   118   119    1
    91   118   117    1
    92    98    96   ar
    93   121   119   ar
    94   119   120   ar
    95   115   116    2
    96    96    97   ar
    97    96    95    1
    98    43    42    2
    99    40    41    1
   100   163   162    1
   101    45    46    1
   102    45    44    1
   103    46    47    1
   104    44    41    1
   105    95    94    1
   106    90    91    1
   107    41    42    1
   108   151   149    1
   109    49    48    1
   110   162   161   ar
   111   162   160   ar
   112    47    48    2
   113    20    18   ar
   114    48    50    1
   115    94    91    1
   116   161   159   ar
   117    91    92    1
   118   149   150    1
   119   149   148    2
   120   160   158   ar
   121    18    17    1
   122    18    19   ar
   123    17    16    1
   124    10     9    1
   125   148   147    1
   126    92    93    2
   127   159   157   ar
   128    16    13    1
   129   158   157   ar
   130     9    11    1
   131     9     8    2
   132   157   156    1
   133   147   146    1
   134     8     7    1
   135     7     6    1
   136   146   145    1
   137    13    12    1
   138    13    14    1
   139     5     6    1
   140     5     2    1
   141    12     3   am
   142    15    14    2
   143   156   153    1
   144     4     3    2
   145     3     2    1
   146   141   142    1
   147     2     1    1
   148   153   152    1
   149   153   154    1
   150   145   142    1
   151   142   143    1
   152   154   155    2
   153   143   144    2
