@<TRIPOS>MOLECULE
tmp/4k1kB00.pdb
 109 104 0 0 0
SMALL
GASTEIGER

@<TRIPOS>ATOM
      1  N         28.9660   -0.9100  -35.7530 N.3    14  THR14      -0.1218
      2  CA        29.7740   -0.4280  -36.8610 C.3    14  THR14       0.1862
      3  C         31.2550   -0.6930  -36.5730 C.2    14  THR14       0.2287
      4  O         32.1240   -0.4480  -37.4110 O.2    14  THR14      -0.2866
      5  CB        29.5780    1.0850  -37.0450 C.3    14  THR14       0.1770
      6  OG1       29.9950    1.7570  -35.8480 O.3    14  THR14      -0.2211
      7  CG2       28.1090    1.4300  -37.3300 C.3    14  THR14       0.0375
      8  N         46.5940  -15.3700  -44.5530 N.3   249  ASP249     -0.1239
      9  CA        45.2530  -15.1430  -45.1090 C.3   249  ASP249      0.1674
     10  C         45.0750  -15.7170  -46.5170 C.2   249  ASP249      0.2266
     11  O         43.9800  -16.1480  -46.8810 O.2   249  ASP249     -0.2867
     12  CB        44.9130  -13.6490  -45.1250 C.3   249  ASP249      0.1410
     13  CG        44.5380  -13.1110  -43.7500 C.2   249  ASP249      0.3668
     14  OD1       44.4870  -13.8950  -42.7820 O.co2 249  ASP249     -0.2456
     15  OD2       44.2750  -11.8970  -43.6390 O.co2 249  ASP249     -0.2456
     16  N         41.3810  -11.2360  -33.4720 N.3   283  ARG283     -0.1245
     17  CA        42.4820  -12.1920  -33.4970 C.3   283  ARG283      0.1563
     18  C         43.7800  -11.4380  -33.2650 C.2   283  ARG283      0.2260
     19  O         43.8210  -10.2140  -33.3960 O.2   283  ARG283     -0.2867
     20  CB        42.5430  -12.9480  -34.8330 C.3   283  ARG283      0.0307
     21  CG        42.7930  -12.0720  -36.0520 C.3   283  ARG283      0.0489
     22  CD        42.7990  -12.9120  -37.3130 C.3   283  ARG283      0.2205
     23  NE        43.2730  -12.1520  -38.4670 N.pl3 283  ARG283     -0.0865
     24  CZ        43.2950  -12.6210  -39.7110 C.cat 283  ARG283      0.5346
     25  NH1       42.8460  -13.8500  -39.9750 N.pl3 283  ARG283      0.1354
     26  NH2       43.7480  -11.8520  -40.6910 N.pl3 283  ARG283      0.1354
     27  N         43.6310   -7.3100  -33.5340 N.3   294  GLU294     -0.1245
     28  CA        42.8160   -6.6260  -34.5370 C.3   294  GLU294      0.1567
     29  C         41.4010   -7.1790  -34.5050 C.2   294  GLU294      0.2260
     30  O         41.2000   -8.3440  -34.1640 O.2   294  GLU294     -0.2867
     31  CB        43.4100   -6.8020  -35.9440 C.3   294  GLU294      0.0388
     32  CG        43.5380   -8.2550  -36.4050 C.3   294  GLU294      0.1160
     33  CD        44.2050   -8.4230  -37.7670 C.2   294  GLU294      0.3649
     34  OE1       44.5970   -7.4180  -38.3970 O.co2 294  GLU294     -0.2457
     35  OE2       44.3460   -9.5790  -38.2150 O.co2 294  GLU294     -0.2457
     36  N         36.9450   -8.7110  -45.8500 N.3   310  GLN310     -0.1231
     37  CA        36.7790   -7.9980  -44.5900 C.3   310  GLN310      0.1698
     38  C         36.5010   -6.5160  -44.7870 C.2   310  GLN310      0.2592
     39  O         36.7470   -5.9570  -45.8610 O.2   310  GLN310     -0.2718
     40  CB        37.9570   -8.2290  -43.6340 C.3   310  GLN310      0.0381
     41  CG        39.3010   -7.6920  -44.0830 C.3   310  GLN310      0.0905
     42  CD        40.2110   -7.4360  -42.9020 C.2   310  GLN310      0.2608
     43  OE1       40.1410   -6.3840  -42.2740 O.2   310  GLN310     -0.2717
     44  NE2       41.0730   -8.4000  -42.5930 N.am  310  GLN310     -0.0878
     45  N         35.9650   -5.9000  -43.7390 N.am  311  VAL311     -0.1966
     46  CA        35.6950   -4.4690  -43.7020 C.3   311  VAL311      0.1727
     47  C         35.7070   -4.0330  -42.2310 C.2   311  VAL311      0.2616
     48  O         35.6280   -4.8760  -41.3320 O.2   311  VAL311     -0.2715
     49  CB        34.3530   -4.1300  -44.4050 C.3   311  VAL311      0.0290
     50  CG1       33.1630   -4.6470  -43.6030 C.3   311  VAL311      0.0023
     51  CG2       34.2340   -2.6340  -44.6820 C.3   311  VAL311      0.0023
     52  N         35.8360   -2.7270  -41.9950 N.am  312  ASN312     -0.1958
     53  CA        35.7610   -2.1530  -40.6460 C.3   312  ASN312      0.1819
     54  C         36.8450   -2.6600  -39.6960 C.2   312  ASN312      0.2621
     55  O         36.5960   -2.8610  -38.5050 O.2   312  ASN312     -0.2715
     56  CB        34.3630   -2.3450  -40.0350 C.3   312  ASN312      0.1195
     57  CG        33.2730   -1.6580  -40.8370 C.2   312  ASN312      0.2630
     58  OD1       33.5050   -0.6350  -41.4820 O.2   312  ASN312     -0.2716
     59  ND2       32.0720   -2.2210  -40.7970 N.am  312  ASN312     -0.0877
     60  N         38.0480   -2.8620  -40.2270 N.am  313  ARG313     -0.1963
     61  CA        39.1690   -3.2930  -39.4020 C.3   313  ARG313      0.1729
     62  C         39.5280   -2.2110  -38.3910 C.2   313  ARG313      0.2616
     63  O         39.4610   -1.0180  -38.6950 O.2   313  ARG313     -0.2715
     64  CB        40.3850   -3.6390  -40.2620 C.3   313  ARG313      0.0348
     65  CG        41.5840   -4.1230  -39.4610 C.3   313  ARG313      0.0492
     66  CD        42.6910   -4.6100  -40.3670 C.3   313  ARG313      0.2205
     67  NE        43.8480   -5.0550  -39.5960 N.pl3 313  ARG313     -0.0865
     68  CZ        44.9000   -4.3000  -39.2910 C.cat 313  ARG313      0.5346
     69  NH1       44.9780   -3.0310  -39.6890 N.pl3 313  ARG313      0.1354
     70  NH2       45.8890   -4.8290  -38.5850 N.pl3 313  ARG313      0.1354
     71  N         39.8690   -2.6470  -37.1820 N.am  314  GLN314     -0.1977
     72  CA        40.4360   -1.7750  -36.1620 C.3   314  GLN314      0.1601
     73  C         41.6190   -2.4660  -35.5120 C.2   314  GLN314      0.2287
     74  O         41.5380   -3.6340  -35.1270 O.2   314  GLN314     -0.2864
     75  CB        39.4060   -1.4430  -35.0810 C.3   314  GLN314      0.0394
     76  CG        38.2180   -0.6270  -35.5550 C.3   314  GLN314      0.0908
     77  CD        37.1870   -0.4620  -34.4610 C.2   314  GLN314      0.2608
     78  OE1       36.1510   -1.1310  -34.4650 O.2   314  GLN314     -0.2717
     79  NE2       37.4740    0.4110  -33.5030 N.am  314  GLN314     -0.0878
     80  N         30.5170    6.3150  -34.4560 N.3   371  THR371     -0.1203
     81  CA        31.7580    6.3590  -35.2170 C.3   371  THR371      0.1994
     82  C         32.9590    6.3890  -34.2780 C.2   371  THR371      0.2618
     83  O         32.8110    6.5110  -33.0620 O.2   371  THR371     -0.2717
     84  CB        31.7920    7.5420  -36.2060 C.3   371  THR371      0.1784
     85  OG1       31.4820    8.7600  -35.5200 O.3   371  THR371     -0.2211
     86  CG2       30.7720    7.3220  -37.3360 C.3   371  THR371      0.0376
     87  N         34.1500    6.2590  -34.8490 N.am  372  TYR372     -0.1961
     88  CA        35.3710    6.1090  -34.0670 C.3   372  TYR372      0.1771
     89  C         36.5640    6.3570  -34.9720 C.2   372  TYR372      0.2620
     90  O         36.4220    6.4300  -36.2000 O.2   372  TYR372     -0.2715
     91  CB        35.4600    4.6970  -33.4660 C.3   372  TYR372      0.0574
     92  CG        35.1950    3.6060  -34.4800 C.ar  372  TYR372     -0.0198
     93  CD1       36.2060    3.1600  -35.3310 C.ar  372  TYR372     -0.0009
     94  CD2       33.9290    3.0290  -34.5970 C.ar  372  TYR372     -0.0009
     95  CE1       35.9640    2.1780  -36.2770 C.ar  372  TYR372      0.0417
     96  CE2       33.6800    2.0360  -35.5340 C.ar  372  TYR372      0.0417
     97  CZ        34.7020    1.6140  -36.3690 C.ar  372  TYR372      0.1957
     98  OH        34.4750    0.6360  -37.3090 O.3   372  TYR372     -0.2866
     99  N         37.7400    6.4600  -34.3620 N.am  373  GLY373     -0.1940
    100  CA        38.9740    6.6750  -35.1030 C.3   373  GLY373      0.2014
    101  C         39.9030    5.4860  -35.0130 C.2   373  GLY373      0.2639
    102  O         39.4860    4.3390  -35.1860 O.2   373  GLY373     -0.2714
    103  N         41.1720    5.7710  -34.7510 N.am  374  THR374     -0.1950
    104  CA        42.2040    4.7380  -34.6760 C.3   374  THR374      0.1897
    105  C         43.0800    4.9480  -33.4510 C.2   374  THR374      0.2313
    106  O         43.1020    6.0290  -32.8590 O.2   374  THR374     -0.2863
    107  CB        43.1280    4.7490  -35.9170 C.3   374  THR374      0.1794
    108  OG1       43.6570    6.0680  -36.1150 O.3   374  THR374     -0.2208
    109  CG2       42.3860    4.2890  -37.1790 C.3   374  THR374      0.0378
@<TRIPOS>BOND
     1    11    10    2
     2    10     9    1
     3    39    38    2
     4    36    37    1
     5    12     9    1
     6    12    13    1
     7     9     8    1
     8    38    37    1
     9    38    45   am
    10    51    49    1
    11    37    40    1
    12    49    46    1
    13    49    50    1
    14    41    40    1
    15    41    42    1
    16    13    15   ar
    17    13    14   ar
    18    45    46    1
    19    46    47    1
    20    42    44   am
    21    42    43    2
    22    47    52   am
    23    47    48    2
    24    52    53    1
    25    58    57    2
    26    57    59   am
    27    57    56    1
    28    26    24    1
    29    53    56    1
    30    53    54    1
    31    66    67    1
    32    66    65    1
    33    64    65    1
    34    64    61    1
    35    60    54   am
    36    60    61    1
    37    25    24    1
    38    24    23    2
    39    54    55    2
    40    69    68    1
    41    67    68    2
    42    61    62    1
    43    68    70    1
    44    63    62    2
    45    23    22    1
    46    34    33   ar
    47    62    71   am
    48    35    33   ar
    49    33    32    1
    50     4     3    2
    51    86    84    1
    52     7     5    1
    53    22    21    1
    54    98    97    1
    55    71    72    1
    56   109   107    1
    57     5     2    1
    58     5     6    1
    59     2     3    1
    60     2     1    1
    61    32    31    1
    62    97    95   ar
    63    97    96   ar
    64    95    93   ar
    65    84    85    1
    66    84    81    1
    67    90    89    2
    68    72    73    1
    69    72    75    1
    70   108   107    1
    71    21    20    1
    72    31    28    1
    73   107   104    1
    74    76    75    1
    75    76    77    1
    76    96    94   ar
    77    73    74    2
    78    93    92   ar
    79    81    80    1
    80    81    82    1
    81   102   101    2
    82   100   101    1
    83   100    99    1
    84   101   103   am
    85    89    99   am
    86    89    88    1
    87    87    82   am
    88    87    88    1
    89    20    17    1
    90   103   104    1
    91   104   105    1
    92    94    92   ar
    93    28    29    1
    94    28    27    1
    95    29    30    2
    96    92    91    1
    97    78    77    2
    98    77    79   am
    99    82    83    2
   100    88    91    1
   101    17    16    1
   102    17    18    1
   103   105   106    2
   104    19    18    2
