@<TRIPOS>MOLECULE
tmp/4k1lA00.pdb
 146 136 0 0 0
SMALL
GASTEIGER

@<TRIPOS>ATOM
      1  N         -4.7360    5.3080   47.1740 N.3   101  ILE101     -0.1245
      2  CA        -4.7580    5.7120   45.7620 C.3   101  ILE101      0.1561
      3  C         -5.6360    6.9650   45.6340 C.2   101  ILE101      0.2260
      4  O         -6.5720    7.1200   46.4260 O.2   101  ILE101     -0.2867
      5  CB        -5.2390    4.6030   44.7930 C.3   101  ILE101      0.0252
      6  CG1       -6.6270    4.0200   45.1920 C.3   101  ILE101      0.0019
      7  CG2       -4.1680    3.5260   44.6040 C.3   101  ILE101      0.0019
      8  CD1       -7.3040    3.1950   44.0930 C.3   101  ILE101      0.0001
      9  N        -10.3650    7.5230   41.4100 N.3   104  THR104     -0.1218
     10  CA       -10.2980    7.1950   39.9750 C.3   104  THR104      0.1862
     11  C        -11.5510    6.4780   39.5130 C.2   104  THR104      0.2287
     12  O        -12.0820    5.6230   40.2300 O.2   104  THR104     -0.2866
     13  CB        -8.9680    6.4240   39.5620 C.3   104  THR104      0.1770
     14  OG1       -9.1900    5.0500   39.2320 O.3   104  THR104     -0.2211
     15  CG2       -7.8930    6.4730   40.5840 C.3   104  THR104      0.0375
     16  N        -13.5640    4.6970   35.6850 N.3   106  LEU106     -0.1245
     17  CA       -13.2220    4.1280   34.3860 C.3   106  LEU106      0.1561
     18  C        -13.6440    5.1330   33.3320 C.2   106  LEU106      0.2260
     19  O        -14.8100    5.5140   33.2920 O.2   106  LEU106     -0.2867
     20  CB       -13.8960    2.7670   34.1170 C.3   106  LEU106      0.0270
     21  CG       -13.7640    1.5770   35.1030 C.3   106  LEU106      0.0019
     22  CD1      -13.6930    0.2910   34.3620 C.3   106  LEU106      0.0001
     23  CD2      -12.6000    1.6890   36.0660 C.3   106  LEU106      0.0001
     24  N         -1.9090   -3.8510   41.3130 N.3   150  SER150     -0.1202
     25  CA        -3.0610   -4.3510   40.5870 C.3   150  SER150      0.2020
     26  C         -2.7040   -5.0930   39.3240 C.2   150  SER150      0.2619
     27  O         -1.5750   -4.9650   38.8440 O.2   150  SER150     -0.2717
     28  CB        -3.8880   -3.1330   40.1440 C.3   150  SER150      0.2103
     29  OG        -3.8400   -2.0650   41.0800 O.3   150  SER150     -0.2182
     30  N         -3.7070   -5.7640   38.7090 N.am  151  LEU151     -0.1965
     31  CA        -3.5220   -6.4050   37.4010 C.3   151  LEU151      0.1728
     32  C         -3.0990   -5.3500   36.3940 C.2   151  LEU151      0.2616
     33  O         -2.2030   -5.6250   35.6050 O.2   151  LEU151     -0.2715
     34  CB        -4.8000   -7.1160   36.9070 C.3   151  LEU151      0.0311
     35  CG        -5.3280   -8.2700   37.7600 C.3   151  LEU151      0.0022
     36  CD1       -6.5950   -8.8230   37.1710 C.3   151  LEU151      0.0001
     37  CD2       -4.2720   -9.3580   37.9570 C.3   151  LEU151      0.0001
     38  N         -3.6790   -4.1110   36.4940 N.am  152  ALA152     -0.1977
     39  CA        -3.3660   -2.9460   35.6530 C.3   152  ALA152      0.1597
     40  C         -1.9520   -2.4170   35.9140 C.2   152  ALA152      0.2287
     41  O         -1.4920   -1.5540   35.1830 O.2   152  ALA152     -0.2864
     42  CB        -4.4230   -1.8320   35.8380 C.3   152  ALA152      0.0319
     43  N         -4.4800   -2.0620   30.5810 N.3   157  TYR157     -0.1228
     44  CA        -5.8890   -2.1160   30.9610 C.3   157  TYR157      0.1721
     45  C         -6.5780   -0.8340   30.4810 C.2   157  TYR157      0.2437
     46  O         -6.2890    0.2430   31.0060 O.2   157  TYR157     -0.2733
     47  CB        -6.0240   -2.2550   32.4920 C.3   157  TYR157      0.0547
     48  CG        -6.6230   -3.5540   32.9790 C.ar  157  TYR157     -0.0200
     49  CD1       -7.9910   -3.7920   32.8870 C.ar  157  TYR157     -0.0009
     50  CD2       -5.8380   -4.5050   33.6230 C.ar  157  TYR157     -0.0009
     51  CE1       -8.5540   -4.9710   33.3770 C.ar  157  TYR157      0.0417
     52  CE2       -6.3890   -5.6810   34.1200 C.ar  157  TYR157      0.0417
     53  CZ        -7.7480   -5.9120   33.9940 C.ar  157  TYR157      0.1957
     54  OH        -8.2900   -7.0700   34.4890 O.3   157  TYR157     -0.2866
     55  N         -7.4820   -0.9140   29.4860 N.am  158  PRO158     -0.2729
     56  CA        -8.1410    0.3060   29.0160 C.3   158  PRO158      0.1401
     57  C         -9.0650    0.8720   30.0760 C.2   158  PRO158      0.2269
     58  O         -9.5480    0.1200   30.9290 O.2   158  PRO158     -0.2865
     59  CB        -8.9240   -0.1650   27.7900 C.3   158  PRO158      0.0296
     60  CG        -9.1860   -1.5770   28.0260 C.3   158  PRO158      0.0237
     61  CD        -7.9720   -2.0980   28.7540 C.3   158  PRO158      0.0939
     62  N         -8.3580    2.7330   32.5410 N.3   160  VAL160     -0.1245
     63  CA        -7.5860    3.0640   33.7470 C.3   160  VAL160      0.1561
     64  C         -6.1150    3.3740   33.3730 C.2   160  VAL160      0.2260
     65  O         -5.2120    2.9350   34.0710 O.2   160  VAL160     -0.2867
     66  CB        -7.7220    1.9990   34.8860 C.3   160  VAL160      0.0252
     67  CG1       -9.1180    2.0110   35.4930 C.3   160  VAL160      0.0019
     68  CG2       -7.3500    0.5830   34.4190 C.3   160  VAL160      0.0019
     69  N         -3.9550    5.3550   36.1190 N.3   163  TYR163     -0.1241
     70  CA        -3.8610    4.4220   37.2510 C.3   163  TYR163      0.1605
     71  C         -2.8400    3.3210   36.8910 C.2   163  TYR163      0.2264
     72  O         -1.9230    3.0360   37.6700 O.2   163  TYR163     -0.2867
     73  CB        -5.2500    3.8330   37.4890 C.3   163  TYR163      0.0534
     74  CG        -5.3400    2.7400   38.5270 C.ar  163  TYR163     -0.0201
     75  CD1       -5.4450    3.0450   39.8860 C.ar  163  TYR163     -0.0009
     76  CD2       -5.4120    1.4050   38.1500 C.ar  163  TYR163     -0.0009
     77  CE1       -5.5650    2.0400   40.8430 C.ar  163  TYR163      0.0417
     78  CE2       -5.5190    0.3900   39.0950 C.ar  163  TYR163      0.0417
     79  CZ        -5.6080    0.7120   40.4410 C.ar  163  TYR163      0.1957
     80  OH        -5.7840   -0.3020   41.3510 O.3   163  TYR163     -0.2866
     81  N         -3.2840   -7.3350   42.7980 N.3   195  LEU195     -0.1231
     82  CA        -4.6730   -7.7190   43.0300 C.3   195  LEU195      0.1693
     83  C         -5.5450   -7.5710   41.8150 C.2   195  LEU195      0.2593
     84  O         -5.3750   -6.6310   41.0390 O.2   195  LEU195     -0.2718
     85  CB        -5.3200   -6.9460   44.2070 C.3   195  LEU195      0.0284
     86  CG        -4.4950   -6.5160   45.4110 C.3   195  LEU195      0.0019
     87  CD1       -5.3020   -5.5510   46.2940 C.3   195  LEU195      0.0001
     88  CD2       -3.9630   -7.7120   46.2040 C.3   195  LEU195      0.0001
     89  N         -6.5150   -8.4750   41.7040 N.am  196  GLY196     -0.1942
     90  CA        -7.5640   -8.4080   40.6990 C.3   196  GLY196      0.2014
     91  C         -8.7520   -7.6670   41.2770 C.2   196  GLY196      0.2638
     92  O         -8.6200   -7.0250   42.3240 O.2   196  GLY196     -0.2714
     93  N         -9.9320   -7.7790   40.6520 N.am  197  LEU197     -0.1977
     94  CA       -11.1180   -7.0910   41.1740 C.3   197  LEU197      0.1596
     95  C        -11.4860   -7.5240   42.5980 C.2   197  LEU197      0.2287
     96  O        -11.6340   -8.7160   42.8530 O.2   197  LEU197     -0.2864
     97  CB       -12.3170   -7.2540   40.2270 C.3   197  LEU197      0.0297
     98  CG       -13.5690   -6.4250   40.5690 C.3   197  LEU197      0.0022
     99  CD1      -13.3330   -4.9300   40.3810 C.3   197  LEU197      0.0001
    100  CD2      -14.7690   -6.8990   39.7380 C.3   197  LEU197      0.0001
    101  N        -14.6720   -3.9540   47.0380 N.3   200  THR200     -0.1218
    102  CA       -14.7610   -2.7260   47.8410 C.3   200  THR200      0.1862
    103  C        -15.8480   -1.8660   47.2260 C.2   200  THR200      0.2287
    104  O        -16.1040   -1.9720   46.0160 O.2   200  THR200     -0.2866
    105  CB       -13.4330   -1.9260   47.8830 C.3   200  THR200      0.1770
    106  OG1      -13.0540   -1.5280   46.5460 O.3   200  THR200     -0.2211
    107  CG2      -12.3000   -2.7040   48.5560 C.3   200  THR200      0.0375
    108  N        -15.7570    1.3110   46.5280 N.3   202  THR202     -0.1203
    109  CA       -15.1300    2.1060   45.4630 C.3   202  THR202      0.1994
    110  C        -15.0820    1.3550   44.1190 C.2   202  THR202      0.2617
    111  O        -15.5480    1.8850   43.1100 O.2   202  THR202     -0.2717
    112  CB       -13.7320    2.5400   45.8930 C.3   202  THR202      0.1784
    113  OG1      -13.8330    3.3620   47.0440 O.3   202  THR202     -0.2211
    114  CG2      -12.9630    3.2690   44.7790 C.3   202  THR202      0.0376
    115  N        -14.4780    0.1440   44.1050 N.am  203  ALA203     -0.1979
    116  CA       -14.3460   -0.6540   42.8930 C.3   203  ALA203      0.1597
    117  C        -15.6930   -1.0930   42.3330 C.2   203  ALA203      0.2287
    118  O        -15.8660   -1.0280   41.1190 O.2   203  ALA203     -0.2864
    119  CB       -13.4660   -1.8680   43.1450 C.3   203  ALA203      0.0319
    120  N        -17.2910    1.9580   40.6760 N.3   206  ALA206     -0.1231
    121  CA       -16.4880    2.3130   39.4990 C.3   206  ALA206      0.1694
    122  C        -16.7120    1.3970   38.3100 C.2   206  ALA206      0.2591
    123  O        -16.7040    1.8790   37.1810 O.2   206  ALA206     -0.2718
    124  CB       -14.9970    2.3450   39.8520 C.3   206  ALA206      0.0304
    125  N        -16.8520    0.0770   38.5560 N.am  207  VAL207     -0.1980
    126  CA       -17.0350   -0.9360   37.5160 C.3   207  VAL207      0.1595
    127  C        -18.4940   -1.2200   37.1120 C.2   207  VAL207      0.2287
    128  O        -18.6990   -1.8660   36.0840 O.2   207  VAL207     -0.2864
    129  CB       -16.2370   -2.2450   37.7550 C.3   207  VAL207      0.0276
    130  CG1      -14.7820   -1.9560   38.1350 C.3   207  VAL207      0.0022
    131  CG2      -16.9140   -3.1590   38.7770 C.3   207  VAL207      0.0022
    132  N        -17.5070   -2.9620   33.6940 N.3   211  VAL211     -0.1245
    133  CA       -16.7150   -4.1760   33.7660 C.3   211  VAL211      0.1561
    134  C        -17.4650   -5.1860   34.6140 C.2   211  VAL211      0.2260
    135  O        -17.7490   -4.9270   35.7800 O.2   211  VAL211     -0.2867
    136  CB       -15.3150   -3.9160   34.3710 C.3   211  VAL211      0.0252
    137  CG1      -14.6130   -5.2240   34.6970 C.3   211  VAL211      0.0019
    138  CG2      -14.4680   -3.0910   33.4210 C.3   211  VAL211      0.0019
    139  N        -17.2190   -8.9290   36.0710 N.3   213  MET213     -0.1245
    140  CA       -16.5990  -10.1540   36.5090 C.3   213  MET213      0.1570
    141  C        -16.7340   -9.9710   38.0000 C.2   213  MET213      0.2261
    142  O        -17.2110   -8.9390   38.4480 O.2   213  MET213     -0.2867
    143  CB       -15.1180  -10.1530   36.1430 C.3   213  MET213      0.0387
    144  CG       -14.4460   -8.7960   36.3150 C.3   213  MET213      0.0595
    145  SD       -12.6430   -8.8080   36.2460 S.3   213  MET213     -0.1393
    146  CE       -12.3730   -8.8250   34.4810 C.3   213  MET213      0.0692
@<TRIPOS>BOND
     1    59    60    1
     2    59    56    1
     3    60    61    1
     4    61    55    1
     5    56    55    1
     6    56    57    1
     7    55    45   am
     8    57    58    2
     9    45    44    1
    10    45    46    2
    11    43    44    1
    12    44    47    1
    13    47    48    1
    14    62    63    1
    15    49    48   ar
    16    49    51   ar
    17    48    50   ar
    18    19    18    2
    19    18    17    1
    20    64    63    1
    21    64    65    2
    22    51    53   ar
    23   138   136    1
    24    50    52   ar
    25   132   133    1
    26    63    66    1
    27   133   136    1
    28   133   134    1
    29    53    52   ar
    30    53    54    1
    31    20    17    1
    32    20    21    1
    33    22    21    1
    34   136   137    1
    35    17    16    1
    36    68    66    1
    37   146   145    1
    38   134   135    2
    39    66    67    1
    40    21    23    1
    41    41    40    2
    42    33    32    2
    43    39    42    1
    44    39    40    1
    45    39    38    1
    46   139   140    1
    47   128   127    2
    48    69    70    1
    49   143   144    1
    50   143   140    1
    51   145   144    1
    52    32    38   am
    53    32    31    1
    54   140   141    1
    55    71    70    1
    56    71    72    2
    57    34    31    1
    58    34    35    1
    59   127   126    1
    60    36    35    1
    61   123   122    2
    62    70    73    1
    63    31    30    1
    64    73    74    1
    65   126   129    1
    66   126   125    1
    67   129   130    1
    68   129   131    1
    69    35    37    1
    70   141   142    2
    71    76    74   ar
    72    76    78   ar
    73   122   125   am
    74   122   121    1
    75    74    75   ar
    76    30    26   am
    77    27    26    2
    78    78    79   ar
    79    14    13    1
    80    26    25    1
    81   121   124    1
    82   121   120    1
    83    11    10    1
    84    11    12    2
    85    13    10    1
    86    13    15    1
    87   100    98    1
    88    75    77   ar
    89    10     9    1
    90    28    25    1
    91    28    29    1
    92    97    98    1
    93    97    94    1
    94    99    98    1
    95    79    77   ar
    96    79    80    1
    97    25    24    1
    98    93    94    1
    99    93    91   am
   100    90    91    1
   101    90    89    1
   102    84    83    2
   103   118   117    2
   104    94    95    1
   105    91    92    2
   106    89    83   am
   107    83    82    1
   108   117   116    1
   109    95    96    2
   110    81    82    1
   111   116   119    1
   112   116   115    1
   113    82    85    1
   114   111   110    2
   115     8     6    1
   116   115   110   am
   117   110   109    1
   118    85    86    1
   119     7     5    1
   120   114   112    1
   121     5     6    1
   122     5     2    1
   123    86    88    1
   124    86    87    1
   125   109   112    1
   126   109   108    1
   127     3     2    1
   128     3     4    2
   129     2     1    1
   130   112   113    1
   131   104   103    2
   132   106   105    1
   133   101   102    1
   134   103   102    1
   135   102   105    1
   136   105   107    1
