@<TRIPOS>MOLECULE
tmp/4k1wA00.pdb
 152 143 0 0 0
SMALL
GASTEIGER

@<TRIPOS>ATOM
      1  N         -6.7150   19.9970  -11.1070 N.3    47  ASN47      -0.1240
      2  CA        -7.8680   19.1010  -11.1140 C.3    47  ASN47       0.1653
      3  C         -7.7680   17.9900  -12.1580 C.2    47  ASN47       0.2266
      4  O         -7.6600   18.2600  -13.3570 O.2    47  ASN47      -0.2867
      5  CB        -9.1370   19.9160  -11.3570 C.3    47  ASN47       0.1155
      6  CG       -10.3980   19.1630  -10.9930 C.2    47  ASN47       0.2627
      7  OD1      -10.3560   18.1640  -10.2690 O.2    47  ASN47      -0.2716
      8  ND2      -11.5400   19.6520  -11.4810 N.am   47  ASN47      -0.0877
      9  N        -19.5160   36.3430   -9.3180 N.3   130  TYR130     -0.1241
     10  CA       -20.6660   35.7220   -9.9480 C.3   130  TYR130      0.1605
     11  C        -20.8300   34.2930   -9.4410 C.2   130  TYR130      0.2264
     12  O        -19.8500   33.6300   -9.0800 O.2   130  TYR130     -0.2867
     13  CB       -20.5920   35.7800  -11.4840 C.3   130  TYR130      0.0534
     14  CG       -19.5300   34.9240  -12.1410 C.ar  130  TYR130     -0.0201
     15  CD1      -19.8070   33.6230  -12.5490 C.ar  130  TYR130     -0.0009
     16  CD2      -18.2650   35.4340  -12.4040 C.ar  130  TYR130     -0.0009
     17  CE1      -18.8350   32.8450  -13.1770 C.ar  130  TYR130      0.0417
     18  CE2      -17.2940   34.6740  -13.0340 C.ar  130  TYR130      0.0417
     19  CZ       -17.5820   33.3810  -13.4180 C.ar  130  TYR130      0.1957
     20  OH       -16.6230   32.6180  -14.0420 O.3   130  TYR130     -0.2866
     21  N        -23.2150   30.4270  -10.0490 N.3   132  HIS132     -0.1241
     22  CA       -23.5060   29.4740  -11.1300 C.3   132  HIS132      0.1621
     23  C        -24.9580   29.0080  -11.0990 C.2   132  HIS132      0.2264
     24  O        -25.3320   28.1400  -10.3090 O.2   132  HIS132     -0.2867
     25  CB       -22.6060   28.2360  -11.0170 C.3   132  HIS132      0.0745
     26  CG       -21.1770   28.4840  -11.3910 C.ar  132  HIS132      0.0817
     27  ND1      -20.3170   27.4660  -11.7480 N.ar  132  HIS132     -0.2268
     28  CD2      -20.4590   29.6290  -11.4680 C.ar  132  HIS132      0.1154
     29  CE1      -19.1300   27.9750  -12.0250 C.ar  132  HIS132      0.1986
     30  NE2      -19.1880   29.2850  -11.8600 N.ar  132  HIS132     -0.2212
     31  N        -23.8020   33.5620  -13.7820 N.3   157  ARG157     -0.1245
     32  CA       -23.5390   32.7750  -14.9750 C.3   157  ARG157      0.1563
     33  C        -24.6940   31.8160  -15.1940 C.2   157  ARG157      0.2260
     34  O        -25.0570   31.0600  -14.2900 O.2   157  ARG157     -0.2867
     35  CB       -22.2470   31.9660  -14.8290 C.3   157  ARG157      0.0307
     36  CG       -21.8550   31.2900  -16.1260 C.3   157  ARG157      0.0489
     37  CD       -20.7280   30.3160  -15.9170 C.3   157  ARG157      0.2205
     38  NE       -21.1780   29.0750  -15.3000 N.pl3 157  ARG157     -0.0865
     39  CZ       -20.4470   27.9660  -15.2860 C.cat 157  ARG157      0.5346
     40  NH1      -19.2450   27.9630  -15.8580 N.pl3 157  ARG157      0.1354
     41  NH2      -20.9120   26.8680  -14.7090 N.pl3 157  ARG157      0.1354
     42  N        -20.7130   30.6370  -20.3450 N.3   203  ASP203     -0.1239
     43  CA       -19.4620   29.9230  -20.6080 C.3   203  ASP203      0.1674
     44  C        -19.7020   28.9800  -21.7950 C.2   203  ASP203      0.2266
     45  O        -20.4650   28.0100  -21.6940 O.2   203  ASP203     -0.2867
     46  CB       -19.0550   29.1530  -19.3420 C.3   203  ASP203      0.1410
     47  CG       -17.6490   28.5420  -19.4180 C.2   203  ASP203      0.3668
     48  OD1      -17.0780   28.4080  -20.5270 O.co2 203  ASP203     -0.2456
     49  OD2      -17.1280   28.1700  -18.3370 O.co2 203  ASP203     -0.2456
     50  N        -17.5040   27.1350  -23.0560 N.3   205  HIS205     -0.1241
     51  CA       -16.7760   25.9140  -22.7090 C.3   205  HIS205      0.1621
     52  C        -16.1170   25.2160  -23.9070 C.2   205  HIS205      0.2264
     53  O        -16.1830   23.9910  -24.0610 O.2   205  HIS205     -0.2867
     54  CB       -17.6600   24.9540  -21.8730 C.3   205  HIS205      0.0745
     55  CG       -17.0100   24.5010  -20.5990 C.ar  205  HIS205      0.0817
     56  ND1      -16.3160   23.3110  -20.5000 N.ar  205  HIS205     -0.2268
     57  CD2      -16.9160   25.0900  -19.3840 C.ar  205  HIS205      0.1154
     58  CE1      -15.8330   23.1830  -19.2780 C.ar  205  HIS205      0.1986
     59  NE2      -16.1770   24.2530  -18.5820 N.ar  205  HIS205     -0.2212
     60  N        -17.6890   33.4500  -22.5160 N.3   229  GLU229     -0.1245
     61  CA       -16.3870   32.9500  -22.0560 C.3   229  GLU229      0.1567
     62  C        -15.9500   31.7140  -22.8220 C.2   229  GLU229      0.2260
     63  O        -16.7880   30.8920  -23.2170 O.2   229  GLU229     -0.2867
     64  CB       -16.5030   32.6150  -20.5550 C.3   229  GLU229      0.0388
     65  CG       -15.4740   31.6310  -19.9930 C.3   229  GLU229      0.1160
     66  CD       -15.8220   31.1950  -18.5820 C.2   229  GLU229      0.3649
     67  OE1      -15.1460   30.2740  -18.0650 O.co2 229  GLU229     -0.2457
     68  OE2      -16.7710   31.7780  -17.9840 O.co2 229  GLU229     -0.2457
     69  N         -9.0310   30.5710  -18.2140 N.3   255  GLU255     -0.1245
     70  CA        -8.9440   29.7540  -17.0000 C.3   255  GLU255      0.1567
     71  C         -7.8830   28.6730  -17.1320 C.2   255  GLU255      0.2260
     72  O         -7.2320   28.3250  -16.1490 O.2   255  GLU255     -0.2867
     73  CB       -10.2900   29.1140  -16.6470 C.3   255  GLU255      0.0388
     74  CG       -10.7370   28.0020  -17.5770 C.3   255  GLU255      0.1160
     75  CD       -12.1980   27.6280  -17.3570 C.2   255  GLU255      0.3649
     76  OE1      -13.0310   28.5500  -17.3880 O.co2 255  GLU255     -0.2457
     77  OE2      -12.5000   26.4310  -17.1520 O.co2 255  GLU255     -0.2457
     78  N         -9.0180   35.5090  -17.6540 N.3   276  ARG276     -0.1245
     79  CA        -9.5210   34.6220  -16.6130 C.3   276  ARG276      0.1563
     80  C         -8.4270   33.8390  -15.9030 C.2   276  ARG276      0.2260
     81  O         -8.7400   32.9740  -15.0880 O.2   276  ARG276     -0.2867
     82  CB       -10.4930   33.6070  -17.2250 C.3   276  ARG276      0.0307
     83  CG       -11.6040   34.2330  -18.0310 C.3   276  ARG276      0.0489
     84  CD       -12.8940   34.1940  -17.2850 C.3   276  ARG276      0.2205
     85  NE       -13.3140   32.8390  -16.9410 N.pl3 276  ARG276     -0.0865
     86  CZ       -13.7500   32.4890  -15.7340 C.cat 276  ARG276      0.5346
     87  NH1      -13.7970   33.3900  -14.7590 N.pl3 276  ARG276      0.1354
     88  NH2      -14.1580   31.2430  -15.4960 N.pl3 276  ARG276      0.1354
     89  N        -10.9800   32.9810  -12.7770 N.3   305  HIS305     -0.1241
     90  CA       -11.6440   31.6960  -12.6020 C.3   305  HIS305      0.1621
     91  C        -11.5640   31.2840  -11.1230 C.2   305  HIS305      0.2264
     92  O        -10.6110   31.6220  -10.4140 O.2   305  HIS305     -0.2867
     93  CB       -10.9040   30.7560  -13.5600 C.3   305  HIS305      0.0745
     94  CG       -11.2340   29.3020  -13.4620 C.ar  305  HIS305      0.0817
     95  ND1      -10.2810   28.3620  -13.1310 N.ar  305  HIS305     -0.2268
     96  CD2      -12.3470   28.6060  -13.7970 C.ar  305  HIS305      0.1154
     97  CE1      -10.8110   27.1530  -13.2080 C.ar  305  HIS305      0.1986
     98  NE2      -12.0620   27.2740  -13.6110 N.ar  305  HIS305     -0.2212
     99  N        -13.4170   28.0110   -9.4880 N.3   307  PRO307     -0.2116
    100  CA       -14.2430   26.8420   -9.1910 C.3   307  PRO307      0.1372
    101  C        -13.7850   26.2480   -7.8690 C.2   307  PRO307      0.2244
    102  O        -12.8420   26.7670   -7.2670 O.2   307  PRO307     -0.2868
    103  CB       -13.8890   25.8970  -10.3280 C.3   307  PRO307      0.0268
    104  CG       -12.4330   26.1780  -10.5310 C.3   307  PRO307      0.0207
    105  CD       -12.2360   27.6460  -10.2910 C.3   307  PRO307      0.0892
    106  N        -12.1870   23.6420   -7.3860 N.3   309  ASP309     -0.1239
    107  CA       -10.9070   22.9280   -7.5210 C.3   309  ASP309      0.1674
    108  C         -9.6790   23.8440   -7.3880 C.2   309  ASP309      0.2266
    109  O         -8.5370   23.3990   -7.5100 O.2   309  ASP309     -0.2867
    110  CB       -10.8520   22.0570   -8.7930 C.3   309  ASP309      0.1410
    111  CG       -11.0640   22.8450  -10.0750 C.2   309  ASP309      0.3668
    112  OD1      -12.2190   23.2070  -10.3760 O.co2 309  ASP309     -0.2456
    113  OD2      -10.0810   23.0580  -10.8160 O.co2 309  ASP309     -0.2456
    114  N        -14.8640   34.8660  -10.0000 N.3   332  GLU332     -0.1245
    115  CA       -15.7470   33.7060   -9.9460 C.3   332  GLU332      0.1567
    116  C        -15.7190   33.1300   -8.5370 C.2   332  GLU332      0.2260
    117  O        -14.6600   33.0730   -7.9150 O.2   332  GLU332     -0.2867
    118  CB       -15.2960   32.6560  -10.9660 C.3   332  GLU332      0.0388
    119  CG       -16.1750   31.4160  -10.9780 C.3   332  GLU332      0.1160
    120  CD       -15.8290   30.4530  -12.1000 C.2   332  GLU332      0.3649
    121  OE1      -14.6850   30.4750  -12.6030 O.co2 332  GLU332     -0.2457
    122  OE2      -16.7270   29.6940  -12.5030 O.co2 332  GLU332     -0.2457
    123  N        -17.3160   29.7260   -6.5130 N.3   334  MET334     -0.1245
    124  CA       -18.0900   28.5240   -6.1920 C.3   334  MET334      0.1570
    125  C        -17.7430   28.1180   -4.7670 C.2   334  MET334      0.2261
    126  O        -16.5690   27.9770   -4.4330 O.2   334  MET334     -0.2867
    127  CB       -17.7210   27.3660   -7.1200 C.3   334  MET334      0.0387
    128  CG       -18.0520   27.5430   -8.5840 C.3   334  MET334      0.0595
    129  SD       -17.6850   26.0080   -9.4690 S.3   334  MET334     -0.1393
    130  CE       -18.9160   24.9180   -8.7590 C.3   334  MET334      0.0692
    131  N        -12.0010   14.9220  -14.6360 N.3   382  LEU382     -0.1245
    132  CA       -12.8880   15.8010  -15.3910 C.3   382  LEU382      0.1561
    133  C        -13.5540   15.0130  -16.5090 C.2   382  LEU382      0.2260
    134  O        -12.9570   14.0750  -17.0450 O.2   382  LEU382     -0.2867
    135  CB       -12.0840   16.9510  -15.9960 C.3   382  LEU382      0.0270
    136  CG       -11.7010   18.0430  -15.0050 C.3   382  LEU382      0.0019
    137  CD1      -10.8870   19.1320  -15.7030 C.3   382  LEU382      0.0001
    138  CD2      -12.9710   18.6000  -14.3830 C.3   382  LEU382      0.0001
    139  N        -14.3370   19.2750  -24.0220 N.3   395  TRP395     -0.1241
    140  CA       -15.3330   19.3550  -22.9650 C.3   395  TRP395      0.1605
    141  C        -15.3200   20.7510  -22.3570 C.2   395  TRP395      0.2264
    142  O        -14.2630   21.3920  -22.2420 O.2   395  TRP395     -0.2867
    143  CB       -15.1310   18.2840  -21.8860 C.3   395  TRP395      0.0550
    144  CG       -16.0530   18.5000  -20.7090 C.ar  395  TRP395      0.0003
    145  CD1      -17.3730   18.1610  -20.6230 C.ar  395  TRP395      0.0946
    146  CD2      -15.7210   19.1340  -19.4660 C.ar  395  TRP395      0.0152
    147  NE1      -17.8810   18.5400  -19.4020 N.ar  395  TRP395     -0.2442
    148  CE2      -16.8850   19.1320  -18.6710 C.ar  395  TRP395      0.0810
    149  CE3      -14.5490   19.6910  -18.9450 C.ar  395  TRP395      0.0012
    150  CZ2      -16.9120   19.6740  -17.3880 C.ar  395  TRP395      0.0191
    151  CZ3      -14.5790   20.2260  -17.6620 C.ar  395  TRP395      0.0001
    152  CH2      -15.7510   20.2190  -16.9050 C.ar  395  TRP395      0.0015
@<TRIPOS>BOND
     1    53    52    2
     2   139   140    1
     3    52    51    1
     4    63    62    2
     5    50    51    1
     6   140   141    1
     7   140   143    1
     8    62    61    1
     9    51    54    1
    10    60    61    1
    11   141   142    2
    12    61    64    1
    13   143   144    1
    14    54    55    1
    15    44    45    2
    16    44    43    1
    17   144   145   ar
    18   144   146   ar
    19   145   147   ar
    20    43    42    1
    21    43    46    1
    22    55    56   ar
    23    55    57   ar
    24    64    65    1
    25    48    47   ar
    26    56    58   ar
    27    65    66    1
    28   146   149   ar
    29   146   148   ar
    30    47    46    1
    31    47    49   ar
    32   147   148   ar
    33    57    59   ar
    34    58    59   ar
    35   149   151   ar
    36   148   150   ar
    37    66    67   ar
    38    66    68   ar
    39    69    70    1
    40    83    84    1
    41    83    82    1
    42   151   152   ar
    43    78    79    1
    44    74    75    1
    45    74    73    1
    46    76    75   ar
    47   150   152   ar
    48    75    77   ar
    49    84    85    1
    50    82    79    1
    51    71    70    1
    52    71    72    2
    53   134   133    2
    54    70    73    1
    55    85    86    2
    56    79    80    1
    57   133   132    1
    58    36    37    1
    59    36    35    1
    60   135   132    1
    61   135   136    1
    62    37    38    1
    63    80    81    2
    64    40    39    1
    65    86    88    1
    66    86    87    1
    67   137   136    1
    68   132   131    1
    69    38    39    2
    70    39    41    1
    71    33    32    1
    72    33    34    2
    73   136   138    1
    74    32    35    1
    75    32    31    1
    76    20    19    1
    77    96    98   ar
    78    96    94   ar
    79    98    97   ar
    80    93    94    1
    81    93    90    1
    82    94    95   ar
    83    19    17   ar
    84    19    18   ar
    85     4     3    2
    86    97    95   ar
    87    17    15   ar
    88    18    16   ar
    89    89    90    1
    90   121   120   ar
    91    90    91    1
    92    15    14   ar
    93   122   120   ar
    94    16    14   ar
    95     3     2    1
    96    14    13    1
    97   120   119    1
    98    29    30   ar
    99    29    27   ar
   100    30    28   ar
   101    27    26   ar
   102    13    10    1
   103     8     6   am
   104    28    26   ar
   105    26    25    1
   106     5     2    1
   107     5     6    1
   108    22    23    1
   109    22    25    1
   110    22    21    1
   111    91    92    2
   112     2     1    1
   113    23    24    2
   114     6     7    2
   115   119   118    1
   116   118   115    1
   117   113   111   ar
   118   104   103    1
   119   104   105    1
   120   112   111   ar
   121   103   100    1
   122   105    99    1
   123   111   110    1
   124   114   115    1
   125    10    11    1
   126    10     9    1
   127   115   116    1
   128    99   100    1
   129   129   130    1
   130   129   128    1
   131    11    12    2
   132   100   101    1
   133   110   107    1
   134   128   127    1
   135   116   117    2
   136   101   102    2
   137   107   108    1
   138   107   106    1
   139   109   108    2
   140   127   124    1
   141   123   124    1
   142   124   125    1
   143   125   126    2
