@<TRIPOS>MOLECULE
tmp/4k26B00.pdb
 142 132 0 0 0
SMALL
GASTEIGER

@<TRIPOS>ATOM
      1  N         19.6200  -40.8550   10.5220 N.3    97  ILE97      -0.1245
      2  CA        20.7360  -40.0700   11.0380 C.3    97  ILE97       0.1561
      3  C         21.6060  -40.9970   11.8750 C.2    97  ILE97       0.2260
      4  O         21.1470  -42.0520   12.3130 O.2    97  ILE97      -0.2867
      5  CB        20.3100  -38.8190   11.8630 C.3    97  ILE97       0.0252
      6  CG1       19.3160  -39.1670   13.0120 C.3    97  ILE97       0.0019
      7  CG2       19.8560  -37.6620   10.9590 C.3    97  ILE97       0.0019
      8  CD1       19.2160  -38.0770   14.2170 C.3    97  ILE97       0.0001
      9  N         23.3470  -39.1150   17.7730 N.3   100  THR100     -0.1218
     10  CA        23.7120  -37.7290   18.0580 C.3   100  THR100      0.1862
     11  C         23.4170  -37.3130   19.4740 C.2   100  THR100      0.2287
     12  O         22.2660  -37.3120   19.9160 O.2   100  THR100     -0.2866
     13  CB        23.2130  -36.7500   16.9600 C.3   100  THR100      0.1770
     14  OG1       23.1340  -35.4090   17.4570 O.3   100  THR100     -0.2211
     15  CG2       21.8930  -37.1480   16.3820 C.3   100  THR100      0.0375
     16  N         24.3910  -34.2860   22.5740 N.3   102  LEU102     -0.1245
     17  CA        24.7110  -32.8650   22.6730 C.3   102  LEU102      0.1561
     18  C         25.9530  -32.6600   23.5100 C.2   102  LEU102      0.2260
     19  O         26.0080  -33.0770   24.6730 O.2   102  LEU102     -0.2867
     20  CB        23.5390  -32.0760   23.2760 C.3   102  LEU102      0.0270
     21  CG        22.4270  -31.6120   22.3060 C.3   102  LEU102      0.0019
     22  CD1       21.7670  -32.7840   21.5760 C.3   102  LEU102      0.0001
     23  CD2       21.3620  -30.9230   23.0570 C.3   102  LEU102      0.0001
     24  N         15.9150  -30.5080   10.0500 N.3   146  SER146     -0.1202
     25  CA        15.4860  -29.9370   11.3360 C.3   146  SER146      0.2020
     26  C         15.6630  -28.4430   11.3430 C.2   146  SER146      0.2619
     27  O         16.1880  -27.8900   10.3740 O.2   146  SER146     -0.2717
     28  CB        16.3320  -30.5020   12.4740 C.3   146  SER146      0.2103
     29  OG        17.4170  -31.2880   12.0140 O.3   146  SER146     -0.2182
     30  N         15.2970  -27.7870   12.4780 N.am  147  LEU147     -0.1965
     31  CA        15.5180  -26.3410   12.6590 C.3   147  LEU147      0.1728
     32  C         17.0280  -26.0550   12.5630 C.2   147  LEU147      0.2616
     33  O         17.4280  -25.0440   11.9910 O.2   147  LEU147     -0.2715
     34  CB        14.9730  -25.8330   14.0050 C.3   147  LEU147      0.0311
     35  CG        13.4580  -25.9770   14.3240 C.3   147  LEU147      0.0022
     36  CD1       13.0500  -25.0220   15.4090 C.3   147  LEU147      0.0001
     37  CD2       12.5580  -25.7850   13.0890 C.3   147  LEU147      0.0001
     38  N         17.8530  -26.9820   13.0790 N.am  148  ALA148     -0.1977
     39  CA        19.3230  -26.9230   13.0600 C.3   148  ALA148      0.1597
     40  C         19.9390  -27.0820   11.6480 C.2   148  ALA148      0.2287
     41  O         21.1690  -27.0260   11.5140 O.2   148  ALA148     -0.2864
     42  CB        19.9120  -27.9520   14.0170 C.3   148  ALA148      0.0319
     43  N         22.4380  -23.5730   16.5900 N.3   153  GLN153     -0.1231
     44  CA        22.2750  -23.6550   18.0400 C.3   153  GLN153      0.1683
     45  C         23.4040  -24.5060   18.5960 C.2   153  GLN153      0.2434
     46  O         23.9060  -25.4000   17.9100 O.2   153  GLN153     -0.2733
     47  CB        20.8940  -24.1820   18.4480 C.3   153  GLN153      0.0380
     48  CG        20.5020  -25.5100   17.8420 C.3   153  GLN153      0.0905
     49  CD        19.0550  -25.7830   18.1320 C.2   153  GLN153      0.2608
     50  OE1       18.1990  -25.6890   17.2540 O.2   153  GLN153     -0.2717
     51  NE2       18.7490  -26.1060   19.3870 N.am  153  GLN153     -0.0878
     52  N         23.8570  -24.2170   19.8170 N.am  154  PRO154     -0.2729
     53  CA        25.0070  -24.9560   20.3480 C.3   154  PRO154      0.1401
     54  C         24.8090  -26.4480   20.5440 C.2   154  PRO154      0.2269
     55  O         23.6860  -26.9430   20.6860 O.2   154  PRO154     -0.2865
     56  CB        25.2830  -24.2680   21.6940 C.3   154  PRO154      0.0296
     57  CG        24.5690  -22.9690   21.6290 C.3   154  PRO154      0.0237
     58  CD        23.3990  -23.1690   20.7560 C.3   154  PRO154      0.0939
     59  N         25.6550  -29.2090   18.6190 N.3   156  ILE156     -0.1245
     60  CA        25.3520  -30.1210   17.5140 C.3   156  ILE156      0.1561
     61  C         26.0400  -29.6740   16.2030 C.2   156  ILE156      0.2260
     62  O         25.4740  -29.8600   15.1180 O.2   156  ILE156     -0.2867
     63  CB        23.7990  -30.2390   17.3380 C.3   156  ILE156      0.0252
     64  CG1       23.1370  -28.8370   17.3190 C.3   156  ILE156      0.0019
     65  CG2       23.1580  -31.1770   18.3920 C.3   156  ILE156      0.0019
     66  CD1       21.8270  -28.7920   16.7190 C.3   156  ILE156      0.0001
     67  N         26.0810  -32.3970   13.2430 N.3   159  TYR159     -0.1241
     68  CA        24.6940  -32.6680   12.8620 C.3   159  TYR159      0.1605
     69  C         24.1810  -31.5010   11.9890 C.2   159  TYR159      0.2264
     70  O         23.7200  -31.7170   10.8740 O.2   159  TYR159     -0.2867
     71  CB        23.8270  -32.8500   14.1120 C.3   159  TYR159      0.0534
     72  CG        22.3460  -32.9670   13.8220 C.ar  159  TYR159     -0.0201
     73  CD1       21.7840  -34.1820   13.4270 C.ar  159  TYR159     -0.0009
     74  CD2       21.5050  -31.8650   13.9350 C.ar  159  TYR159     -0.0009
     75  CE1       20.4180  -34.2980   13.1650 C.ar  159  TYR159      0.0417
     76  CE2       20.1340  -31.9700   13.6810 C.ar  159  TYR159      0.0417
     77  CZ        19.5930  -33.1900   13.3120 C.ar  159  TYR159      0.1957
     78  OH        18.2380  -33.2910   13.0890 O.3   159  TYR159     -0.2866
     79  N         11.9680  -29.9370   10.5480 N.3   191  LEU191     -0.1231
     80  CA        11.2580  -30.3380   11.7530 C.3   191  LEU191      0.1693
     81  C         11.7820  -29.6950   13.0290 C.2   191  LEU191      0.2593
     82  O         12.9940  -29.6180   13.2320 O.2   191  LEU191     -0.2718
     83  CB        11.3190  -31.8720   11.9230 C.3   191  LEU191      0.0284
     84  CG        10.9150  -32.7890   10.7340 C.3   191  LEU191      0.0019
     85  CD1       11.0230  -34.2320   11.1460 C.3   191  LEU191      0.0001
     86  CD2        9.5000  -32.5320   10.2630 C.3   191  LEU191      0.0001
     87  N         10.8540  -29.3190   13.9110 N.am  192  GLY192     -0.1942
     88  CA        11.1990  -28.8280   15.2390 C.3   192  GLY192      0.2014
     89  C         11.3990  -30.0240   16.1510 C.2   192  GLY192      0.2638
     90  O         11.4880  -31.1580   15.6640 O.2   192  GLY192     -0.2714
     91  N         11.4340  -29.8030   17.4810 N.am  193  LEU193     -0.1977
     92  CA        11.6110  -30.8990   18.4230 C.3   193  LEU193      0.1596
     93  C         10.4090  -31.8420   18.3760 C.2   193  LEU193      0.2287
     94  O          9.2650  -31.3890   18.4450 O.2   193  LEU193     -0.2864
     95  CB        11.8220  -30.3300   19.8340 C.3   193  LEU193      0.0297
     96  CG        12.0170  -31.3350   20.9800 C.3   193  LEU193      0.0022
     97  CD1       13.3520  -32.0780   20.8580 C.3   193  LEU193      0.0001
     98  CD2       11.8930  -30.6210   22.3410 C.3   193  LEU193      0.0001
     99  N         10.2480  -38.0930   20.2830 N.3   196  THR196     -0.1218
    100  CA        10.6950  -39.4680   20.0820 C.3   196  THR196      0.1862
    101  C         11.5010  -39.8420   21.3130 C.2   196  THR196      0.2287
    102  O         11.9690  -38.9480   22.0080 O.2   196  THR196     -0.2866
    103  CB        11.5140  -39.6190   18.7780 C.3   196  THR196      0.1770
    104  OG1       12.6600  -38.7750   18.8510 O.3   196  THR196     -0.2211
    105  CG2       10.6990  -39.2980   17.5160 C.3   196  THR196      0.0375
    106  N         14.5070  -41.1590   21.4110 N.3   198  THR198     -0.1203
    107  CA        15.8760  -40.6800   21.2090 C.3   198  THR198      0.1994
    108  C         16.0220  -39.1980   21.5390 C.2   198  THR198      0.2617
    109  O         16.9120  -38.8400   22.3140 O.2   198  THR198     -0.2717
    110  CB        16.3680  -40.9640   19.7710 C.3   198  THR198      0.1784
    111  OG1       16.2380  -42.3540   19.4940 O.3   198  THR198     -0.2211
    112  CG2       17.8160  -40.5430   19.5570 C.3   198  THR198      0.0376
    113  N         15.1930  -38.3380   20.9100 N.am  199  ALA199     -0.1979
    114  CA        15.2890  -36.8890   21.0880 C.3   199  ALA199      0.1597
    115  C         15.0330  -36.4420   22.5120 C.2   199  ALA199      0.2287
    116  O         15.7020  -35.5310   22.9840 O.2   199  ALA199     -0.2864
    117  CB        14.3640  -36.1650   20.1150 C.3   199  ALA199      0.0319
    118  N         18.1730  -37.5310   24.7210 N.3   202  GLU202     -0.1231
    119  CA        19.3420  -36.7110   24.4110 C.3   202  GLU202      0.1699
    120  C         19.3150  -35.2980   24.9650 C.2   202  GLU202      0.2592
    121  O         20.3690  -34.7890   25.3430 O.2   202  GLU202     -0.2718
    122  CB        19.6790  -36.7170   22.9040 C.3   202  GLU202      0.0402
    123  CG        20.2100  -38.0540   22.4020 C.3   202  GLU202      0.1161
    124  CD        21.3250  -38.7360   23.1820 C.2   202  GLU202      0.3649
    125  OE1       22.2090  -38.0400   23.7360 O.co2 202  GLU202     -0.2457
    126  OE2       21.3210  -39.9870   23.2160 O.co2 202  GLU202     -0.2457
    127  N         18.1270  -34.6850   25.0590 N.am  203  ILE203     -0.1980
    128  CA        18.0180  -33.3240   25.5920 C.3   203  ILE203      0.1595
    129  C         17.8790  -33.2540   27.1210 C.2   203  ILE203      0.2287
    130  O         17.9090  -32.1520   27.6780 O.2   203  ILE203     -0.2864
    131  CB        16.9540  -32.4610   24.8490 C.3   203  ILE203      0.0276
    132  CG1       15.5020  -32.9500   25.1170 C.3   203  ILE203      0.0022
    133  CG2       17.2880  -32.3580   23.3840 C.3   203  ILE203      0.0022
    134  CD1       14.3760  -31.8940   24.9040 C.3   203  ILE203      0.0001
    135  N         18.3170  -29.2530   27.3440 N.3   207  ILE207     -0.1245
    136  CA        17.3350  -28.3430   26.7390 C.3   207  ILE207      0.1561
    137  C         15.9670  -28.6260   27.3290 C.2   207  ILE207      0.2260
    138  O         15.5740  -29.7820   27.4700 O.2   207  ILE207     -0.2867
    139  CB        17.3320  -28.4460   25.1700 C.3   207  ILE207      0.0252
    140  CG1       18.7070  -28.0560   24.5660 C.3   207  ILE207      0.0019
    141  CG2       16.1680  -27.6420   24.5070 C.3   207  ILE207      0.0019
    142  CD1       18.8400  -28.3020   23.0420 C.3   207  ILE207      0.0001
@<TRIPOS>BOND
     1    24    25    1
     2    86    84    1
     3    27    26    2
     4     1     2    1
     5    79    80    1
     6    84    85    1
     7    84    83    1
     8    70    69    2
     9     7     5    1
    10     2     5    1
    11     2     3    1
    12    25    26    1
    13    25    28    1
    14    26    30   am
    15    41    40    2
    16    40    39    1
    17    80    83    1
    18    80    81    1
    19     5     6    1
    20     3     4    2
    21    69    68    1
    22    33    32    2
    23    29    28    1
    24    30    31    1
    25    32    31    1
    26    32    38   am
    27    31    34    1
    28    68    67    1
    29    68    71    1
    30     6     8    1
    31    81    82    2
    32    81    87   am
    33    39    38    1
    34    39    42    1
    35    78    77    1
    36    37    35    1
    37    75    77   ar
    38    75    73   ar
    39    77    76   ar
    40    73    72   ar
    41    76    74   ar
    42    72    74   ar
    43    72    71    1
    44    87    88    1
    45    34    35    1
    46    35    36    1
    47    62    61    2
    48    88    89    1
    49    90    89    2
    50    89    91   am
    51    61    60    1
    52    15    13    1
    53    43    44    1
    54    66    64    1
    55    13    14    1
    56    13    10    1
    57    50    49    2
    58    64    63    1
    59    63    60    1
    60    63    65    1
    61    91    92    1
    62    60    59    1
    63   105   103    1
    64     9    10    1
    65    48    49    1
    66    48    47    1
    67    46    45    2
    68    44    47    1
    69    44    45    1
    70    10    11    1
    71    49    51   am
    72    93    92    1
    73    93    94    2
    74    92    95    1
    75    45    52   am
    76   103   104    1
    77   103   100    1
    78    11    12    2
    79   111   110    1
    80   112   110    1
    81   110   107    1
    82    52    53    1
    83    52    58    1
    84    95    96    1
    85   100    99    1
    86   100   101    1
    87   117   114    1
    88    53    54    1
    89    53    56    1
    90    54    55    2
    91    58    57    1
    92    97    96    1
    93   113   114    1
    94   113   108   am
    95    96    98    1
    96   114   115    1
    97   107   106    1
    98   107   108    1
    99   101   102    2
   100   108   109    2
   101    22    21    1
   102    57    56    1
   103    21    23    1
   104    21    20    1
   105   123   122    1
   106   123   124    1
   107   115   116    2
   108    16    17    1
   109    17    20    1
   110    17    18    1
   111   122   119    1
   112   142   140    1
   113   124   126   ar
   114   124   125   ar
   115   133   131    1
   116    18    19    2
   117   119   118    1
   118   119   120    1
   119   141   139    1
   120   140   139    1
   121   131   132    1
   122   131   128    1
   123   134   132    1
   124   120   127   am
   125   120   121    2
   126   127   128    1
   127   139   136    1
   128   128   129    1
   129   136   137    1
   130   136   135    1
   131   129   130    2
   132   137   138    2
