@<TRIPOS>MOLECULE
tmp/4k28B00.pdb
 176 165 0 0 0
SMALL
GASTEIGER

@<TRIPOS>ATOM
      1  N         -4.6040   36.9610  -24.9980 N.3    66  VAL66      -0.1245
      2  CA        -3.9940   38.0980  -24.3090 C.3    66  VAL66       0.1561
      3  C         -2.7120   38.5350  -25.0170 C.2    66  VAL66       0.2260
      4  O         -1.9790   37.7010  -25.5500 O.2    66  VAL66      -0.2867
      5  CB        -3.7180   37.8080  -22.8210 C.3    66  VAL66       0.0252
      6  CG1       -4.4900   36.5810  -22.3720 C.3    66  VAL66       0.0019
      7  CG2       -2.2260   37.6470  -22.5740 C.3    66  VAL66       0.0019
      8  N         -7.3630   41.2620  -26.3980 N.3    69  LYS69      -0.1245
      9  CA        -8.8080   41.0530  -26.4780 C.3    69  LYS69       0.1561
     10  C         -9.5930   42.3530  -26.5820 C.2    69  LYS69       0.2260
     11  O        -10.5140   42.4640  -27.3970 O.2    69  LYS69      -0.2867
     12  CB        -9.3260   40.2110  -25.3150 C.3    69  LYS69       0.0271
     13  CG        -8.9160   38.7590  -25.3890 C.3    69  LYS69       0.0035
     14  CD        -9.5890   37.9390  -24.2940 C.3    69  LYS69       0.0206
     15  CE        -9.3230   36.4670  -24.5130 C.3    69  LYS69       0.1093
     16  NZ        -9.8440   35.6230  -23.4030 N.3    69  LYS69      -0.1314
     17  N        -16.2070   33.0890  -24.7380 N.3   106  ASP106     -0.1239
     18  CA       -15.8360   32.4440  -23.4750 C.3   106  ASP106      0.1674
     19  C        -17.0830   32.0770  -22.6440 C.2   106  ASP106      0.2266
     20  O        -17.1700   30.9870  -22.0920 O.2   106  ASP106     -0.2867
     21  CB       -14.8730   33.3060  -22.6460 C.3   106  ASP106      0.1410
     22  CG       -13.4240   33.2370  -23.1420 C.2   106  ASP106      0.3668
     23  OD1      -12.9650   32.1660  -23.6050 O.co2 106  ASP106     -0.2456
     24  OD2      -12.7410   34.2780  -23.0690 O.co2 106  ASP106     -0.2456
     25  N        -16.0740   33.6770   -9.3170 N.3   129  ILE129     -0.1231
     26  CA       -14.8640   34.1000   -8.6360 C.3   129  ILE129      0.1692
     27  C        -13.8550   34.5870   -9.6640 C.2   129  ILE129      0.2592
     28  O        -13.3130   33.7910  -10.4380 O.2   129  ILE129     -0.2718
     29  CB       -14.2800   32.9410   -7.8100 C.3   129  ILE129      0.0266
     30  CG1      -15.3370   32.4150   -6.8380 C.3   129  ILE129      0.0019
     31  CG2      -13.0390   33.3890   -7.0800 C.3   129  ILE129      0.0020
     32  CD1      -14.9090   31.1710   -6.0390 C.3   129  ILE129      0.0001
     33  N        -13.6200   35.9000   -9.6840 N.am  130  GLY130     -0.1957
     34  CA       -12.7820   36.5260  -10.7080 C.3   130  GLY130      0.1869
     35  C        -13.5740   37.3440  -11.7080 C.2   130  GLY130      0.2309
     36  O        -14.3300   36.8030  -12.5210 O.2   130  GLY130     -0.2863
     37  N        -12.3110   39.2130  -14.1340 N.3   132  GLY132     -0.1210
     38  CA       -11.4840   39.5340  -15.2860 C.3   132  GLY132      0.1956
     39  C        -12.1630   39.2410  -16.6130 C.2   132  GLY132      0.2612
     40  O        -13.3810   39.1980  -16.7020 O.2   132  GLY132     -0.2717
     41  N        -11.3640   39.0360  -17.6510 N.am  133  GLY133     -0.1942
     42  CA       -11.8910   38.9080  -18.9920 C.3   133  GLY133      0.2014
     43  C        -12.7770   37.6930  -19.1370 C.2   133  GLY133      0.2638
     44  O        -13.8240   37.7670  -19.7720 O.2   133  GLY133     -0.2714
     45  N        -12.3770   36.5750  -18.5390 N.am  134  VAL134     -0.1977
     46  CA       -13.1670   35.3580  -18.6580 C.3   134  VAL134      0.1596
     47  C        -14.3700   35.3730  -17.7070 C.2   134  VAL134      0.2287
     48  O        -15.4750   34.9680  -18.0810 O.2   134  VAL134     -0.2864
     49  CB       -12.3090   34.0790  -18.4920 C.3   134  VAL134      0.0276
     50  CG1      -13.1780   32.8350  -18.5510 C.3   134  VAL134      0.0022
     51  CG2      -11.2450   34.0380  -19.5880 C.3   134  VAL134      0.0022
     52  N        -16.8980   37.8740   -6.7620 N.3   153  CYS153     -0.1221
     53  CA       -15.7360   37.9930   -5.8910 C.3   153  CYS153      0.1808
     54  C        -14.4720   38.2980   -6.7090 C.2   153  CYS153      0.2601
     55  O        -14.1930   37.6320   -7.7100 O.2   153  CYS153     -0.2717
     56  CB       -15.5190   36.7120   -5.0680 C.3   153  CYS153      0.0970
     57  SG       -14.0420   36.8260   -3.9780 S.3   153  CYS153     -0.0800
     58  N        -13.7270   39.3140   -6.2800 N.am  154  ASP154     -0.1960
     59  CA       -12.4680   39.6780   -6.9090 C.3   154  ASP154      0.1825
     60  C        -11.8060   40.6990   -5.9990 C.2   154  ASP154      0.2464
     61  O        -12.4600   41.6350   -5.5650 O.2   154  ASP154     -0.2730
     62  CB       -12.7230   40.2790   -8.3000 C.3   154  ASP154      0.1450
     63  CG       -11.4660   40.3560   -9.1450 C.2   154  ASP154      0.3671
     64  OD1      -10.4220   40.7760   -8.6130 O.co2 154  ASP154     -0.2456
     65  OD2      -11.5190   40.0030  -10.3410 O.co2 154  ASP154     -0.2456
     66  N        -10.5150   40.5050   -5.6840 N.am  155  PRO155     -0.2715
     67  CA        -9.7760   41.4520   -4.8460 C.3   155  PRO155      0.1536
     68  C         -9.7490   42.8320   -5.5000 C.2   155  PRO155      0.2599
     69  O         -9.5470   43.8520   -4.8390 O.2   155  PRO155     -0.2715
     70  CB        -8.3580   40.8730   -4.8300 C.3   155  PRO155      0.0310
     71  CG        -8.5040   39.4450   -5.1930 C.3   155  PRO155      0.0237
     72  CD        -9.6950   39.3520   -6.0870 C.3   155  PRO155      0.0939
     73  N         -9.9360   42.8490   -6.8120 N.am  156  SER156     -0.1950
     74  CA        -9.9380   44.0920   -7.5720 C.3   156  SER156      0.1924
     75  C        -11.3200   44.7240   -7.4930 C.2   156  SER156      0.2314
     76  O        -12.2410   44.3390   -8.2180 O.2   156  SER156     -0.2863
     77  CB        -9.5490   43.8230   -9.0300 C.3   156  SER156      0.2116
     78  OG        -9.7510   44.9720   -9.8390 O.3   156  SER156     -0.2180
     79  N        -12.4960   46.0680  -10.9070 N.3   159  ARG159     -0.1245
     80  CA       -13.0920   45.1330  -11.8550 C.3   159  ARG159      0.1563
     81  C        -14.4420   44.5620  -11.4100 C.2   159  ARG159      0.2260
     82  O        -15.3480   44.3760  -12.2330 O.2   159  ARG159     -0.2867
     83  CB       -12.0880   44.0370  -12.2350 C.3   159  ARG159      0.0307
     84  CG       -10.8630   44.6200  -12.9270 C.3   159  ARG159      0.0489
     85  CD        -9.9820   43.5840  -13.6140 C.3   159  ARG159      0.2205
     86  NE        -9.1170   42.8580  -12.6850 N.pl3 159  ARG159     -0.0865
     87  CZ        -7.9360   43.2960  -12.2430 C.cat 159  ARG159      0.5346
     88  NH1       -7.4680   44.4800  -12.6260 N.pl3 159  ARG159      0.1354
     89  NH2       -7.2210   42.5530  -11.4030 N.pl3 159  ARG159      0.1354
     90  N        -13.1810   31.7340  -11.9840 N.3   192  ALA192     -0.1231
     91  CA       -12.6960   32.3020  -13.2340 C.3   192  ALA192      0.1694
     92  C        -11.3950   33.0610  -12.9840 C.2   192  ALA192      0.2593
     93  O        -11.0250   33.9320  -13.7570 O.2   192  ALA192     -0.2718
     94  CB       -13.7290   33.2220  -13.8260 C.3   192  ALA192      0.0304
     95  N        -10.7230   32.7430  -11.8850 N.am  193  SER193     -0.1939
     96  CA        -9.4590   33.3870  -11.5460 C.3   193  SER193      0.2040
     97  C         -8.2960   32.4730  -11.9000 C.2   193  SER193      0.2485
     98  O         -8.4990   31.3030  -12.2590 O.2   193  SER193     -0.2729
     99  CB        -9.4030   33.6760  -10.0560 C.3   193  SER193      0.2129
    100  OG        -9.1000   32.4920   -9.3390 O.3   193  SER193     -0.2179
    101  N         -7.0700   32.9960  -11.8040 N.am  194  PRO194     -0.2715
    102  CA        -5.8980   32.1450  -12.0280 C.3   194  PRO194      0.1536
    103  C         -5.5680   31.3010  -10.7980 C.2   194  PRO194      0.2598
    104  O         -4.6770   30.4500  -10.8680 O.2   194  PRO194     -0.2715
    105  CB        -4.7650   33.1540  -12.2810 C.3   194  PRO194      0.0310
    106  CG        -5.4490   34.4400  -12.5870 C.3   194  PRO194      0.0237
    107  CD        -6.7120   34.4230  -11.7910 C.3   194  PRO194      0.0939
    108  N         -6.2580   31.5270   -9.6870 N.am  195  VAL195     -0.1978
    109  CA        -5.9760   30.7400   -8.4900 C.3   195  VAL195      0.1596
    110  C         -6.3370   29.2710   -8.7390 C.2   195  VAL195      0.2287
    111  O         -7.4530   28.9600   -9.1670 O.2   195  VAL195     -0.2864
    112  CB        -6.7080   31.2640   -7.2440 C.3   195  VAL195      0.0276
    113  CG1       -6.4390   30.3520   -6.0550 C.3   195  VAL195      0.0022
    114  CG2       -6.2570   32.6740   -6.9200 C.3   195  VAL195      0.0022
    115  N         -4.0700   27.4460  -10.6740 N.3   197  MET197     -0.1245
    116  CA        -3.1330   27.1050  -11.7520 C.3   197  MET197      0.1570
    117  C         -1.8300   26.5200  -11.2390 C.2   197  MET197      0.2261
    118  O         -1.4430   26.7600  -10.0990 O.2   197  MET197     -0.2867
    119  CB        -2.7790   28.3340  -12.5920 C.3   197  MET197      0.0387
    120  CG        -3.6580   28.5430  -13.7920 C.3   197  MET197      0.0595
    121  SD        -3.2590   30.0590  -14.6830 S.3   197  MET197     -0.1393
    122  CE        -1.7870   29.5470  -15.5580 C.3   197  MET197      0.0692
    123  N         -9.1060   29.4820   -3.9940 N.3   204  PRO204     -0.2116
    124  CA        -9.5380   30.8820   -4.0660 C.3   204  PRO204      0.1372
    125  C        -10.4860   31.2790   -2.9280 C.2   204  PRO204      0.2244
    126  O        -10.8330   32.4520   -2.8190 O.2   204  PRO204     -0.2868
    127  CB       -10.2920   30.9550   -5.4080 C.3   204  PRO204      0.0268
    128  CG       -10.3280   29.5360   -5.9470 C.3   204  PRO204      0.0207
    129  CD        -9.9440   28.6240   -4.8410 C.3   204  PRO204      0.0892
    130  N        -12.0780   27.3240  -14.6210 N.3   222  VAL222     -0.1231
    131  CA       -11.6110   27.6070  -15.9720 C.3   222  VAL222      0.1692
    132  C        -10.1530   27.2210  -16.1320 C.2   222  VAL222      0.2592
    133  O         -9.6610   27.0770  -17.2390 O.2   222  VAL222     -0.2718
    134  CB       -11.7360   29.0780  -16.3080 C.3   222  VAL222      0.0266
    135  CG1      -13.1860   29.4910  -16.2530 C.3   222  VAL222      0.0020
    136  CG2      -10.8960   29.8920  -15.3290 C.3   222  VAL222      0.0020
    137  N         -9.4610   27.0700  -15.0160 N.am  223  VAL223     -0.1966
    138  CA        -8.0790   26.6500  -15.0360 C.3   223  VAL223      0.1727
    139  C         -7.9240   25.3540  -15.8280 C.2   223  VAL223      0.2616
    140  O         -8.6880   24.3960  -15.6470 O.2   223  VAL223     -0.2715
    141  CB        -7.5740   26.4560  -13.6060 C.3   223  VAL223      0.0290
    142  CG1       -6.2250   25.7290  -13.5900 C.3   223  VAL223      0.0023
    143  CG2       -7.5160   27.8100  -12.9070 C.3   223  VAL223      0.0023
    144  N         -6.9380   25.3240  -16.7130 N.am  224  THR224     -0.1951
    145  CA        -6.7320   24.1440  -17.5430 C.3   224  THR224      0.1897
    146  C         -5.5940   23.2750  -17.0320 C.2   224  THR224      0.2313
    147  O         -5.4920   22.1100  -17.3990 O.2   224  THR224     -0.2863
    148  CB        -6.4890   24.5190  -19.0310 C.3   224  THR224      0.1794
    149  OG1       -5.4150   25.4610  -19.1200 O.3   224  THR224     -0.2208
    150  CG2       -7.7440   25.1410  -19.6310 C.3   224  THR224      0.0378
    151  N        -11.5230   22.9550  -16.5420 N.3   245  GLY245     -0.1225
    152  CA       -11.0260   23.9010  -17.5320 C.3   245  GLY245      0.1811
    153  C        -11.0070   23.2870  -18.9170 C.2   245  GLY245      0.2280
    154  O        -11.5050   23.8830  -19.8750 O.2   245  GLY245     -0.2866
    155  N        -14.3160   23.2440  -20.6390 N.3   248  MET248     -0.1230
    156  CA       -14.6680   24.5330  -21.1990 C.3   248  MET248      0.1702
    157  C        -13.8310   24.8140  -22.4520 C.2   248  MET248      0.2592
    158  O        -14.3570   25.3100  -23.4470 O.2   248  MET248     -0.2718
    159  CB       -14.4740   25.6370  -20.1650 C.3   248  MET248      0.0401
    160  CG       -14.6670   27.0320  -20.7260 C.3   248  MET248      0.0596
    161  SD       -14.3830   28.3340  -19.5020 S.3   248  MET248     -0.1393
    162  CE       -14.0600   29.7150  -20.5940 C.3   248  MET248      0.0692
    163  N        -12.5380   24.4990  -22.4090 N.am  249  ALA249     -0.1980
    164  CA       -11.6750   24.7570  -23.5580 C.3   249  ALA249      0.1597
    165  C        -12.1930   23.9740  -24.7680 C.2   249  ALA249      0.2287
    166  O        -12.1730   24.4590  -25.9010 O.2   249  ALA249     -0.2864
    167  CB       -10.2330   24.3840  -23.2520 C.3   249  ALA249      0.0319
    168  N        -15.2360   25.5760  -26.0650 N.3   252  GLN252     -0.1245
    169  CA       -14.7240   26.7890  -26.7010 C.3   252  GLN252      0.1566
    170  C        -14.2040   26.5710  -28.1360 C.2   252  GLN252      0.2260
    171  O        -14.3950   27.4310  -28.9980 O.2   252  GLN252     -0.2867
    172  CB       -13.6090   27.3780  -25.8420 C.3   252  GLN252      0.0367
    173  CG       -13.0920   28.6870  -26.3520 C.3   252  GLN252      0.0905
    174  CD       -13.4720   29.8240  -25.4450 C.2   252  GLN252      0.2608
    175  OE1      -13.8320   30.9070  -25.9030 O.2   252  GLN252     -0.2717
    176  NE2      -13.4040   29.5830  -24.1400 N.am  252  GLN252     -0.0878
@<TRIPOS>BOND
     1   171   170    2
     2   170   169    1
     3    11    10    2
     4   169   168    1
     5   169   172    1
     6    10     9    1
     7     9     8    1
     8     9    12    1
     9   173   172    1
    10   173   174    1
    11   175   174    2
    12   166   165    2
    13     4     3    2
    14   174   176   am
    15    13    12    1
    16    13    14    1
    17     3     2    1
    18     1     2    1
    19   165   164    1
    20    17    18    1
    21    15    14    1
    22    15    16    1
    23     2     5    1
    24    23    22   ar
    25   164   167    1
    26   164   163    1
    27    18    21    1
    28    18    19    1
    29   158   157    2
    30    22    24   ar
    31    22    21    1
    32     5     7    1
    33     5     6    1
    34    19    20    2
    35   157   163   am
    36   157   156    1
    37   156   155    1
    38   156   159    1
    39   160   159    1
    40   160   161    1
    41   162   161    1
    42   154   153    2
    43    44    43    2
    44   150   148    1
    45    51    49    1
    46    43    42    1
    47    43    45   am
    48   149   148    1
    49   148   145    1
    50    42    41    1
    51   153   152    1
    52    46    45    1
    53    46    49    1
    54    46    47    1
    55    50    49    1
    56    48    47    2
    57    41    39   am
    58   145   146    1
    59   145   144    1
    60   152   151    1
    61   147   146    2
    62   133   132    2
    63   144   139   am
    64    40    39    2
    65    39    38    1
    66   134   135    1
    67   134   131    1
    68   134   136    1
    69   132   131    1
    70   132   137   am
    71   131   130    1
    72   139   140    2
    73   139   138    1
    74   122   121    1
    75    38    37    1
    76   138   137    1
    77   138   141    1
    78   121   120    1
    79    94    91    1
    80   120   119    1
    81    93    92    2
    82    85    84    1
    83    85    86    1
    84   141   142    1
    85   141   143    1
    86    91    92    1
    87    91    90    1
    88    92    95   am
    89    84    83    1
    90    86    87    2
    91    88    87    1
    92   119   116    1
    93   106   105    1
    94   106   107    1
    95    36    35    2
    96   105   102    1
    97    98    97    2
    98    87    89    1
    99    83    80    1
   100    82    81    2
   101   102   101    1
   102   102   103    1
   103    97   101   am
   104    97    96    1
   105    95    96    1
   106    80    81    1
   107    80    79    1
   108   101   107    1
   109   116   117    1
   110   116   115    1
   111    35    34    1
   112    96    99    1
   113   117   118    2
   114   104   103    2
   115   103   108   am
   116    34    33    1
   117    28    27    2
   118    65    63   ar
   119    99   100    1
   120    78    77    1
   121   108   109    1
   122    33    27   am
   123    27    26    1
   124    25    26    1
   125   111   110    2
   126    63    64   ar
   127    63    62    1
   128    77    74    1
   129   110   109    1
   130    26    29    1
   131   109   112    1
   132    62    59    1
   133    76    75    2
   134    29    31    1
   135    29    30    1
   136    55    54    2
   137    74    75    1
   138    74    73    1
   139   112   114    1
   140   112   113    1
   141    59    58    1
   142    59    60    1
   143    30    32    1
   144    73    68   am
   145    52    53    1
   146    54    58   am
   147    54    53    1
   148    72    66    1
   149    72    71    1
   150    60    66   am
   151    60    61    2
   152   128   127    1
   153   128   129    1
   154    53    56    1
   155    66    67    1
   156    68    67    1
   157    68    69    2
   158   127   124    1
   159    71    70    1
   160    56    57    1
   161    67    70    1
   162   129   123    1
   163   124   123    1
   164   124   125    1
   165   125   126    2
