@<TRIPOS>MOLECULE
tmp/4k2fB00.pdb
 129 127 0 0 0
SMALL
GASTEIGER

@<TRIPOS>ATOM
      1  N         31.0820   55.7580   48.7680 N.3    24  PHE24      -0.1241
      2  CA        31.1070   54.2990   48.7320 C.3    24  PHE24       0.1605
      3  C         29.9130   53.8050   47.9540 C.2    24  PHE24       0.2264
      4  O         28.9900   54.5940   47.6690 O.2    24  PHE24      -0.2867
      5  CB        31.0260   53.7850   50.2070 C.3    24  PHE24       0.0534
      6  CG        32.3770   53.7160   50.8610 C.ar   24  PHE24      -0.0203
      7  CD1       32.8490   54.8070   51.5900 C.ar   24  PHE24      -0.0042
      8  CD2       33.1780   52.5840   50.7040 C.ar   24  PHE24      -0.0042
      9  CE1       34.1180   54.8000   52.1740 C.ar   24  PHE24      -0.0003
     10  CE2       34.5090   52.5560   51.2620 C.ar   24  PHE24      -0.0003
     11  CZ        34.9690   53.6510   51.9730 C.ar   24  PHE24      -0.0000
     12  N         29.1570   46.9830   51.0130 N.3    30  MET30      -0.1245
     13  CA        29.6750   48.2070   51.6560 C.3    30  MET30       0.1570
     14  C         28.6380   49.3240   51.7060 C.2    30  MET30       0.2261
     15  O         28.9630   50.5390   51.7870 O.2    30  MET30      -0.2867
     16  CB        30.9800   48.6990   51.0170 C.3    30  MET30       0.0387
     17  CG        32.0400   47.6250   51.0490 C.3    30  MET30       0.0595
     18  SD        33.7280   48.3100   50.5470 S.3    30  MET30      -0.1393
     19  CE        33.4720   48.3890   48.7970 C.3    30  MET30       0.0692
     20  N         26.4170   51.6120   53.5190 N.3    32  PHE32      -0.1241
     21  CA        26.3230   52.1630   54.8900 C.3    32  PHE32       0.1605
     22  C         24.9080   52.1370   55.4480 C.2    32  PHE32       0.2264
     23  O         23.8930   52.2270   54.7260 O.2    32  PHE32      -0.2867
     24  CB        26.7900   53.6500   54.9330 C.3    32  PHE32       0.0534
     25  CG        28.2500   53.8040   54.9820 C.ar   32  PHE32      -0.0203
     26  CD1       28.9020   54.4510   53.9620 C.ar   32  PHE32      -0.0042
     27  CD2       28.9910   53.3840   56.0990 C.ar   32  PHE32      -0.0042
     28  CE1       30.2320   54.6600   54.0140 C.ar   32  PHE32      -0.0003
     29  CE2       30.3990   53.5460   56.1540 C.ar   32  PHE32      -0.0003
     30  CZ        31.0350   54.1610   55.0610 C.ar   32  PHE32      -0.0000
     31  N         28.7830   49.1500   58.3300 N.3    50  LEU50      -0.1245
     32  CA        28.7020   48.4010   57.0580 C.3    50  LEU50       0.1561
     33  C         27.8720   47.1590   57.3520 C.2    50  LEU50       0.2260
     34  O         27.7780   46.7700   58.5210 O.2    50  LEU50      -0.2867
     35  CB        30.1190   47.9780   56.6710 C.3    50  LEU50       0.0270
     36  CG        30.9790   49.2150   56.3060 C.3    50  LEU50       0.0019
     37  CD1       32.4180   48.7520   56.2280 C.3    50  LEU50       0.0001
     38  CD2       30.4500   49.8580   54.9630 C.3    50  LEU50       0.0001
     39  N         28.0540   44.3050   60.5820 N.3    53  LEU53      -0.1245
     40  CA        29.0340   44.7080   61.5890 C.3    53  LEU53       0.1561
     41  C         28.3750   45.3860   62.7880 C.2    53  LEU53       0.2260
     42  O         27.7220   46.4020   62.6510 O.2    53  LEU53      -0.2867
     43  CB        30.0970   45.7180   61.0190 C.3    53  LEU53       0.0270
     44  CG        30.8460   45.3070   59.7820 C.3    53  LEU53       0.0019
     45  CD1       32.0790   46.1980   59.6020 C.3    53  LEU53       0.0001
     46  CD2       31.2650   43.8270   59.7970 C.3    53  LEU53       0.0001
     47  N         31.2650   52.5420   62.1700 N.3    57  ASN57      -0.1225
     48  CA        32.5090   52.7020   61.3610 C.3    57  ASN57       0.1785
     49  C         32.8470   54.1970   61.2120 C.2    57  ASN57       0.2597
     50  O         33.9950   54.5660   61.2680 O.2    57  ASN57      -0.2718
     51  CB        32.3280   52.0150   59.9970 C.3    57  ASN57       0.1169
     52  CG        32.3660   50.4640   60.1360 C.2    57  ASN57       0.2627
     53  OD1       33.4200   49.8990   60.4790 O.2    57  ASN57      -0.2716
     54  ND2       31.2590   49.7990   59.9790 N.am   57  ASN57      -0.0877
     55  N         31.8670   55.0490   61.0290 N.am   58  ILE58      -0.1980
     56  CA        32.0830   56.4870   60.9080 C.3    58  ILE58       0.1595
     57  C         31.0250   57.1340   61.8350 C.2    58  ILE58       0.2287
     58  O         29.8820   56.8620   61.7160 O.2    58  ILE58      -0.2864
     59  CB        31.8230   56.9430   59.4350 C.3    58  ILE58       0.0276
     60  CG1       32.9940   56.4650   58.5240 C.3    58  ILE58       0.0022
     61  CG2       31.6440   58.5380   59.3490 C.3    58  ILE58       0.0022
     62  CD1       32.9010   56.8910   57.0440 C.3    58  ILE58       0.0001
     63  N         36.5370   58.4570   57.7310 N.3    68  HIS68      -0.1241
     64  CA        37.6180   57.7580   57.0830 C.3    68  HIS68       0.1621
     65  C         37.6120   58.0960   55.6100 C.2    68  HIS68       0.2264
     66  O         36.5200   58.4510   55.0800 O.2    68  HIS68      -0.2867
     67  CB        37.4200   56.2300   57.2700 C.3    68  HIS68       0.0745
     68  CG        37.4930   55.8090   58.7070 C.ar   68  HIS68       0.0817
     69  ND1       38.6670   55.8430   59.4360 N.ar   68  HIS68      -0.2268
     70  CD2       36.5270   55.3860   59.5690 C.ar   68  HIS68       0.1154
     71  CE1       38.4250   55.4680   60.6900 C.ar   68  HIS68       0.1986
     72  NE2       37.1440   55.1180   60.7790 N.ar   68  HIS68      -0.2212
     73  N         40.3340   44.0350   63.5780 N.3   158  VAL158     -0.1231
     74  CA        39.5860   45.1290   62.9330 C.3   158  VAL158      0.1692
     75  C         38.3220   45.4870   63.7060 C.2   158  VAL158      0.2591
     76  O         37.9800   46.6960   63.8330 O.2   158  VAL158     -0.2718
     77  CB        39.2910   44.7280   61.4190 C.3   158  VAL158      0.0266
     78  CG1       38.4870   43.4120   61.3540 C.3   158  VAL158      0.0020
     79  CG2       38.4240   45.7790   60.7240 C.3   158  VAL158      0.0020
     80  N         37.5500   44.4850   64.1650 N.am  159  LEU159     -0.1980
     81  CA        36.2510   44.8070   64.8900 C.3   159  LEU159      0.1596
     82  C         36.5190   45.3910   66.2760 C.2   159  LEU159      0.2287
     83  O         35.8450   46.3490   66.7400 O.2   159  LEU159     -0.2864
     84  CB        35.3840   43.5520   65.0640 C.3   159  LEU159      0.0297
     85  CG        35.0270   42.8470   63.7180 C.3   159  LEU159      0.0022
     86  CD1       34.1820   41.5860   63.9850 C.3   159  LEU159      0.0001
     87  CD2       34.1930   43.8230   62.8460 C.3   159  LEU159      0.0001
     88  N         37.4120   49.1540   65.7660 N.3   162  TRP162     -0.1241
     89  CA        36.2460   50.0770   65.6510 C.3   162  TRP162      0.1605
     90  C         35.4280   50.1320   66.9800 C.2   162  TRP162      0.2264
     91  O         34.9460   51.2190   67.3700 O.2   162  TRP162     -0.2867
     92  CB        35.3670   49.7870   64.3740 C.3   162  TRP162      0.0550
     93  CG        35.8050   50.7170   63.3000 C.ar  162  TRP162      0.0003
     94  CD1       35.6630   52.1200   63.2910 C.ar  162  TRP162      0.0946
     95  CD2       36.5000   50.3830   62.0950 C.ar  162  TRP162      0.0152
     96  NE1       36.2200   52.6270   62.1790 N.ar  162  TRP162     -0.2442
     97  CE2       36.7660   51.6100   61.4280 C.ar  162  TRP162      0.0810
     98  CE3       36.9480   49.1570   61.5120 C.ar  162  TRP162      0.0012
     99  CZ2       37.4000   51.6640   60.1530 C.ar  162  TRP162      0.0191
    100  CZ3       37.5690   49.2310   60.2100 C.ar  162  TRP162      0.0001
    101  CH2       37.8250   50.4920   59.6030 C.ar  162  TRP162      0.0015
    102  N         42.0360   48.6250   58.5830 N.3   185  PRO185     -0.2102
    103  CA        42.5800   47.9230   57.4310 C.3   185  PRO185      0.1504
    104  C         43.1700   48.7920   56.3290 C.2   185  PRO185      0.2576
    105  O         44.3260   48.5500   55.9570 O.2   185  PRO185     -0.2718
    106  CB        41.3850   47.1280   56.8840 C.3   185  PRO185      0.0282
    107  CG        40.4970   46.9360   58.2030 C.3   185  PRO185      0.0208
    108  CD        40.5790   48.3400   58.7550 C.3   185  PRO185      0.0893
    109  N         42.4150   49.7810   55.8200 N.am  186  TRP186     -0.1963
    110  CA        42.8770   50.4710   54.6120 C.3   186  TRP186      0.1771
    111  C         42.3470   51.8510   54.4090 C.2   186  TRP186      0.2619
    112  O         42.2030   52.2970   53.2800 O.2   186  TRP186     -0.2715
    113  CB        42.7720   49.6120   53.3350 C.3   186  TRP186      0.0590
    114  CG        41.5410   48.7080   53.2520 C.ar  186  TRP186      0.0006
    115  CD1       41.4650   47.3540   53.5790 C.ar  186  TRP186      0.0946
    116  CD2       40.2140   49.0920   52.8160 C.ar  186  TRP186      0.0152
    117  NE1       40.1680   46.8840   53.3320 N.ar  186  TRP186     -0.2442
    118  CE2       39.3900   47.9130   52.8710 C.ar  186  TRP186      0.0810
    119  CE3       39.6740   50.2820   52.2980 C.ar  186  TRP186      0.0012
    120  CZ2       38.0580   47.8940   52.4170 C.ar  186  TRP186      0.0191
    121  CZ3       38.3050   50.2860   51.8460 C.ar  186  TRP186      0.0001
    122  CH2       37.4990   49.0620   51.9390 C.ar  186  TRP186      0.0015
    123  N         42.0250   52.5440   55.4980 N.am  187  VAL187     -0.1977
    124  CA        41.5830   53.9360   55.3920 C.3   187  VAL187      0.1596
    125  C         42.3920   54.8810   56.3510 C.2   187  VAL187      0.2287
    126  O         42.9220   54.4550   57.4000 O.2   187  VAL187     -0.2864
    127  CB        40.1290   54.0680   55.7480 C.3   187  VAL187      0.0276
    128  CG1       39.2810   53.3370   54.7040 C.3   187  VAL187      0.0022
    129  CG2       39.8520   53.5200   57.1460 C.3   187  VAL187      0.0022
@<TRIPOS>BOND
     1     4     3    2
     2     3     2    1
     3     2     1    1
     4     2     5    1
     5    19    18    1
     6     5     6    1
     7    18    17    1
     8     8     6   ar
     9     8    10   ar
    10     6     7   ar
    11    12    13    1
    12    16    17    1
    13    16    13    1
    14    10    11   ar
    15     7     9   ar
    16    13    14    1
    17    14    15    2
    18   121   122   ar
    19   121   119   ar
    20   122   120   ar
    21    11     9   ar
    22   119   116   ar
    23   120   118   ar
    24   116   118   ar
    25   116   114   ar
    26   118   117   ar
    27   114   113    1
    28   114   115   ar
    29   112   111    2
    30   117   115   ar
    31   113   110    1
    32    20    21    1
    33    26    28   ar
    34    26    25   ar
    35    28    30   ar
    36   111   110    1
    37   111   123   am
    38   110   109    1
    39   128   127    1
    40    23    22    2
    41    21    24    1
    42    21    22    1
    43    24    25    1
    44    38    36    1
    45    25    27   ar
    46    30    29   ar
    47    66    65    2
    48   124   123    1
    49   124   127    1
    50   124   125    1
    51    65    64    1
    52   127   129    1
    53   109   104   am
    54   105   104    2
    55    27    29   ar
    56    37    36    1
    57    36    35    1
    58   104   103    1
    59   125   126    2
    60    35    32    1
    61   106   103    1
    62   106   107    1
    63    62    60    1
    64    32    33    1
    65    32    31    1
    66    64    67    1
    67    64    63    1
    68    67    68    1
    69    33    34    2
    70   103   102    1
    71   107   108    1
    72    60    59    1
    73   102   108    1
    74    68    69   ar
    75    68    70   ar
    76    61    59    1
    77    59    56    1
    78    69    71   ar
    79    70    72   ar
    80    45    44    1
    81   101    99   ar
    82   101   100   ar
    83    44    46    1
    84    44    43    1
    85    54    52   am
    86    51    52    1
    87    51    48    1
    88    52    53    2
    89    99    97   ar
    90   100    98   ar
    91    39    40    1
    92    71    72   ar
    93    79    77    1
    94    56    55    1
    95    56    57    1
    96    43    40    1
    97    55    49   am
    98    49    50    2
    99    49    48    1
   100    78    77    1
   101    48    47    1
   102    77    74    1
   103    97    95   ar
   104    97    96   ar
   105    98    95   ar
   106    40    41    1
   107    58    57    2
   108    95    93   ar
   109    96    94   ar
   110    42    41    2
   111    87    85    1
   112    74    73    1
   113    74    75    1
   114    94    93   ar
   115    93    92    1
   116    75    76    2
   117    75    80   am
   118    85    86    1
   119    85    84    1
   120    80    81    1
   121    92    89    1
   122    81    84    1
   123    81    82    1
   124    89    88    1
   125    89    90    1
   126    82    83    2
   127    90    91    2
