@<TRIPOS>MOLECULE
tmp/4k2gB00.pdb
 129 127 0 0 0
SMALL
GASTEIGER

@<TRIPOS>ATOM
      1  N         31.1360   55.4380   48.7400 N.3    24  PHE24      -0.1241
      2  CA        31.1150   53.9820   48.7040 C.3    24  PHE24       0.1605
      3  C         29.8650   53.5510   47.9050 C.2    24  PHE24       0.2264
      4  O         29.0180   54.4100   47.6040 O.2    24  PHE24      -0.2867
      5  CB        31.1150   53.4390   50.1590 C.3    24  PHE24       0.0534
      6  CG        32.4280   53.6220   50.8910 C.ar   24  PHE24      -0.0203
      7  CD1       32.6510   54.7370   51.7120 C.ar   24  PHE24      -0.0042
      8  CD2       33.4510   52.6770   50.7590 C.ar   24  PHE24      -0.0042
      9  CE1       33.8550   54.8850   52.4140 C.ar   24  PHE24      -0.0003
     10  CE2       34.6570   52.8380   51.4340 C.ar   24  PHE24      -0.0003
     11  CZ        34.8600   53.9360   52.2490 C.ar   24  PHE24      -0.0000
     12  N         29.0380   46.8090   51.0900 N.3    30  MET30      -0.1245
     13  CA        29.5630   48.0330   51.6750 C.3    30  MET30       0.1570
     14  C         28.5230   49.1470   51.6970 C.2    30  MET30       0.2261
     15  O         28.8730   50.3480   51.8390 O.2    30  MET30      -0.2867
     16  CB        30.8200   48.5370   50.9120 C.3    30  MET30       0.0387
     17  CG        31.9970   47.6070   51.0630 C.3    30  MET30       0.0595
     18  SD        33.6750   48.0390   50.4670 S.3    30  MET30      -0.1393
     19  CE        33.3260   48.3850   48.7540 C.3    30  MET30       0.0692
     20  N         26.3030   51.4570   53.4080 N.3    32  PHE32      -0.1241
     21  CA        26.1660   52.0400   54.7560 C.3    32  PHE32       0.1605
     22  C         24.7570   51.9440   55.2940 C.2    32  PHE32       0.2264
     23  O         23.7570   52.0760   54.5330 O.2    32  PHE32      -0.2867
     24  CB        26.6120   53.5120   54.7540 C.3    32  PHE32       0.0534
     25  CG        28.0680   53.6640   54.8160 C.ar   32  PHE32      -0.0203
     26  CD1       28.7600   54.3820   53.8370 C.ar   32  PHE32      -0.0042
     27  CD2       28.7880   53.0640   55.8540 C.ar   32  PHE32      -0.0042
     28  CE1       30.1690   54.4910   53.8840 C.ar   32  PHE32      -0.0003
     29  CE2       30.1840   53.1850   55.9090 C.ar   32  PHE32      -0.0003
     30  CZ        30.8610   53.8940   54.8820 C.ar   32  PHE32      -0.0000
     31  N         28.6850   49.0210   58.2270 N.3    50  LEU50      -0.1245
     32  CA        28.6080   48.1550   57.1110 C.3    50  LEU50       0.1561
     33  C         27.7660   46.9000   57.3770 C.2    50  LEU50       0.2260
     34  O         27.6620   46.4630   58.5350 O.2    50  LEU50      -0.2867
     35  CB        30.0350   47.7860   56.7450 C.3    50  LEU50       0.0270
     36  CG        30.9080   49.0340   56.4210 C.3    50  LEU50       0.0019
     37  CD1       32.4260   48.7180   56.5580 C.3    50  LEU50       0.0001
     38  CD2       30.5520   49.6120   54.9610 C.3    50  LEU50       0.0001
     39  N         28.0480   44.0080   60.4540 N.3    53  LEU53      -0.1245
     40  CA        29.0230   44.4100   61.4610 C.3    53  LEU53       0.1561
     41  C         28.3240   45.1040   62.6090 C.2    53  LEU53       0.2260
     42  O         27.6930   46.1490   62.4020 O.2    53  LEU53      -0.2867
     43  CB        30.1030   45.3520   60.9050 C.3    53  LEU53       0.0270
     44  CG        30.8650   45.0360   59.6340 C.3    53  LEU53       0.0019
     45  CD1       32.0670   45.9580   59.6330 C.3    53  LEU53       0.0001
     46  CD2       31.3450   43.5090   59.5780 C.3    53  LEU53       0.0001
     47  N         31.0980   52.3220   61.9820 N.3    57  ASN57      -0.1225
     48  CA        32.3240   52.5910   61.2390 C.3    57  ASN57       0.1785
     49  C         32.6310   54.0770   61.0700 C.2    57  ASN57       0.2597
     50  O         33.7850   54.4640   61.0910 O.2    57  ASN57      -0.2718
     51  CB        32.2930   51.8570   59.8720 C.3    57  ASN57       0.1169
     52  CG        32.2490   50.3390   60.0430 C.2    57  ASN57       0.2627
     53  OD1       33.2540   49.7200   60.4320 O.2    57  ASN57      -0.2716
     54  ND2       31.0700   49.7290   59.8250 N.am   57  ASN57      -0.0877
     55  N         31.6250   54.9150   60.9370 N.am   58  ILE58      -0.1980
     56  CA        31.8280   56.3420   60.7700 C.3    58  ILE58       0.1595
     57  C         30.7770   56.9920   61.6580 C.2    58  ILE58       0.2287
     58  O         29.6410   56.6380   61.6160 O.2    58  ILE58      -0.2864
     59  CB        31.6610   56.8150   59.2770 C.3    58  ILE58       0.0276
     60  CG1       32.8530   56.3790   58.3940 C.3    58  ILE58       0.0022
     61  CG2       31.5120   58.3580   59.1470 C.3    58  ILE58       0.0022
     62  CD1       32.7230   56.8400   56.8920 C.3    58  ILE58       0.0001
     63  N         36.3810   58.2500   57.6710 N.3    68  HIS68      -0.1241
     64  CA        37.4860   57.5700   56.9800 C.3    68  HIS68       0.1621
     65  C         37.4730   57.9070   55.5300 C.2    68  HIS68       0.2264
     66  O         36.4290   58.3370   54.9990 O.2    68  HIS68      -0.2867
     67  CB        37.3440   56.0600   57.1150 C.3    68  HIS68       0.0745
     68  CG        37.3370   55.5860   58.5240 C.ar   68  HIS68       0.0817
     69  ND1       38.4540   55.6470   59.3350 N.ar   68  HIS68      -0.2268
     70  CD2       36.3300   55.1100   59.2990 C.ar   68  HIS68       0.1154
     71  CE1       38.1510   55.1630   60.5310 C.ar   68  HIS68       0.1986
     72  NE2       36.8640   54.8360   60.5380 N.ar   68  HIS68      -0.2212
     73  N         40.2200   43.9280   63.4590 N.3   158  VAL158     -0.1231
     74  CA        39.4010   44.9320   62.8350 C.3   158  VAL158      0.1692
     75  C         38.1480   45.3430   63.6060 C.2   158  VAL158      0.2591
     76  O         37.8790   46.5050   63.7320 O.2   158  VAL158     -0.2718
     77  CB        39.1200   44.5740   61.2820 C.3   158  VAL158      0.0266
     78  CG1       38.4410   43.2130   61.1070 C.3   158  VAL158      0.0020
     79  CG2       38.2650   45.5920   60.6350 C.3   158  VAL158      0.0020
     80  N         37.3780   44.4050   64.1070 N.am  159  LEU159     -0.1980
     81  CA        36.1100   44.7090   64.8380 C.3   159  LEU159      0.1596
     82  C         36.3840   45.2620   66.2200 C.2   159  LEU159      0.2287
     83  O         35.7280   46.2600   66.6880 O.2   159  LEU159     -0.2864
     84  CB        35.2620   43.4570   64.9720 C.3   159  LEU159      0.0297
     85  CG        34.9930   42.7960   63.6020 C.3   159  LEU159      0.0022
     86  CD1       34.1720   41.5160   63.7870 C.3   159  LEU159      0.0001
     87  CD2       34.2500   43.8080   62.7350 C.3   159  LEU159      0.0001
     88  N         37.3000   48.8790   65.6410 N.3   162  TRP162     -0.1241
     89  CA        36.1740   49.8740   65.5120 C.3   162  TRP162      0.1605
     90  C         35.3530   49.9670   66.8240 C.2   162  TRP162      0.2264
     91  O         34.9120   51.0270   67.2290 O.2   162  TRP162     -0.2867
     92  CB        35.2870   49.6050   64.2700 C.3   162  TRP162      0.0550
     93  CG        35.6920   50.5160   63.1950 C.ar  162  TRP162      0.0003
     94  CD1       35.5740   51.8940   63.2010 C.ar  162  TRP162      0.0946
     95  CD2       36.3450   50.1890   61.9790 C.ar  162  TRP162      0.0152
     96  NE1       36.0910   52.4190   62.0710 N.ar  162  TRP162     -0.2442
     97  CE2       36.5750   51.4190   61.2920 C.ar  162  TRP162      0.0810
     98  CE3       36.7630   48.9880   61.3900 C.ar  162  TRP162      0.0012
     99  CZ2       37.1980   51.4880   60.0490 C.ar  162  TRP162      0.0191
    100  CZ3       37.3960   49.0680   60.1520 C.ar  162  TRP162      0.0001
    101  CH2       37.5940   50.3110   59.4840 C.ar  162  TRP162      0.0015
    102  N         42.0060   48.4790   58.5140 N.3   185  PRO185     -0.2102
    103  CA        42.5270   47.8070   57.3300 C.3   185  PRO185      0.1504
    104  C         43.1170   48.6800   56.2620 C.2   185  PRO185      0.2576
    105  O         44.2770   48.4800   55.8420 O.2   185  PRO185     -0.2718
    106  CB        41.3060   47.0470   56.7890 C.3   185  PRO185      0.0282
    107  CG        40.5000   46.7710   58.0610 C.3   185  PRO185      0.0208
    108  CD        40.5850   48.1260   58.7400 C.3   185  PRO185      0.0893
    109  N         42.3650   49.6430   55.7740 N.am  186  TRP186     -0.1963
    110  CA        42.8930   50.3090   54.5980 C.3   186  TRP186      0.1771
    111  C         42.2390   51.6450   54.3560 C.2   186  TRP186      0.2619
    112  O         41.9760   52.0140   53.2180 O.2   186  TRP186     -0.2715
    113  CB        42.8140   49.3770   53.3570 C.3   186  TRP186      0.0590
    114  CG        41.5160   48.5650   53.1810 C.ar  186  TRP186      0.0006
    115  CD1       41.3280   47.2150   53.4920 C.ar  186  TRP186      0.0946
    116  CD2       40.2570   49.0170   52.6270 C.ar  186  TRP186      0.0152
    117  NE1       40.0400   46.8410   53.1790 N.ar  186  TRP186     -0.2442
    118  CE2       39.3690   47.9020   52.6340 C.ar  186  TRP186      0.0810
    119  CE3       39.8020   50.2470   52.0860 C.ar  186  TRP186      0.0012
    120  CZ2       38.0560   47.9750   52.1350 C.ar  186  TRP186      0.0191
    121  CZ3       38.4490   50.3210   51.5760 C.ar  186  TRP186      0.0001
    122  CH2       37.6190   49.1810   51.5950 C.ar  186  TRP186      0.0015
    123  N         41.9990   52.3640   55.4410 N.am  187  VAL187     -0.1977
    124  CA        41.5250   53.7280   55.3820 C.3   187  VAL187      0.1596
    125  C         42.3190   54.6340   56.3140 C.2   187  VAL187      0.2287
    126  O         42.8370   54.1810   57.3450 O.2   187  VAL187     -0.2864
    127  CB        39.9980   53.8630   55.7230 C.3   187  VAL187      0.0276
    128  CG1       39.1720   53.2390   54.6500 C.3   187  VAL187      0.0022
    129  CG2       39.6810   53.2180   57.0620 C.3   187  VAL187      0.0022
@<TRIPOS>BOND
     1     4     3    2
     2     3     2    1
     3     2     1    1
     4     2     5    1
     5    19    18    1
     6     5     6    1
     7    18    17    1
     8     8     6   ar
     9     8    10   ar
    10     6     7   ar
    11    16    17    1
    12    16    13    1
    13    12    13    1
    14    10    11   ar
    15   121   122   ar
    16   121   119   ar
    17   122   120   ar
    18    13    14    1
    19    14    15    2
    20     7     9   ar
    21   119   116   ar
    22   120   118   ar
    23    11     9   ar
    24   116   118   ar
    25   116   114   ar
    26   118   117   ar
    27   117   115   ar
    28   114   113    1
    29   114   115   ar
    30   112   111    2
    31   113   110    1
    32    20    21    1
    33    26    28   ar
    34    26    25   ar
    35    28    30   ar
    36   111   110    1
    37   111   123   am
    38    23    22    2
    39   110   109    1
    40   128   127    1
    41    24    21    1
    42    24    25    1
    43    21    22    1
    44    25    27   ar
    45    30    29   ar
    46    38    36    1
    47    66    65    2
    48   124   123    1
    49   124   127    1
    50   124   125    1
    51    65    64    1
    52   127   129    1
    53   109   104   am
    54   105   104    2
    55    27    29   ar
    56   104   103    1
    57   125   126    2
    58    36    37    1
    59    36    35    1
    60    35    32    1
    61   106   103    1
    62   106   107    1
    63    62    60    1
    64    64    67    1
    65    64    63    1
    66    32    33    1
    67    32    31    1
    68    67    68    1
    69   103   102    1
    70    33    34    2
    71   107   108    1
    72    60    59    1
    73   102   108    1
    74    68    70   ar
    75    68    69   ar
    76    61    59    1
    77    59    56    1
    78    70    72   ar
    79    69    71   ar
    80   101    99   ar
    81   101   100   ar
    82    46    44    1
    83    45    44    1
    84    44    43    1
    85    54    52   am
    86    51    52    1
    87    51    48    1
    88    52    53    2
    89    99    97   ar
    90   100    98   ar
    91    39    40    1
    92    71    72   ar
    93    79    77    1
    94    56    55    1
    95    56    57    1
    96    43    40    1
    97    55    49   am
    98    49    50    2
    99    49    48    1
   100    78    77    1
   101    48    47    1
   102    77    74    1
   103    97    95   ar
   104    97    96   ar
   105    98    95   ar
   106    40    41    1
   107    58    57    2
   108    95    93   ar
   109    96    94   ar
   110    42    41    2
   111    87    85    1
   112    74    73    1
   113    74    75    1
   114    93    94   ar
   115    93    92    1
   116    85    86    1
   117    85    84    1
   118    75    76    2
   119    75    80   am
   120    80    81    1
   121    92    89    1
   122    81    84    1
   123    81    82    1
   124    89    88    1
   125    89    90    1
   126    82    83    2
   127    90    91    2
