@<TRIPOS>MOLECULE
tmp/4k2iB00.pdb
 151 142 0 0 0
SMALL
GASTEIGER

@<TRIPOS>ATOM
      1  N         10.4640    0.5630   24.2970 N.3   124  SER124     -0.1202
      2  CA         9.7130    0.5370   23.0390 C.3   124  SER124      0.2020
      3  C         10.4610    1.2990   21.9470 C.2   124  SER124      0.2619
      4  O         11.3670    2.0570   22.2440 O.2   124  SER124     -0.2717
      5  CB         8.3090    1.1340   23.2110 C.3   124  SER124      0.2103
      6  OG         8.3820    2.5040   23.5650 O.3   124  SER124     -0.2182
      7  N         10.0850    1.0870   20.6890 N.am  125  GLY125     -0.1942
      8  CA        10.6230    1.8730   19.5840 C.3   125  GLY125      0.2014
      9  C         10.2730    3.3540   19.7330 C.2   125  GLY125      0.2639
     10  O         11.0740    4.2300   19.4060 O.2   125  GLY125     -0.2714
     11  N          9.0790    3.6380   20.2450 N.am  126  THR126     -0.1950
     12  CA         8.6540    5.0160   20.4760 C.3   126  THR126      0.1897
     13  C          9.5950    5.7390   21.4490 C.2   126  THR126      0.2313
     14  O          9.9830    6.8840   21.2210 O.2   126  THR126     -0.2863
     15  CB         7.1980    5.0840   21.0270 C.3   126  THR126      0.1794
     16  OG1        6.3060    4.4360   20.1110 O.3   126  THR126     -0.2208
     17  CG2        6.7530    6.5430   21.2040 C.3   126  THR126      0.0378
     18  N         13.1370    6.5300   19.7440 N.3   129  ILE129     -0.1245
     19  CA        13.0820    7.7780   18.9940 C.3   129  ILE129      0.1561
     20  C         13.0810    9.0020   19.9110 C.2   129  ILE129      0.2260
     21  O         13.8730    9.9170   19.7160 O.2   129  ILE129     -0.2867
     22  CB        11.8450    7.8160   18.0710 C.3   129  ILE129      0.0252
     23  CG1       11.8060    6.5540   17.2140 C.3   129  ILE129      0.0019
     24  CG2       11.8840    9.0670   17.1970 C.3   129  ILE129      0.0019
     25  CD1       10.5710    6.4170   16.3560 C.3   129  ILE129      0.0001
     26  N          3.8770    7.8150    8.1140 N.3   150  SER150     -0.1202
     27  CA         4.3520    6.7880    9.0400 C.3   150  SER150      0.2020
     28  C          3.2860    6.4380   10.0790 C.2   150  SER150      0.2618
     29  O          2.2650    7.1150   10.1790 O.2   150  SER150     -0.2717
     30  CB         5.6050    7.2690    9.7750 C.3   150  SER150      0.2103
     31  OG         6.0720    6.2670   10.6590 O.3   150  SER150     -0.2182
     32  N          3.5330    5.3940   10.8630 N.am  151  PHE151     -0.1975
     33  CA         2.7000    5.1280   12.0290 C.3   151  PHE151      0.1639
     34  C          2.8110    6.3230   12.9800 C.2   151  PHE151      0.2290
     35  O          3.8460    7.0040   13.0110 O.2   151  PHE151     -0.2864
     36  CB         3.1330    3.8290   12.7100 C.3   151  PHE151      0.0560
     37  CG         2.3360    3.4860   13.9410 C.ar  151  PHE151     -0.0200
     38  CD1        0.9740    3.2460   13.8610 C.ar  151  PHE151     -0.0042
     39  CD2        2.9620    3.3660   15.1700 C.ar  151  PHE151     -0.0042
     40  CE1        0.2370    2.9180   14.9990 C.ar  151  PHE151     -0.0003
     41  CE2        2.2410    3.0320   16.3020 C.ar  151  PHE151     -0.0003
     42  CZ         0.8700    2.8080   16.2170 C.ar  151  PHE151     -0.0000
     43  N          3.4180    6.8500   15.9100 N.3   153  ALA153     -0.1231
     44  CA         4.4380    6.8650   16.9520 C.3   153  ALA153      0.1694
     45  C          5.6190    7.7810   16.5800 C.2   153  ALA153      0.2592
     46  O          6.2390    8.3860   17.4520 O.2   153  ALA153     -0.2718
     47  CB         4.9200    5.4430   17.2430 C.3   153  ALA153      0.0304
     48  N          5.9150    7.8870   15.2850 N.am  154  THR154     -0.1953
     49  CA         7.0500    8.6800   14.8310 C.3   154  THR154      0.1897
     50  C          6.8410   10.1530   15.1640 C.2   154  THR154      0.2313
     51  O          7.7030   10.7740   15.7820 O.2   154  THR154     -0.2863
     52  CB         7.2820    8.5410   13.3140 C.3   154  THR154      0.1794
     53  OG1        7.1740    7.1680   12.9400 O.3   154  THR154     -0.2208
     54  CG2        8.6770    9.0600   12.9260 C.3   154  THR154      0.0378
     55  N         11.9610    7.5610    7.5790 N.3   196  VAL196     -0.1231
     56  CA        11.3480    6.3220    8.0270 C.3   196  VAL196      0.1692
     57  C         11.5120    5.2750    6.9450 C.2   196  VAL196      0.2592
     58  O         11.1790    5.5250    5.7930 O.2   196  VAL196     -0.2718
     59  CB         9.8380    6.5100    8.2550 C.3   196  VAL196      0.0266
     60  CG1        9.2010    5.1800    8.6820 C.3   196  VAL196      0.0020
     61  CG2        9.6010    7.6090    9.2800 C.3   196  VAL196      0.0020
     62  N         12.0080    4.0990    7.3140 N.am  197  HIS197     -0.1962
     63  CA        12.1220    3.0130    6.3510 C.3   197  HIS197      0.1787
     64  C         10.8160    2.2410    6.3610 C.2   197  HIS197      0.2620
     65  O         10.7000    1.1800    6.9780 O.2   197  HIS197     -0.2715
     66  CB        13.3350    2.1340    6.6610 C.3   197  HIS197      0.0785
     67  CG        14.5970    2.9220    6.8250 C.ar  197  HIS197      0.0821
     68  ND1       14.9160    3.9850    6.0050 N.ar  197  HIS197     -0.2267
     69  CD2       15.5940    2.8340    7.7360 C.ar  197  HIS197      0.1154
     70  CE1       16.0630    4.5110    6.3940 C.ar  197  HIS197      0.1986
     71  NE2       16.4980    3.8290    7.4390 N.ar  197  HIS197     -0.2212
     72  N          9.8330    2.8120    5.6730 N.am  198  LEU198     -0.1977
     73  CA         8.4500    2.3810    5.7550 C.3   198  LEU198      0.1596
     74  C          8.2460    1.0480    5.0660 C.2   198  LEU198      0.2287
     75  O          8.7370    0.8350    3.9570 O.2   198  LEU198     -0.2864
     76  CB         7.5330    3.4410    5.1440 C.3   198  LEU198      0.0297
     77  CG         6.0510    3.3440    5.5300 C.3   198  LEU198      0.0022
     78  CD1        5.9280    3.3580    7.0510 C.3   198  LEU198      0.0001
     79  CD2        5.2530    4.4960    4.9150 C.3   198  LEU198      0.0001
     80  N         14.1250    6.2540   11.6830 N.3   222  ASP222     -0.1239
     81  CA        13.1310    5.3540   12.2320 C.3   222  ASP222      0.1674
     82  C         13.2040    4.0740   11.4150 C.2   222  ASP222      0.2266
     83  O         12.5950    3.9710   10.3450 O.2   222  ASP222     -0.2867
     84  CB        11.7310    5.9830   12.1540 C.3   222  ASP222      0.1410
     85  CG        10.6420    5.0780   12.7150 C.2   222  ASP222      0.3668
     86  OD1       10.9130    3.8850   12.9690 O.co2 222  ASP222     -0.2456
     87  OD2        9.5030    5.5590   12.8930 O.co2 222  ASP222     -0.2456
     88  N         12.2310    1.1850   12.7100 N.3   224  CYS224     -0.1221
     89  CA        11.4520    0.2580   13.5160 C.3   224  CYS224      0.1808
     90  C         10.8890   -0.9280   12.7250 C.2   224  CYS224      0.2601
     91  O         10.6750   -1.9970   13.2920 O.2   224  CYS224     -0.2717
     92  CB        10.3800    0.9930   14.3190 C.3   224  CYS224      0.0970
     93  SG        11.1500    2.0350   15.6030 S.3   224  CYS224     -0.0800
     94  N         10.6950   -0.7600   11.4190 N.am  225  GLN225     -0.1979
     95  CA        10.2330   -1.8700   10.5820 C.3   225  GLN225      0.1601
     96  C         11.3460   -2.4380    9.6870 C.2   225  GLN225      0.2287
     97  O         11.0810   -3.2420    8.8050 O.2   225  GLN225     -0.2864
     98  CB         9.0510   -1.4310    9.7030 C.3   225  GLN225      0.0394
     99  CG         7.8790   -0.8620   10.5030 C.3   225  GLN225      0.0908
    100  CD         6.7080   -0.4470    9.6340 C.2   225  GLN225      0.2608
    101  OE1        6.8010   -0.4060    8.4060 O.2   225  GLN225     -0.2717
    102  NE2        5.5930   -0.1430   10.2720 N.am  225  GLN225     -0.0878
    103  N         12.3520   -1.1960   16.7340 N.3   242  SER242     -0.1217
    104  CA        11.2950   -1.7240   17.5880 C.3   242  SER242      0.1889
    105  C         11.3680   -3.2510   17.6210 C.2   242  SER242      0.2288
    106  O         11.6490   -3.8800   16.5950 O.2   242  SER242     -0.2866
    107  CB         9.9210   -1.3300   17.0640 C.3   242  SER242      0.2089
    108  OG         8.9300   -2.0830   17.7370 O.3   242  SER242     -0.2183
    109  N          8.6360   -4.9320   19.0180 N.3   244  ASN244     -0.1240
    110  CA         7.2230   -5.2720   19.1960 C.3   244  ASN244      0.1653
    111  C          6.9380   -6.6650   18.6120 C.2   244  ASN244      0.2266
    112  O          7.6240   -7.0860   17.6740 O.2   244  ASN244     -0.2867
    113  CB         6.3730   -4.1680   18.5330 C.3   244  ASN244      0.1155
    114  CG         4.9370   -4.5830   18.2720 C.2   244  ASN244      0.2627
    115  OD1        4.6470   -5.2600   17.2860 O.2   244  ASN244     -0.2716
    116  ND2        4.0230   -4.1510   19.1400 N.am  244  ASN244     -0.0877
    117  N          6.8770   -7.2120   14.6470 N.3   247  LYS247     -0.1245
    118  CA         7.9950   -6.8390   13.7790 C.3   247  LYS247      0.1561
    119  C          8.6900   -8.0680   13.1890 C.2   247  LYS247      0.2260
    120  O          8.4560   -9.1840   13.6400 O.2   247  LYS247     -0.2867
    121  CB         8.9810   -5.9460   14.5410 C.3   247  LYS247      0.0271
    122  CG         8.3600   -4.6300   15.0170 C.3   247  LYS247      0.0035
    123  CD         7.8940   -3.8100   13.8180 C.3   247  LYS247      0.0206
    124  CE         7.1590   -2.5480   14.2280 C.3   247  LYS247      0.1093
    125  NZ         5.8380   -2.9000   14.8390 N.3   247  LYS247     -0.1314
    126  N          6.6070   -5.0860   24.8150 N.3   254  LYS254     -0.1231
    127  CA         7.1680   -3.9140   24.1540 C.3   254  LYS254      0.1693
    128  C          8.6580   -3.8230   24.3960 C.2   254  LYS254      0.2591
    129  O          9.1290   -4.1480   25.4790 O.2   254  LYS254     -0.2718
    130  CB         6.4560   -2.6460   24.6200 C.3   254  LYS254      0.0285
    131  CG         5.0330   -2.5740   24.0620 C.3   254  LYS254      0.0035
    132  CD         4.3290   -1.2670   24.3570 C.3   254  LYS254      0.0206
    133  CE         3.7150   -1.2640   25.7350 C.3   254  LYS254      0.1093
    134  NZ         4.7380   -0.8830   26.7420 N.3   254  LYS254     -0.1314
    135  N          9.3960   -3.4110   23.3720 N.am  255  ALA255     -0.1980
    136  CA        10.8270   -3.1740   23.5000 C.3   255  ALA255      0.1597
    137  C         11.3300   -2.4910   22.2330 C.2   255  ALA255      0.2287
    138  O         10.6610   -2.5280   21.2060 O.2   255  ALA255     -0.2864
    139  CB        11.5720   -4.4960   23.7140 C.3   255  ALA255      0.0319
    140  N         -1.1330    3.4310    6.6730 N.3   379  TYR379     -0.1241
    141  CA        -2.0390    3.5910    7.7990 C.3   379  TYR379      0.1605
    142  C         -3.2040    4.4510    7.3380 C.2   379  TYR379      0.2264
    143  O         -3.0570    5.2200    6.3890 O.2   379  TYR379     -0.2867
    144  CB        -1.2900    4.2490    8.9590 C.3   379  TYR379      0.0534
    145  CG        -0.1140    3.4010    9.3890 C.ar  379  TYR379     -0.0201
    146  CD1       -0.2760    2.3900   10.3270 C.ar  379  TYR379     -0.0009
    147  CD2        1.1430    3.5710    8.8120 C.ar  379  TYR379     -0.0009
    148  CE1        0.7780    1.6000   10.7110 C.ar  379  TYR379      0.0417
    149  CE2        2.1980    2.7790    9.1760 C.ar  379  TYR379      0.0417
    150  CZ         2.0090    1.7910   10.1270 C.ar  379  TYR379      0.1957
    151  OH         3.0550    0.9930   10.5060 O.3   379  TYR379     -0.2866
@<TRIPOS>BOND
     1    75    74    2
     2    79    77    1
     3    74    73    1
     4    76    77    1
     5    76    73    1
     6    77    78    1
     7    72    73    1
     8    72    64   am
     9    58    57    2
    10    68    70   ar
    11    68    67   ar
    12    63    64    1
    13    63    66    1
    14    63    62    1
    15    64    65    2
    16   143   142    2
    17    70    71   ar
    18    66    67    1
    19   140   141    1
    20    67    69   ar
    21    57    62   am
    22    57    56    1
    23   142   141    1
    24    71    69   ar
    25    55    56    1
    26   141   144    1
    27    56    59    1
    28    26    27    1
    29    59    60    1
    30    59    61    1
    31   101   100    2
    32    97    96    2
    33   147   149   ar
    34   147   145   ar
    35   144   145    1
    36    27    30    1
    37    27    28    1
    38   149   150   ar
    39   145   146   ar
    40   100   102   am
    41   100    99    1
    42    96    95    1
    43    98    99    1
    44    98    95    1
    45    30    31    1
    46    28    29    2
    47    28    32   am
    48   150   151    1
    49   150   148   ar
    50   146   148   ar
    51    83    82    2
    52    95    94    1
    53    32    33    1
    54    82    81    1
    55    94    90   am
    56    80    81    1
    57    33    36    1
    58    33    34    1
    59    84    81    1
    60    84    85    1
    61    36    37    1
    62    88    89    1
    63    85    87   ar
    64    85    86   ar
    65    90    91    2
    66    90    89    1
    67    54    52    1
    68    53    52    1
    69    34    35    2
    70   119   120    2
    71   119   118    1
    72    52    49    1
    73    89    92    1
    74   118   121    1
    75   118   117    1
    76   123   124    1
    77   123   122    1
    78    38    37   ar
    79    38    40   ar
    80    37    39   ar
    81   124   125    1
    82    92    93    1
    83   121   122    1
    84    49    50    1
    85    49    48    1
    86    40    42   ar
    87    50    51    2
    88    39    41   ar
    89    48    45   am
    90    43    44    1
    91    42    41   ar
    92    25    23    1
    93    45    44    1
    94    45    46    2
    95   106   105    2
    96   103   104    1
    97    44    47    1
    98   107   104    1
    99   107   108    1
   100    24    22    1
   101    23    22    1
   102   115   114    2
   103   104   105    1
   104   112   111    2
   105    22    19    1
   106   114   113    1
   107   114   116   am
   108   113   110    1
   109   111   110    1
   110    19    18    1
   111    19    20    1
   112   109   110    1
   113    10     9    2
   114     8     9    1
   115     8     7    1
   116    21    20    2
   117     9    11   am
   118    16    15    1
   119    11    12    1
   120    12    15    1
   121    12    13    1
   122     7     3   am
   123    15    17    1
   124   138   137    2
   125    14    13    2
   126     3     4    2
   127     3     2    1
   128   137   136    1
   129     2     5    1
   130     2     1    1
   131     5     6    1
   132   135   136    1
   133   135   128   am
   134   136   139    1
   135   131   132    1
   136   131   130    1
   137   127   128    1
   138   127   130    1
   139   127   126    1
   140   132   133    1
   141   128   129    2
   142   133   134    1
