@<TRIPOS>MOLECULE
tmp/4k2mA00.pdb
 182 175 0 0 0
SMALL
GASTEIGER

@<TRIPOS>ATOM
      1  N         10.3460    0.6340   24.1090 N.3   126  SER126     -0.1202
      2  CA         9.5810    0.5740   22.8560 C.3   126  SER126      0.2020
      3  C         10.3180    1.3180   21.7660 C.2   126  SER126      0.2619
      4  O         11.2490    2.0630   22.0470 O.2   126  SER126     -0.2717
      5  CB         8.1880    1.1890   23.0110 C.3   126  SER126      0.2103
      6  OG         8.2720    2.6040   23.1870 O.3   126  SER126     -0.2182
      7  N          9.8660    1.1460   20.5280 N.am  127  GLY127     -0.1942
      8  CA        10.3960    1.8960   19.4030 C.3   127  GLY127      0.2014
      9  C         10.0790    3.3740   19.5430 C.2   127  GLY127      0.2639
     10  O         10.9210    4.2310   19.2570 O.2   127  GLY127     -0.2714
     11  N          8.8690    3.6820   20.0100 N.am  128  THR128     -0.1950
     12  CA         8.4770    5.0710   20.2310 C.3   128  THR128      0.1897
     13  C          9.4370    5.7570   21.1970 C.2   128  THR128      0.2313
     14  O          9.8900    6.9000   20.9590 O.2   128  THR128     -0.2863
     15  CB         7.0360    5.1580   20.7990 C.3   128  THR128      0.1794
     16  OG1        6.1300    4.5540   19.8660 O.3   128  THR128     -0.2208
     17  CG2        6.6340    6.6150   21.0080 C.3   128  THR128      0.0378
     18  N         12.8340    6.5920   19.6330 N.3   131  ILE131     -0.1245
     19  CA        12.8710    7.8260   18.8510 C.3   131  ILE131      0.1561
     20  C         12.8800    9.0420   19.7720 C.2   131  ILE131      0.2260
     21  O         13.6460    9.9890   19.5680 O.2   131  ILE131     -0.2867
     22  CB        11.6860    7.8960   17.8720 C.3   131  ILE131      0.0252
     23  CG1       11.7380    6.6990   16.9170 C.3   131  ILE131      0.0019
     24  CG2       11.7180    9.2480   17.1040 C.3   131  ILE131      0.0019
     25  CD1       10.4250    6.4630   16.1620 C.3   131  ILE131      0.0001
     26  N          3.7880    7.6960    8.1180 N.3   152  SER152     -0.1202
     27  CA         4.2630    6.6580    9.0320 C.3   152  SER152      0.2020
     28  C          3.1650    6.3180   10.0450 C.2   152  SER152      0.2618
     29  O          2.1010    6.9400   10.0690 O.2   152  SER152     -0.2717
     30  CB         5.5190    7.1460    9.7680 C.3   152  SER152      0.2103
     31  OG         6.0860    6.0860   10.5230 O.3   152  SER152     -0.2182
     32  N          3.4170    5.3220   10.8780 N.am  153  PHE153     -0.1975
     33  CA         2.5530    5.0520   12.0220 C.3   153  PHE153      0.1639
     34  C          2.6270    6.2570   12.9550 C.2   153  PHE153      0.2290
     35  O          3.6480    6.9490   13.0050 O.2   153  PHE153     -0.2864
     36  CB         3.0490    3.7830   12.7230 C.3   153  PHE153      0.0560
     37  CG         2.2530    3.4040   13.9470 C.ar  153  PHE153     -0.0200
     38  CD1        0.8850    3.1500   13.8640 C.ar  153  PHE153     -0.0042
     39  CD2        2.8830    3.2700   15.1700 C.ar  153  PHE153     -0.0042
     40  CE1        0.1490    2.7910   15.0020 C.ar  153  PHE153     -0.0003
     41  CE2        2.1550    2.9270   16.3150 C.ar  153  PHE153     -0.0003
     42  CZ         0.7920    2.6830   16.2260 C.ar  153  PHE153     -0.0000
     43  N          3.2730    6.7590   15.8300 N.3   155  ALA155     -0.1231
     44  CA         4.3540    6.7660   16.8150 C.3   155  ALA155      0.1694
     45  C          5.4860    7.7080   16.4580 C.2   155  ALA155      0.2592
     46  O          6.1120    8.2970   17.3400 O.2   155  ALA155     -0.2718
     47  CB         4.9070    5.3640   16.9800 C.3   155  ALA155      0.0304
     48  N          5.7640    7.8380   15.1630 N.am  156  THR156     -0.1953
     49  CA         6.8990    8.6390   14.7230 C.3   156  THR156      0.1897
     50  C          6.6530   10.1120   15.0980 C.2   156  THR156      0.2313
     51  O          7.4770   10.7350   15.7790 O.2   156  THR156     -0.2863
     52  CB         7.1610    8.4820   13.2070 C.3   156  THR156      0.1794
     53  OG1        7.1690    7.0890   12.8520 O.3   156  THR156     -0.2208
     54  CG2        8.5020    9.1150   12.8090 C.3   156  THR156      0.0378
     55  N         11.8270    7.5960    7.5560 N.3   198  VAL198     -0.1245
     56  CA        11.2440    6.3430    8.0020 C.3   198  VAL198      0.1561
     57  C         11.4360    5.2760    6.9330 C.2   198  VAL198      0.2260
     58  O         11.1340    5.5010    5.7570 O.2   198  VAL198     -0.2867
     59  CB         9.7490    6.5050    8.2570 C.3   198  VAL198      0.0252
     60  CG1        9.1410    5.1740    8.7460 C.3   198  VAL198      0.0019
     61  CG2        9.4980    7.6150    9.2710 C.3   198  VAL198      0.0019
     62  N          9.8040    2.9110    5.6490 N.3   200  LEU200     -0.1245
     63  CA         8.4190    2.4670    5.7490 C.3   200  LEU200      0.1561
     64  C          8.1850    1.1660    5.0120 C.2   200  LEU200      0.2260
     65  O          8.6580    0.9780    3.8780 O.2   200  LEU200     -0.2867
     66  CB         7.4970    3.5420    5.1740 C.3   200  LEU200      0.0270
     67  CG         6.0150    3.3660    5.5030 C.3   200  LEU200      0.0019
     68  CD1        5.7770    3.3480    7.0260 C.3   200  LEU200      0.0001
     69  CD2        5.2380    4.5170    4.8570 C.3   200  LEU200      0.0001
     70  N         14.0730    6.2470   11.5890 N.3   224  ASP224     -0.1239
     71  CA        13.0870    5.3660   12.1920 C.3   224  ASP224      0.1674
     72  C         13.1720    4.0970   11.3730 C.2   224  ASP224      0.2266
     73  O         12.6120    4.0110   10.2780 O.2   224  ASP224     -0.2867
     74  CB        11.6960    5.9850   12.0610 C.3   224  ASP224      0.1410
     75  CG        10.6040    5.1020   12.6070 C.2   224  ASP224      0.3668
     76  OD1       10.8300    3.8900   12.8090 O.co2 224  ASP224     -0.2456
     77  OD2        9.4970    5.6250   12.8110 O.co2 224  ASP224     -0.2456
     78  N         12.1490    1.2580   12.6470 N.3   226  CYS226     -0.1221
     79  CA        11.3630    0.3310   13.4580 C.3   226  CYS226      0.1808
     80  C         10.7820   -0.8480   12.6690 C.2   226  CYS226      0.2601
     81  O         10.5720   -1.9360   13.2330 O.2   226  CYS226     -0.2717
     82  CB        10.2900    1.0740   14.2580 C.3   226  CYS226      0.0970
     83  SG        11.0250    2.0970   15.5680 S.3   226  CYS226     -0.0800
     84  N         10.5820   -0.6610   11.3600 N.am  227  GLN227     -0.1979
     85  CA        10.0870   -1.7510   10.5040 C.3   227  GLN227      0.1601
     86  C         11.1800   -2.3390    9.6080 C.2   227  GLN227      0.2287
     87  O         10.8880   -3.1310    8.7210 O.2   227  GLN227     -0.2864
     88  CB         8.9550   -1.2430    9.6050 C.3   227  GLN227      0.0394
     89  CG         7.6720   -0.9180   10.3710 C.3   227  GLN227      0.0908
     90  CD         6.5660   -0.3960    9.4630 C.2   227  GLN227      0.2608
     91  OE1        6.6920   -0.4170    8.2380 O.2   227  GLN227     -0.2717
     92  NE2        5.4800    0.0820   10.0640 N.am  227  GLN227     -0.0878
     93  N         12.2340   -1.1620   16.5990 N.3   244  SER244     -0.1217
     94  CA        11.1460   -1.6690   17.4400 C.3   244  SER244      0.1889
     95  C         11.2330   -3.1750   17.4760 C.2   244  SER244      0.2288
     96  O         11.5460   -3.8030   16.4500 O.2   244  SER244     -0.2866
     97  CB         9.7780   -1.3160   16.8630 C.3   244  SER244      0.2089
     98  OG         8.7600   -1.9880   17.5960 O.3   244  SER244     -0.2183
     99  N          8.5030   -4.7410   18.8290 N.3   246  ASN246     -0.1226
    100  CA         7.0960   -5.0850   19.0220 C.3   246  ASN246      0.1770
    101  C          6.8330   -6.4620   18.3670 C.2   246  ASN246      0.2439
    102  O          7.4750   -6.8340   17.3710 O.2   246  ASN246     -0.2733
    103  CB         6.2350   -3.9510   18.4340 C.3   246  ASN246      0.1168
    104  CG         4.8360   -4.3850   18.0780 C.2   246  ASN246      0.2627
    105  OD1        4.6120   -4.9450   17.0010 O.2   246  ASN246     -0.2716
    106  ND2        3.8730   -4.0940   18.9620 N.am  246  ASN246     -0.0877
    107  N          5.9180   -7.2460   18.9370 N.am  247  PRO247     -0.2718
    108  CA         5.7380   -8.6150   18.4440 C.3   247  PRO247      0.1535
    109  C          5.3170   -8.7630   16.9870 C.2   247  PRO247      0.2599
    110  O          5.4180   -9.8790   16.4710 O.2   247  PRO247     -0.2715
    111  CB         4.6160   -9.1540   19.3360 C.3   247  PRO247      0.0310
    112  CG         4.7720   -8.3870   20.5990 C.3   247  PRO247      0.0237
    113  CD         5.1610   -7.0050   20.1820 C.3   247  PRO247      0.0939
    114  N          4.8210   -7.7070   16.3480 N.am  248  TYR248     -0.1960
    115  CA         4.4490   -7.8230   14.9430 C.3   248  TYR248      0.1771
    116  C          5.6050   -7.4910   14.0070 C.2   248  TYR248      0.2619
    117  O          5.4640   -7.6100   12.7890 O.2   248  TYR248     -0.2715
    118  CB         3.2640   -6.9230   14.6020 C.3   248  TYR248      0.0574
    119  CG         2.1860   -6.8990   15.6580 C.ar  248  TYR248     -0.0198
    120  CD1        1.7490   -8.0670   16.2740 C.ar  248  TYR248     -0.0009
    121  CD2        1.6310   -5.7010   16.0560 C.ar  248  TYR248     -0.0009
    122  CE1        0.7660   -8.0260   17.2600 C.ar  248  TYR248      0.0417
    123  CE2        0.6570   -5.6500   17.0150 C.ar  248  TYR248      0.0417
    124  CZ         0.2250   -6.8030   17.6150 C.ar  248  TYR248      0.1957
    125  OH        -0.7470   -6.7180   18.5910 O.3   248  TYR248     -0.2866
    126  N          6.7390   -7.0670   14.5540 N.am  249  LYS249     -0.1977
    127  CA         7.8670   -6.6730   13.6920 C.3   249  LYS249      0.1596
    128  C          8.5940   -7.8950   13.1110 C.2   249  LYS249      0.2287
    129  O          8.3550   -9.0360   13.5200 O.2   249  LYS249     -0.2864
    130  CB         8.8520   -5.7620   14.4480 C.3   249  LYS249      0.0298
    131  CG         8.2390   -4.4420   14.9660 C.3   249  LYS249      0.0038
    132  CD         7.6740   -3.5860   13.8370 C.3   249  LYS249      0.0206
    133  CE         6.8920   -2.4150   14.4190 C.3   249  LYS249      0.1093
    134  NZ         5.6130   -2.9210   15.0360 N.3   249  LYS249     -0.1314
    135  N          6.4230   -4.9720   24.7300 N.3   256  LYS256     -0.1231
    136  CA         7.0280   -3.8120   24.0690 C.3   256  LYS256      0.1693
    137  C          8.5350   -3.7520   24.3300 C.2   256  LYS256      0.2591
    138  O          8.9980   -4.0730   25.4390 O.2   256  LYS256     -0.2718
    139  CB         6.3390   -2.5100   24.5240 C.3   256  LYS256      0.0285
    140  CG         4.9360   -2.3300   23.9370 C.3   256  LYS256      0.0035
    141  CD         4.3200   -0.9710   24.2690 C.3   256  LYS256      0.0206
    142  CE         3.9670   -0.8110   25.7360 C.3   256  LYS256      0.1093
    143  NZ         2.8890   -1.7680   26.1210 N.3   256  LYS256     -0.1314
    144  N          9.2880   -3.3520   23.3030 N.am  257  ALA257     -0.1980
    145  CA        10.7170   -3.0960   23.4310 C.3   257  ALA257      0.1597
    146  C         11.2140   -2.4310   22.1550 C.2   257  ALA257      0.2287
    147  O         10.5430   -2.4870   21.1280 O.2   257  ALA257     -0.2864
    148  CB        11.4770   -4.4190   23.6670 C.3   257  ALA257      0.0319
    149  N          8.5380   -5.9460    5.5270 N.3   351  HIS351     -0.1241
    150  CA         7.6950   -5.9860    6.7100 C.3   351  HIS351      0.1621
    151  C          6.2120   -5.9600    6.3100 C.2   351  HIS351      0.2264
    152  O          5.3840   -6.6790    6.8780 O.2   351  HIS351     -0.2867
    153  CB         7.9930   -4.7980    7.6230 C.3   351  HIS351      0.0745
    154  CG         7.0840   -4.7360    8.8070 C.ar  351  HIS351      0.0817
    155  ND1        7.0630   -5.7150    9.7760 N.ar  351  HIS351     -0.2268
    156  CD2        6.1400   -3.8330    9.1610 C.ar  351  HIS351      0.1154
    157  CE1        6.1540   -5.4100   10.6870 C.ar  351  HIS351      0.1986
    158  NE2        5.5790   -4.2750   10.3370 N.ar  351  HIS351     -0.2212
    159  N         -2.0200    0.2300    5.7350 N.3   380  TYR380     -0.1227
    160  CA        -1.1860    0.8450    6.7810 C.3   380  TYR380      0.1736
    161  C         -0.6680    2.1670    6.2230 C.2   380  TYR380      0.2595
    162  O          0.2040    2.1490    5.3370 O.2   380  TYR380     -0.2718
    163  CB         0.0120   -0.0770    7.0950 C.3   380  TYR380      0.0548
    164  CG        -0.3060   -1.3080    7.9380 C.ar  380  TYR380     -0.0200
    165  CD1       -1.2290   -2.2600    7.5120 C.ar  380  TYR380     -0.0009
    166  CD2        0.3560   -1.5340    9.1440 C.ar  380  TYR380     -0.0009
    167  CE1       -1.5160   -3.3850    8.2950 C.ar  380  TYR380      0.0417
    168  CE2        0.0990   -2.6580    9.9160 C.ar  380  TYR380      0.0417
    169  CZ        -0.8450   -3.5790    9.4870 C.ar  380  TYR380      0.1957
    170  OH        -1.1060   -4.6890   10.2660 O.3   380  TYR380     -0.2866
    171  N         -1.1460    3.3240    6.7020 N.am  381  TYR381     -0.1976
    172  CA        -2.0720    3.5020    7.8200 C.3   381  TYR381      0.1639
    173  C         -3.2350    4.3430    7.3030 C.2   381  TYR381      0.2290
    174  O         -3.1190    4.9820    6.2600 O.2   381  TYR381     -0.2864
    175  CB        -1.3410    4.2100    8.9840 C.3   381  TYR381      0.0560
    176  CG        -0.1950    3.3410    9.4540 C.ar  381  TYR381     -0.0198
    177  CD1       -0.3960    2.3760   10.4240 C.ar  381  TYR381     -0.0009
    178  CD2        1.0640    3.4260    8.8580 C.ar  381  TYR381     -0.0009
    179  CE1        0.6410    1.5290   10.8290 C.ar  381  TYR381      0.0417
    180  CE2        2.1070    2.5800    9.2500 C.ar  381  TYR381      0.0417
    181  CZ         1.8830    1.6420   10.2370 C.ar  381  TYR381      0.1957
    182  OH         2.9040    0.8000   10.6430 O.3   381  TYR381     -0.2866
@<TRIPOS>BOND
     1    65    64    2
     2    69    67    1
     3    64    63    1
     4    66    67    1
     5    66    63    1
     6   162   161    2
     7    67    68    1
     8   149   150    1
     9    62    63    1
    10   159   160    1
    11    58    57    2
    12   161   171   am
    13   161   160    1
    14   174   173    2
    15   151   150    1
    16   151   152    2
    17   171   172    1
    18   150   153    1
    19   160   163    1
    20    57    56    1
    21   163   164    1
    22   173   172    1
    23   165   164   ar
    24   165   167   ar
    25    55    56    1
    26   153   154    1
    27   172   175    1
    28   164   166   ar
    29    56    59    1
    30    26    27    1
    31    91    90    2
    32    59    60    1
    33    59    61    1
    34   167   169   ar
    35    87    86    2
    36   154   156   ar
    37   154   155   ar
    38   178   180   ar
    39   178   176   ar
    40   175   176    1
    41    27    30    1
    42    27    28    1
    43   166   168   ar
    44   156   158   ar
    45   180   181   ar
    46   176   177   ar
    47    90    92   am
    48    90    89    1
    49   169   168   ar
    50   169   170    1
    51    88    89    1
    52    88    85    1
    53    86    85    1
    54    30    31    1
    55   155   157   ar
    56    28    29    2
    57    28    32   am
    58   181   182    1
    59   181   179   ar
    60    73    72    2
    61   158   157   ar
    62   177   179   ar
    63    85    84    1
    64    32    33    1
    65    84    80   am
    66    72    71    1
    67    70    71    1
    68    33    36    1
    69    33    34    1
    70    74    71    1
    71    74    75    1
    72    75    76   ar
    73    75    77   ar
    74    78    79    1
    75    80    81    2
    76    80    79    1
    77    36    37    1
    78   117   116    2
    79    54    52    1
    80    53    52    1
    81    34    35    2
    82   128   129    2
    83   128   127    1
    84    52    49    1
    85    79    82    1
    86   127   130    1
    87   127   126    1
    88   132   133    1
    89   132   131    1
    90    38    37   ar
    91    38    40   ar
    92    37    39   ar
    93   116   126   am
    94   116   115    1
    95    82    83    1
    96   133   134    1
    97   130   131    1
    98   118   115    1
    99   118   119    1
   100    49    50    1
   101    49    48    1
   102   115   114    1
   103    40    42   ar
   104    50    51    2
   105    48    45   am
   106    39    41   ar
   107   119   121   ar
   108   119   120   ar
   109    43    44    1
   110   121   123   ar
   111    25    23    1
   112    42    41   ar
   113   120   122   ar
   114   114   109   am
   115    96    95    2
   116    45    44    1
   117    45    46    2
   118   110   109    2
   119    93    94    1
   120    44    47    1
   121    97    94    1
   122    97    98    1
   123    23    22    1
   124   109   108    1
   125   105   104    2
   126   123   124   ar
   127    24    22    1
   128   122   124   ar
   129   102   101    2
   130    94    95    1
   131   124   125    1
   132    22    19    1
   133   104   103    1
   134   104   106   am
   135   101   107   am
   136   101   100    1
   137   103   100    1
   138   108   107    1
   139   108   111    1
   140    99   100    1
   141    19    18    1
   142    19    20    1
   143   107   113    1
   144    10     9    2
   145   111   112    1
   146     8     9    1
   147     8     7    1
   148     9    11   am
   149    21    20    2
   150    16    15    1
   151    11    12    1
   152   113   112    1
   153    12    15    1
   154    12    13    1
   155     7     3   am
   156    15    17    1
   157    14    13    2
   158   147   146    2
   159     3     4    2
   160     3     2    1
   161   146   145    1
   162     2     5    1
   163     2     1    1
   164     5     6    1
   165   144   145    1
   166   144   137   am
   167   145   148    1
   168   140   141    1
   169   140   139    1
   170   136   137    1
   171   136   139    1
   172   136   135    1
   173   141   142    1
   174   137   138    2
   175   142   143    1
