@<TRIPOS>MOLECULE
tmp/4k2rA00.pdb
 191 180 0 0 0
SMALL
GASTEIGER

@<TRIPOS>ATOM
      1  N         12.2090    1.2810  -29.9670 N.3   298  LEU298     -0.1231
      2  CA        12.2320    1.5410  -28.5140 C.3   298  LEU298      0.1693
      3  C         13.4230    0.9010  -27.8410 C.2   298  LEU298      0.2593
      4  O         13.9070    1.3660  -26.8210 O.2   298  LEU298     -0.2718
      5  CB        10.9600    1.0170  -27.8440 C.3   298  LEU298      0.0284
      6  CG         9.6800    1.7420  -28.2450 C.3   298  LEU298      0.0019
      7  CD1        8.4740    0.9980  -27.6920 C.3   298  LEU298      0.0001
      8  CD2        9.7270    3.1960  -27.7850 C.3   298  LEU298      0.0001
      9  N         13.8810   -0.1880  -28.4250 N.am  299  GLY299     -0.1942
     10  CA        15.0190   -0.9120  -27.9070 C.3   299  GLY299      0.2014
     11  C         15.1010   -2.2050  -28.6730 C.2   299  GLY299      0.2639
     12  O         14.2340   -2.5180  -29.4990 O.2   299  GLY299     -0.2714
     13  N         16.1470   -2.9690  -28.3970 N.am  300  CYS300     -0.1953
     14  CA        16.2920   -4.2830  -28.9990 C.3   300  CYS300      0.1843
     15  C         16.8060   -5.2770  -27.9730 C.2   300  CYS300      0.2626
     16  O         17.6360   -4.9360  -27.1160 O.2   300  CYS300     -0.2714
     17  CB        17.1930   -4.2210  -30.2470 C.3   300  CYS300      0.0997
     18  SG        18.8880   -3.6500  -29.9790 S.3   300  CYS300     -0.0797
     19  N         16.2790   -6.4940  -28.0480 N.am  301  GLY301     -0.1940
     20  CA        16.6940   -7.5630  -27.1390 C.3   301  GLY301      0.2014
     21  C         17.0300   -8.8420  -27.8720 C.2   301  GLY301      0.2639
     22  O         16.9180   -8.9090  -29.1040 O.2   301  GLY301     -0.2714
     23  N         17.4250   -9.8620  -27.1140 N.am  302  ASN302     -0.1958
     24  CA        17.6880  -11.1840  -27.6830 C.3   302  ASN302      0.1819
     25  C         16.5480  -11.6880  -28.5750 C.2   302  ASN302      0.2621
     26  O         16.7800  -12.0830  -29.7230 O.2   302  ASN302     -0.2715
     27  CB        18.0220  -12.1960  -26.5780 C.3   302  ASN302      0.1195
     28  CG        19.3180  -11.8600  -25.8400 C.2   302  ASN302      0.2630
     29  OD1       20.0850  -10.9780  -26.2450 O.2   302  ASN302     -0.2716
     30  ND2       19.5660  -12.5700  -24.7440 N.am  302  ASN302     -0.0877
     31  N         15.3210  -11.6380  -28.0640 N.am  303  PHE303     -0.1960
     32  CA        14.1760  -12.1520  -28.8200 C.3   303  PHE303      0.1774
     33  C         13.8800  -11.4600  -30.1650 C.2   303  PHE303      0.2659
     34  O         13.5380  -12.1340  -31.1380 O.2   303  PHE303     -0.2711
     35  CB        12.9190  -12.2500  -27.9440 C.3   303  PHE303      0.0574
     36  CG        12.6030  -13.6520  -27.4960 C.ar  303  PHE303     -0.0200
     37  CD1       11.9030  -14.5240  -28.3350 C.ar  303  PHE303     -0.0042
     38  CD2       13.0190  -14.1160  -26.2530 C.ar  303  PHE303     -0.0042
     39  CE1       11.6180  -15.8260  -27.9480 C.ar  303  PHE303     -0.0003
     40  CE2       12.7320  -15.4250  -25.8520 C.ar  303  PHE303     -0.0003
     41  CZ        12.0370  -16.2830  -26.7050 C.ar  303  PHE303     -0.0000
     42  N         14.0010  -10.1380  -30.2260 N.am  304  GLY304     -0.1730
     43  CA        13.7340   -9.4310  -31.4780 C.2   304  GLY304      0.1340
     44  C         14.0370   -7.9400  -31.4740 C.2   304  GLY304      0.2521
     45  O         15.0200   -7.4830  -30.8600 O.2   304  GLY304     -0.2816
     46  N         11.9750   -4.1020  -30.9370 N.3   306  VAL306     -0.1245
     47  CA        10.7530   -3.5170  -30.3880 C.3   306  VAL306      0.1561
     48  C         10.5090   -2.1090  -30.9380 C.2   306  VAL306      0.2260
     49  O         11.3210   -1.2090  -30.7510 O.2   306  VAL306     -0.2867
     50  CB        10.7990   -3.4460  -28.8570 C.3   306  VAL306      0.0252
     51  CG1        9.4070   -3.2240  -28.3090 C.3   306  VAL306      0.0019
     52  CG2       11.4050   -4.7060  -28.2520 C.3   306  VAL306      0.0019
     53  N          3.2650   -1.1500  -28.2560 N.3   321  ALA321     -0.1245
     54  CA         4.6490   -1.5170  -28.4320 C.3   321  ALA321      0.1562
     55  C          4.6810   -2.8430  -29.1670 C.2   321  ALA321      0.2260
     56  O          4.0700   -3.8020  -28.7170 O.2   321  ALA321     -0.2867
     57  CB         5.3060   -1.6370  -27.0790 C.3   321  ALA321      0.0290
     58  N          6.7250   -6.1080  -30.5490 N.3   323  LYS323     -0.1245
     59  CA         7.9270   -6.9360  -30.5400 C.3   323  LYS323      0.1561
     60  C          7.8790   -7.8570  -31.7420 C.2   323  LYS323      0.2260
     61  O          6.9110   -8.5900  -31.9350 O.2   323  LYS323     -0.2867
     62  CB         8.0890   -7.7190  -29.2270 C.3   323  LYS323      0.0271
     63  CG         9.3300   -8.5920  -29.1910 C.3   323  LYS323      0.0035
     64  CD         9.7980   -8.8590  -27.7560 C.3   323  LYS323      0.0206
     65  CE        11.0760   -9.6950  -27.7330 C.3   323  LYS323      0.1093
     66  NZ        11.8720   -9.7250  -26.4680 N.3   323  LYS323     -0.1314
     67  N          2.4300   -6.2830  -18.5120 N.3   353  VAL353     -0.1245
     68  CA         2.2010   -5.6980  -19.8350 C.3   353  VAL353      0.1561
     69  C          1.1900   -6.6130  -20.5350 C.2   353  VAL353      0.2260
     70  O          1.4150   -7.8330  -20.6420 O.2   353  VAL353     -0.2867
     71  CB         3.4990   -5.5970  -20.6680 C.3   353  VAL353      0.0252
     72  CG1        3.1720   -5.1080  -22.0740 C.3   353  VAL353      0.0019
     73  CG2        4.4990   -4.6720  -19.9990 C.3   353  VAL353      0.0019
     74  N          1.6710   -5.3120  -27.9250 N.3   368  MET368     -0.1230
     75  CA         1.4140   -5.1750  -26.4910 C.3   368  MET368      0.1702
     76  C          1.3130   -3.7390  -26.0060 C.2   368  MET368      0.2592
     77  O          1.6080   -2.8130  -26.7420 O.2   368  MET368     -0.2718
     78  CB         2.4550   -5.9460  -25.7050 C.3   368  MET368      0.0401
     79  CG         3.8560   -5.7930  -26.2380 C.3   368  MET368      0.0596
     80  SD         5.0250   -6.7810  -25.2740 S.3   368  MET368     -0.1393
     81  CE         6.5880   -6.4200  -26.0880 C.3   368  MET368      0.0692
     82  N          0.8840   -3.5730  -24.7570 N.am  369  GLU369     -0.1966
     83  CA         0.7360   -2.2620  -24.1210 C.3   369  GLU369      0.1733
     84  C          2.0730   -1.5020  -24.1000 C.2   369  GLU369      0.2616
     85  O          3.1600   -2.0940  -24.1720 O.2   369  GLU369     -0.2715
     86  CB         0.2340   -2.3920  -22.6770 C.3   369  GLU369      0.0429
     87  CG        -1.1680   -2.9120  -22.4710 C.3   369  GLU369      0.1163
     88  CD        -1.5400   -3.0310  -20.9870 C.2   369  GLU369      0.3649
     89  OE1       -0.6270   -3.1020  -20.1240 O.co2 369  GLU369     -0.2457
     90  OE2       -2.7620   -3.0700  -20.6750 O.co2 369  GLU369     -0.2457
     91  N          1.9750   -0.1810  -23.9760 N.am  370  MET370     -0.1963
     92  CA         3.1050    0.7430  -24.0660 C.3   370  MET370      0.1736
     93  C          3.6810    1.1810  -22.7080 C.2   370  MET370      0.2616
     94  O          3.1530    2.1340  -22.0760 O.2   370  MET370     -0.2715
     95  CB         2.6380    1.9680  -24.8290 C.3   370  MET370      0.0427
     96  CG         3.6860    3.0450  -24.9360 C.3   370  MET370      0.0599
     97  SD         5.2240    2.3550  -25.5430 S.3   370  MET370     -0.1393
     98  CE         6.0910    3.8770  -25.9260 C.3   370  MET370      0.0692
     99  N          4.7490    0.5080  -22.2560 N.am  371  ALA371     -0.1963
    100  CA         5.4200    0.9130  -21.0240 C.3   371  ALA371      0.1728
    101  C          6.7810    1.5250  -21.3700 C.2   371  ALA371      0.2616
    102  O          7.8280    0.9300  -21.1000 O.2   371  ALA371     -0.2715
    103  CB         5.5550   -0.2580  -20.0600 C.3   371  ALA371      0.0334
    104  N          6.7570    2.7080  -21.9810 N.am  372  GLY372     -0.1955
    105  CA         7.9660    3.3360  -22.5290 C.3   372  GLY372      0.1869
    106  C          8.9790    3.8780  -21.5470 C.2   372  GLY372      0.2309
    107  O          9.9070    4.5820  -21.9380 O.2   372  GLY372     -0.2863
    108  N         11.2870    2.3230  -20.0300 N.3   374  GLY374     -0.1210
    109  CA        12.5620    1.5910  -19.9880 C.3   374  GLY374      0.1940
    110  C         12.6060    0.7170  -18.7480 C.2   374  GLY374      0.2453
    111  O         11.8000    0.9030  -17.8420 O.2   374  GLY374     -0.2732
    112  N         13.5290   -0.2560  -18.6980 N.am  375  PRO375     -0.2728
    113  CA        13.3790   -1.2530  -17.6430 C.3   375  PRO375      0.1401
    114  C         13.8720   -0.7980  -16.2760 C.2   375  PRO375      0.2269
    115  O         14.6060    0.2090  -16.1650 O.2   375  PRO375     -0.2865
    116  CB        14.2230   -2.4080  -18.1450 C.3   375  PRO375      0.0296
    117  CG        15.3060   -1.7490  -18.9160 C.3   375  PRO375      0.0237
    118  CD        14.7330   -0.4920  -19.5140 C.3   375  PRO375      0.0939
    119  N         17.9520   -0.3710  -15.2440 N.3   378  LYS378     -0.1245
    120  CA        18.5640    0.8220  -15.8330 C.3   378  LYS378      0.1561
    121  C         18.0270    2.0660  -15.1510 C.2   378  LYS378      0.2260
    122  O         18.7990    2.9190  -14.7170 O.2   378  LYS378     -0.2867
    123  CB        18.3640    0.8620  -17.3520 C.3   378  LYS378      0.0271
    124  CG        19.2790   -0.1280  -18.0800 C.3   378  LYS378      0.0035
    125  CD        18.9000   -0.3620  -19.5390 C.3   378  LYS378      0.0206
    126  CE        19.8520   -1.3660  -20.1860 C.3   378  LYS378      0.1093
    127  NZ        19.2200   -2.0300  -21.3630 N.3   378  LYS378     -0.1314
    128  N         11.1580  -15.6560  -17.8820 N.3   415  ASN415     -0.1240
    129  CA        12.2350  -14.7350  -18.1350 C.3   415  ASN415      0.1653
    130  C         12.0750  -13.5470  -17.2050 C.2   415  ASN415      0.2266
    131  O         12.0680  -12.3820  -17.6540 O.2   415  ASN415     -0.2867
    132  CB        12.2550  -14.2930  -19.6000 C.3   415  ASN415      0.1155
    133  CG        12.7400  -15.3790  -20.5310 C.2   415  ASN415      0.2627
    134  OD1       13.4480  -16.3040  -20.1150 O.2   415  ASN415     -0.2716
    135  ND2       12.3570  -15.2780  -21.8050 N.am  415  ASN415     -0.0877
    136  N         15.4140   -6.4210  -16.0360 N.3   419  ARG419     -0.1231
    137  CA        15.3530   -6.0740  -17.4640 C.3   419  ARG419      0.1694
    138  C         13.9830   -6.4160  -18.0490 C.2   419  ARG419      0.2592
    139  O         13.6320   -5.9970  -19.1430 O.2   419  ARG419     -0.2718
    140  CB        16.4410   -6.8120  -18.2390 C.3   419  ARG419      0.0321
    141  CG        16.1410   -8.2820  -18.4020 C.3   419  ARG419      0.0489
    142  CD        17.0900   -8.9910  -19.3420 C.3   419  ARG419      0.2205
    143  NE        16.7830  -10.4230  -19.4110 N.pl3 419  ARG419     -0.0865
    144  CZ        17.0750  -11.3200  -18.4560 C.cat 419  ARG419      0.5346
    145  NH1       17.6830  -10.9420  -17.3290 N.pl3 419  ARG419      0.1354
    146  NH2       16.7480  -12.6010  -18.6170 N.pl3 419  ARG419      0.1354
    147  N         13.2150   -7.1980  -17.3070 N.am  420  ASN420     -0.1974
    148  CA        11.8880   -7.6070  -17.7540 C.3   420  ASN420      0.1688
    149  C         10.7700   -6.9650  -16.9470 C.2   420  ASN420      0.2292
    150  O          9.6400   -7.4480  -16.9470 O.2   420  ASN420     -0.2864
    151  CB        11.7750   -9.1380  -17.8030 C.3   420  ASN420      0.1181
    152  CG        12.5180   -9.7290  -18.9920 C.2   420  ASN420      0.2629
    153  OD1       12.6880   -9.0800  -20.0310 O.2   420  ASN420     -0.2716
    154  ND2       12.9870  -10.9440  -18.8410 N.am  420  ASN420     -0.0877
    155  N          9.2050   -3.1690  -16.7130 N.3   422  LEU422     -0.1245
    156  CA         9.2700   -1.8810  -17.4390 C.3   422  LEU422      0.1561
    157  C          8.4250   -0.7950  -16.8190 C.2   422  LEU422      0.2260
    158  O          7.2250   -0.9400  -16.6910 O.2   422  LEU422     -0.2867
    159  CB         8.8390   -2.0850  -18.8910 C.3   422  LEU422      0.0270
    160  CG         9.4460   -3.2160  -19.6930 C.3   422  LEU422      0.0019
    161  CD1        8.7550   -3.2370  -21.0350 C.3   422  LEU422      0.0001
    162  CD2       10.9360   -2.9760  -19.8300 C.3   422  LEU422      0.0001
    163  N          6.9280   -7.8740  -17.9080 N.3   432  SER432     -0.1202
    164  CA         6.7980   -8.1680  -19.3460 C.3   432  SER432      0.2020
    165  C          7.5810   -9.4080  -19.7760 C.2   432  SER432      0.2618
    166  O          8.2480  -10.0230  -18.9510 O.2   432  SER432     -0.2717
    167  CB         7.1990   -6.9570  -20.1970 C.3   432  SER432      0.2103
    168  OG         8.5350   -6.5860  -19.9110 O.3   432  SER432     -0.2182
    169  N          7.4760   -9.7590  -21.0590 N.am  433  ASP433     -0.1973
    170  CA         8.1800  -10.9130  -21.6210 C.3   433  ASP433      0.1709
    171  C          7.9470  -12.1820  -20.7920 C.2   433  ASP433      0.2293
    172  O          8.9090  -12.8930  -20.4630 O.2   433  ASP433     -0.2864
    173  CB         9.6980  -10.6450  -21.7240 C.3   433  ASP433      0.1436
    174  CG        10.0560   -9.5360  -22.7210 C.2   433  ASP433      0.3671
    175  OD1        9.1410   -8.9290  -23.3200 O.co2 433  ASP433     -0.2456
    176  OD2       11.2700   -9.2790  -22.9290 O.co2 433  ASP433     -0.2456
    177  N          7.7620  -16.0910  -23.2760 N.3   436  LEU436     -0.1245
    178  CA         8.6710  -16.1850  -24.4210 C.3   436  LEU436      0.1561
    179  C          9.3980  -17.5430  -24.5460 C.2   436  LEU436      0.2260
    180  O         10.4240  -17.7800  -23.8860 O.2   436  LEU436     -0.2867
    181  CB         9.6410  -14.9990  -24.4180 C.3   436  LEU436      0.0270
    182  CG         9.0020  -13.6110  -24.5600 C.3   436  LEU436      0.0019
    183  CD1       10.0060  -12.6050  -25.1110 C.3   436  LEU436      0.0001
    184  CD2        7.7720  -13.6590  -25.4560 C.3   436  LEU436      0.0001
    185  N         22.1350  -15.2430  -18.9660 N.3   439  PRO439     -0.2116
    186  CA        20.7570  -15.0240  -18.4810 C.3   439  PRO439      0.1372
    187  C         20.2440  -16.1800  -17.6000 C.2   439  PRO439      0.2244
    188  O         19.0570  -16.2380  -17.2770 O.2   439  PRO439     -0.2868
    189  CB        19.9290  -14.9220  -19.7810 C.3   439  PRO439      0.0268
    190  CG        20.9300  -14.8610  -20.9020 C.3   439  PRO439      0.0207
    191  CD        22.1550  -15.5570  -20.4080 C.3   439  PRO439      0.0892
@<TRIPOS>BOND
     1    61    60    2
     2    60    59    1
     3    43    44    1
     4    43    42    2
     5    44    45    2
     6    34    33    2
     7    48    49    2
     8    48    47    1
     9    46    47    1
    10    58    59    1
    11    59    62    1
    12    47    50    1
    13    17    18    1
    14    17    14    1
    15    42    33    1
    16    33    32    1
    17     1     2    1
    18    26    25    2
    19    12    11    2
    20    62    63    1
    21    63    64    1
    22    55    56    2
    23    55    54    1
    24    22    21    2
    25    14    13    1
    26    14    15    1
    27    50    51    1
    28    50    52    1
    29    32    31    1
    30    32    35    1
    31    11    13   am
    32    11    10    1
    33    25    31   am
    34    25    24    1
    35     2     5    1
    36     2     3    1
    37    54    53    1
    38    54    57    1
    39     9    10    1
    40     9     3   am
    41    37    39   ar
    42    37    36   ar
    43     6     5    1
    44     6     8    1
    45     6     7    1
    46    19    15   am
    47    19    20    1
    48    15    16    2
    49    39    41   ar
    50    35    36    1
    51    74    75    1
    52    21    20    1
    53    21    23   am
    54     3     4    2
    55    64    65    1
    56    65    66    1
    57    24    23    1
    58    24    27    1
    59    36    38   ar
    60    77    76    2
    61    41    40   ar
    62    27    28    1
    63    75    76    1
    64    75    78    1
    65    38    40   ar
    66    29    28    2
    67    79    78    1
    68    79    80    1
    69    81    80    1
    70    76    82   am
    71    98    97    1
    72    28    30   am
    73    97    96    1
    74   184   182    1
    75   183   182    1
    76    96    95    1
    77    95    92    1
    78    82    83    1
    79   182   181    1
    80   179   178    1
    81   179   180    2
    82   178   181    1
    83   178   177    1
    84    85    84    2
    85    83    84    1
    86    83    86    1
    87    84    91   am
    88    92    91    1
    89    92    93    1
    90   175   174   ar
    91   176   174   ar
    92   174   173    1
    93    93    99   am
    94    93    94    2
    95    86    87    1
    96   105   104    1
    97   105   106    1
    98    87    88    1
    99    99   100    1
   100    72    71    1
   101   104   101   am
   102   107   106    2
   103   135   133   am
   104   173   170    1
   105   170   169    1
   106   170   171    1
   107   101   102    2
   108   101   100    1
   109   127   126    1
   110   169   165   am
   111   161   160    1
   112   100   103    1
   113    88    90   ar
   114    88    89   ar
   115   190   191    1
   116   190   189    1
   117   171   172    2
   118    71    73    1
   119    71    68    1
   120    70    69    2
   121    69    68    1
   122   133   134    2
   123   133   132    1
   124   191   185    1
   125   167   168    1
   126   167   164    1
   127   126   125    1
   128   153   152    2
   129   108   109    1
   130   109   110    1
   131    68    67    1
   132   162   160    1
   133   189   186    1
   134   165   164    1
   135   165   166    2
   136   160   159    1
   137   132   129    1
   138   125   124    1
   139   118   117    1
   140   118   112    1
   141   143   142    1
   142   143   144    2
   143   164   163    1
   144   142   141    1
   145   139   138    2
   146   152   154   am
   147   152   151    1
   148   185   186    1
   149   117   116    1
   150   159   156    1
   151   110   112   am
   152   110   111    2
   153   112   113    1
   154   146   144    1
   155   186   187    1
   156   144   145    1
   157   141   140    1
   158   140   137    1
   159   116   113    1
   160   129   128    1
   161   129   130    1
   162   124   123    1
   163   138   137    1
   164   138   147   am
   165   151   148    1
   166   148   147    1
   167   148   149    1
   168   131   130    2
   169   113   114    1
   170   187   188    2
   171   137   136    1
   172   156   157    1
   173   156   155    1
   174   123   120    1
   175   149   150    2
   176   157   158    2
   177   114   115    2
   178   120   119    1
   179   120   121    1
   180   121   122    2
