@<TRIPOS>MOLECULE
tmp/4k35B00.pdb
 119 118 0 0 0
SMALL
GASTEIGER

@<TRIPOS>ATOM
      1  N         82.0940   62.2600   28.9540 N.3   368  TYR368     -0.1227
      2  CA        80.6530   62.0750   28.7870 C.3   368  TYR368      0.1736
      3  C         80.1030   61.0410   29.7590 C.2   368  TYR368      0.2595
      4  O         79.1880   61.3320   30.5350 O.2   368  TYR368     -0.2718
      5  CB        80.3090   61.6670   27.3480 C.3   368  TYR368      0.0548
      6  CG        78.8500   61.2800   27.1940 C.ar  368  TYR368     -0.0200
      7  CD1       77.8370   62.2350   27.2660 C.ar  368  TYR368     -0.0009
      8  CD2       78.4840   59.9530   27.0100 C.ar  368  TYR368     -0.0009
      9  CE1       76.4940   61.8700   27.1350 C.ar  368  TYR368      0.0417
     10  CE2       77.1510   59.5800   26.8800 C.ar  368  TYR368      0.0417
     11  CZ        76.1630   60.5410   26.9520 C.ar  368  TYR368      0.1957
     12  OH        74.8440   60.1620   26.8230 O.3   368  TYR368     -0.2866
     13  N         80.6430   59.8270   29.7240 N.am  369  PHE369     -0.1976
     14  CA        80.1290   58.8000   30.6280 C.3   369  PHE369      0.1639
     15  C         80.5060   59.1170   32.0700 C.2   369  PHE369      0.2290
     16  O         79.7820   58.7440   32.9920 O.2   369  PHE369     -0.2864
     17  CB        80.6070   57.4080   30.1980 C.3   369  PHE369      0.0560
     18  CG        79.8640   56.8770   28.9960 C.ar  369  PHE369     -0.0200
     19  CD1       78.5370   56.4730   29.1120 C.ar  369  PHE369     -0.0042
     20  CD2       80.4740   56.8170   27.7480 C.ar  369  PHE369     -0.0042
     21  CE1       77.8320   55.9960   28.0030 C.ar  369  PHE369     -0.0003
     22  CE2       79.7790   56.3460   26.6300 C.ar  369  PHE369     -0.0003
     23  CZ        78.4580   55.9320   26.7570 C.ar  369  PHE369     -0.0000
     24  N         83.7940   61.8910   21.4300 N.3   448  PHE448     -0.1241
     25  CA        82.5820   62.1850   20.6660 C.3   448  PHE448      0.1605
     26  C         82.6720   63.4730   19.8610 C.2   448  PHE448      0.2264
     27  O         81.6530   64.1220   19.6200 O.2   448  PHE448     -0.2867
     28  CB        81.3700   62.2350   21.6010 C.3   448  PHE448      0.0534
     29  CG        81.1690   60.9690   22.3780 C.ar  448  PHE448     -0.0203
     30  CD1       80.5060   59.9000   21.8120 C.ar  448  PHE448     -0.0042
     31  CD2       81.6840   60.8380   23.6580 C.ar  448  PHE448     -0.0042
     32  CE1       80.3290   58.7200   22.5220 C.ar  448  PHE448     -0.0003
     33  CE2       81.5190   59.6670   24.3720 C.ar  448  PHE448     -0.0003
     34  CZ        80.8320   58.6050   23.7980 C.ar  448  PHE448     -0.0000
     35  N         78.9150   68.4140   20.5220 N.3   455  ASP455     -0.1239
     36  CA        78.3120   67.8720   21.7410 C.3   455  ASP455      0.1674
     37  C         78.6800   68.5640   23.0640 C.2   455  ASP455      0.2266
     38  O         78.5660   67.9560   24.1330 O.2   455  ASP455     -0.2867
     39  CB        78.6530   66.3700   21.8440 C.3   455  ASP455      0.1410
     40  CG        77.9880   65.5350   20.7360 C.2   455  ASP455      0.3668
     41  OD1       77.4770   66.1350   19.7620 O.co2 455  ASP455     -0.2456
     42  OD2       77.9530   64.2850   20.8480 O.co2 455  ASP455     -0.2456
     43  N         75.6880   68.6940   25.5370 N.3   458  TYR458     -0.1227
     44  CA        75.4900   67.3550   26.1170 C.3   458  TYR458      0.1736
     45  C         76.4480   67.0540   27.2650 C.2   458  TYR458      0.2595
     46  O         76.0220   66.6700   28.3660 O.2   458  TYR458     -0.2718
     47  CB        75.6950   66.2650   25.0660 C.3   458  TYR458      0.0548
     48  CG        74.7520   66.2360   23.8840 C.ar  458  TYR458     -0.0200
     49  CD1       73.4640   66.7620   23.9520 C.ar  458  TYR458     -0.0009
     50  CD2       75.1620   65.6550   22.6970 C.ar  458  TYR458     -0.0009
     51  CE1       72.6060   66.6950   22.8430 C.ar  458  TYR458      0.0417
     52  CE2       74.3320   65.5910   21.5990 C.ar  458  TYR458      0.0417
     53  CZ        73.0590   66.1040   21.6730 C.ar  458  TYR458      0.1957
     54  OH        72.2720   66.0190   20.5460 O.3   458  TYR458     -0.2866
     55  N         77.7450   67.1840   26.9890 N.am  459  HIS459     -0.1975
     56  CA        78.7770   66.8510   27.9810 C.3   459  HIS459      0.1656
     57  C         78.7830   67.7970   29.1670 C.2   459  HIS459      0.2291
     58  O         78.8530   67.3610   30.3240 O.2   459  HIS459     -0.2864
     59  CB        80.1760   66.8690   27.3520 C.3   459  HIS459      0.0771
     60  CG        80.3970   65.8070   26.3160 C.ar  459  HIS459      0.0820
     61  ND1       81.6560   65.3660   25.9600 N.ar  459  HIS459     -0.2267
     62  CD2       79.5230   65.1220   25.5390 C.ar  459  HIS459      0.1154
     63  CE1       81.5440   64.4440   25.0190 C.ar  459  HIS459      0.1986
     64  NE2       80.2610   64.2790   24.7420 N.ar  459  HIS459     -0.2212
     65  N         70.4120   65.3610   18.3930 N.3   533  GLU533     -0.1231
     66  CA        69.7280   64.1160   18.6990 C.3   533  GLU533      0.1699
     67  C         69.0440   64.1420   20.0600 C.2   533  GLU533      0.2592
     68  O         67.8130   64.1320   20.1440 O.2   533  GLU533     -0.2718
     69  CB        70.7030   62.9460   18.6190 C.3   533  GLU533      0.0402
     70  CG        70.0370   61.5890   18.8470 C.3   533  GLU533      0.1161
     71  CD        71.0540   60.4580   18.9690 C.2   533  GLU533      0.3649
     72  OE1       72.1100   60.6910   19.5990 O.co2 533  GLU533     -0.2457
     73  OE2       70.8010   59.3470   18.4480 O.co2 533  GLU533     -0.2457
     74  N         69.8360   64.1650   21.1320 N.am  534  SER534     -0.1952
     75  CA        69.2660   64.0840   22.4790 C.3   534  SER534      0.1924
     76  C         68.6500   65.3960   22.9460 C.2   534  SER534      0.2314
     77  O         69.3600   66.2990   23.4070 O.2   534  SER534     -0.2863
     78  CB        70.3280   63.6620   23.4950 C.3   534  SER534      0.2116
     79  OG        69.7590   63.7020   24.7970 O.3   534  SER534     -0.2180
     80  N         69.4990   65.7700   26.9070 N.3   537  GLU537     -0.1245
     81  CA        70.8180   66.2050   27.3430 C.3   537  GLU537      0.1567
     82  C         71.0130   67.6750   27.0050 C.2   537  GLU537      0.2260
     83  O         71.8170   68.3600   27.6340 O.2   537  GLU537     -0.2867
     84  CB        71.9040   65.3100   26.7480 C.3   537  GLU537      0.0388
     85  CG        72.0110   64.0260   27.5570 C.3   537  GLU537      0.1160
     86  CD        73.0040   63.0280   27.0080 C.2   537  GLU537      0.3649
     87  OE1       73.4110   63.1660   25.8350 O.co2 537  GLU537     -0.2457
     88  OE2       73.3590   62.0950   27.7650 O.co2 537  GLU537     -0.2457
     89  N         73.0780   55.4530   16.5920 N.3   607  TYR607     -0.1227
     90  CA        74.3690   55.0310   16.0680 C.3   607  TYR607      0.1736
     91  C         74.7710   53.6490   16.5920 C.2   607  TYR607      0.2595
     92  O         75.8150   53.1140   16.2220 O.2   607  TYR607     -0.2718
     93  CB        75.4440   56.0560   16.4120 C.3   607  TYR607      0.0548
     94  CG        75.2370   57.4160   15.7760 C.ar  607  TYR607     -0.0200
     95  CD1       75.3370   57.5860   14.3990 C.ar  607  TYR607     -0.0009
     96  CD2       74.9690   58.5330   16.5590 C.ar  607  TYR607     -0.0009
     97  CE1       75.1650   58.8320   13.8190 C.ar  607  TYR607      0.0417
     98  CE2       74.7940   59.7790   15.9930 C.ar  607  TYR607      0.0417
     99  CZ        74.8940   59.9240   14.6230 C.ar  607  TYR607      0.1957
    100  OH        74.7200   61.1700   14.0650 O.3   607  TYR607     -0.2866
    101  N         73.9300   53.0510   17.4270 N.am  608  PHE608     -0.1976
    102  CA        74.2670   51.7440   17.9790 C.3   608  PHE608      0.1639
    103  C         73.1310   50.7360   17.8560 C.2   608  PHE608      0.2290
    104  O         73.0530   49.7830   18.6290 O.2   608  PHE608     -0.2864
    105  CB        74.7030   51.8790   19.4470 C.3   608  PHE608      0.0560
    106  CG        73.7340   52.6490   20.3200 C.ar  608  PHE608     -0.0200
    107  CD1       73.8280   54.0360   20.4290 C.ar  608  PHE608     -0.0042
    108  CD2       72.7620   51.9810   21.0690 C.ar  608  PHE608     -0.0042
    109  CE1       72.9480   54.7580   21.2410 C.ar  608  PHE608     -0.0003
    110  CE2       71.8780   52.6880   21.8890 C.ar  608  PHE608     -0.0003
    111  CZ        71.9680   54.0830   21.9750 C.ar  608  PHE608     -0.0000
    112  N         66.7250   57.1980   24.2170 N.3   618  ILE618     -0.1245
    113  CA        67.6220   58.3480   24.1930 C.3   618  ILE618      0.1561
    114  C         66.8780   59.6400   24.5590 C.2   618  ILE618      0.2260
    115  O         67.4690   60.5830   25.1220 O.2   618  ILE618     -0.2867
    116  CB        68.2990   58.4820   22.8080 C.3   618  ILE618      0.0252
    117  CG1       69.3010   57.3400   22.6150 C.3   618  ILE618      0.0019
    118  CG2       69.0270   59.8240   22.6550 C.3   618  ILE618      0.0019
    119  CD1       69.9060   57.2990   21.2080 C.3   618  ILE618      0.0001
@<TRIPOS>BOND
     1    97    95   ar
     2    97    99   ar
     3   100    99    1
     4    95    94   ar
     5    99    98   ar
     6    94    93    1
     7    94    96   ar
     8    98    96   ar
     9    90    93    1
    10    90    91    1
    11    90    89    1
    12    92    91    2
    13    91   101   am
    14   101   102    1
    15   103   102    1
    16   103   104    2
    17   102   105    1
    18    65    66    1
    19    73    71   ar
    20    69    66    1
    21    69    70    1
    22    66    67    1
    23    70    71    1
    24    71    72   ar
    25   105   106    1
    26    27    26    2
    27    41    40   ar
    28    26    25    1
    29    67    68    2
    30    67    74   am
    31   106   107   ar
    32   106   108   ar
    33   107   109   ar
    34    35    36    1
    35    54    53    1
    36    25    24    1
    37    25    28    1
    38    40    42   ar
    39    40    39    1
    40   108   110   ar
    41    74    75    1
    42   119   117    1
    43   109   111   ar
    44    52    53   ar
    45    52    50   ar
    46    28    29    1
    47    53    51   ar
    48    36    39    1
    49    36    37    1
    50    30    29   ar
    51    30    32   ar
    52   110   111   ar
    53    29    31   ar
    54    75    76    1
    55    75    78    1
    56    32    34   ar
    57   117   116    1
    58   118   116    1
    59    50    48   ar
    60   116   113    1
    61    51    49   ar
    62    76    77    2
    63    37    38    2
    64    78    79    1
    65    31    33   ar
    66    34    33   ar
    67    48    49   ar
    68    48    47    1
    69   113   112    1
    70   113   114    1
    71   114   115    2
    72    64    63   ar
    73    64    62   ar
    74    63    61   ar
    75    47    44    1
    76    43    44    1
    77    62    60   ar
    78    87    86   ar
    79    61    60   ar
    80    44    45    1
    81    60    59    1
    82    22    23   ar
    83    22    20   ar
    84    84    81    1
    85    84    85    1
    86    23    21   ar
    87    12    11    1
    88    10    11   ar
    89    10     8   ar
    90    80    81    1
    91    11     9   ar
    92    55    45   am
    93    55    56    1
    94    82    81    1
    95    82    83    2
    96    86    85    1
    97    86    88   ar
    98     8     6   ar
    99     9     7   ar
   100     6     7   ar
   101     6     5    1
   102    45    46    2
   103     5     2    1
   104    59    56    1
   105    20    18   ar
   106    56    57    1
   107    21    19   ar
   108     2     1    1
   109     2     3    1
   110    18    19   ar
   111    18    17    1
   112    57    58    2
   113    13     3   am
   114    13    14    1
   115     3     4    2
   116    17    14    1
   117    14    15    1
   118    15    16    2
