@<TRIPOS>MOLECULE
tmp/4k36A00.pdb
 177 172 0 0 0
SMALL
GASTEIGER

@<TRIPOS>ATOM
      1  N         23.3570   31.0460   46.6420 N.3    14  CYS14      -0.1235
      2  CA        22.5270   30.1850   47.4680 C.3    14  CYS14       0.1677
      3  C         22.5000   30.6670   48.9010 C.2    14  CYS14       0.2270
      4  O         23.4410   31.3090   49.3840 O.2    14  CYS14      -0.2867
      5  CB        23.0140   28.7270   47.4290 C.3    14  CYS14       0.0956
      6  SG        21.7870   27.6200   48.1300 S.3    14  CYS14      -0.0801
      7  N         28.2830   18.7060   50.7440 N.3    20  TYR20      -0.1227
      8  CA        28.7540   18.0620   49.5320 C.3    20  TYR20       0.1736
      9  C         28.5740   18.9080   48.2710 C.2    20  TYR20       0.2596
     10  O         28.9580   18.4950   47.1650 O.2    20  TYR20      -0.2718
     11  CB        28.0070   16.7280   49.3550 C.3    20  TYR20       0.0548
     12  CG        26.5010   16.8190   49.5330 C.ar   20  TYR20      -0.0200
     13  CD1       25.7190   17.5820   48.6530 C.ar   20  TYR20      -0.0009
     14  CD2       25.8620   16.1120   50.5420 C.ar   20  TYR20      -0.0009
     15  CE1       24.3330   17.6560   48.8000 C.ar   20  TYR20       0.0417
     16  CE2       24.4920   16.1740   50.7170 C.ar   20  TYR20       0.0417
     17  CZ        23.7230   16.9690   49.8170 C.ar   20  TYR20       0.1957
     18  OH        22.3680   16.9910   49.9970 O.3    20  TYR20      -0.2866
     19  N         27.9920   20.0940   48.4230 N.am   21  CYS21      -0.1956
     20  CA        27.6140   20.8570   47.2360 C.3    21  CYS21       0.1843
     21  C         28.8020   21.5960   46.6240 C.2    21  CYS21       0.2625
     22  O         29.4450   22.4110   47.2890 O.2    21  CYS21      -0.2714
     23  CB        26.5090   21.8590   47.5430 C.3    21  CYS21       0.0997
     24  SG        26.0430   22.7500   46.0120 S.3    21  CYS21      -0.0797
     25  N         29.0660   21.3170   45.3590 N.am   22  PHE22      -0.1960
     26  CA        30.0900   22.0200   44.6060 C.3    22  PHE22       0.1771
     27  C         29.4870   23.0590   43.6390 C.2    22  PHE22       0.2619
     28  O         30.1950   23.6000   42.7970 O.2    22  PHE22      -0.2715
     29  CB        30.9990   21.0260   43.8580 C.3    22  PHE22       0.0574
     30  CG        30.2590   19.9770   43.0610 C.ar   22  PHE22      -0.0200
     31  CD1       29.4840   20.3310   41.9670 C.ar   22  PHE22      -0.0042
     32  CD2       30.3710   18.6280   43.3890 C.ar   22  PHE22      -0.0042
     33  CE1       28.8010   19.3550   41.2190 C.ar   22  PHE22      -0.0003
     34  CE2       29.6900   17.6510   42.6450 C.ar   22  PHE22      -0.0003
     35  CZ        28.9030   18.0190   41.5650 C.ar   22  PHE22      -0.0000
     36  N         28.1830   23.3130   43.7560 N.am   23  TYR23      -0.1974
     37  CA        27.4820   24.2220   42.8350 C.3    23  TYR23       0.1639
     38  C         27.3710   25.6600   43.3680 C.2    23  TYR23       0.2290
     39  O         27.2110   26.6040   42.5890 O.2    23  TYR23      -0.2864
     40  CB        26.0550   23.7410   42.6220 C.3    23  TYR23       0.0560
     41  CG        25.8770   22.4230   41.8940 C.ar   23  TYR23      -0.0198
     42  CD1       25.9220   21.2020   42.5820 C.ar   23  TYR23      -0.0009
     43  CD2       25.6140   22.3970   40.5210 C.ar   23  TYR23      -0.0009
     44  CE1       25.7190   19.9950   41.9070 C.ar   23  TYR23       0.0417
     45  CE2       25.4250   21.1820   39.8510 C.ar   23  TYR23       0.0417
     46  CZ        25.4720   20.0100   40.5530 C.ar   23  TYR23       0.1957
     47  OH        25.2770   18.8210   39.8820 O.3    23  TYR23      -0.2866
     48  N         17.3100   26.1430   37.9320 N.3    61  GLN61      -0.1231
     49  CA        18.1260   25.5190   38.9440 C.3    61  GLN61       0.1698
     50  C         19.2120   26.4860   39.4790 C.2    61  GLN61       0.2593
     51  O         18.9700   27.6300   39.5350 O.2    61  GLN61      -0.2718
     52  CB        18.7110   24.1790   38.4970 C.3    61  GLN61       0.0381
     53  CG        18.6460   23.7610   37.0250 C.3    61  GLN61       0.0905
     54  CD        18.5880   22.2400   36.8620 C.2    61  GLN61       0.2608
     55  OE1       19.5610   21.5700   37.1380 O.2    61  GLN61      -0.2717
     56  NE2       17.4280   21.6960   36.4870 N.am   61  GLN61      -0.0878
     57  N         20.3890   26.0310   39.8650 N.am   62  GLY62      -0.1942
     58  CA        21.3770   26.9660   40.4430 C.3    62  GLY62       0.2014
     59  C         22.4040   26.1860   41.2600 C.2    62  GLY62       0.2639
     60  O         22.7150   25.0550   40.9020 O.2    62  GLY62      -0.2714
     61  N         22.8940   26.7160   42.3820 N.am   63  GLY63      -0.1939
     62  CA        22.3140   27.8420   43.0710 C.3    63  GLY63       0.2014
     63  C         20.8960   27.5830   43.4870 C.2    63  GLY63       0.2639
     64  O         20.3170   26.5010   43.2120 O.2    63  GLY63      -0.2714
     65  N         20.3300   28.5280   44.2110 N.am   64  GLU64      -0.1963
     66  CA        18.9400   28.4230   44.6350 C.3    64  GLU64       0.1718
     67  C         18.1470   29.3930   43.7430 C.2    64  GLU64       0.2458
     68  O         18.2090   30.6360   43.9220 O.2    64  GLU64      -0.2730
     69  CB        18.8070   28.8350   46.0980 C.3    64  GLU64       0.0428
     70  CG        17.3560   28.9140   46.5660 C.3    64  GLU64       0.1163
     71  CD        16.5530   27.6890   46.1210 C.2    64  GLU64       0.3649
     72  OE1       17.0670   26.5360   46.3060 O.co2  64  GLU64      -0.2457
     73  OE2       15.4170   27.8950   45.5910 O.co2  64  GLU64      -0.2457
     74  N         17.3900   28.8740   42.7910 N.am   65  PRO65      -0.2727
     75  CA        16.6930   29.7500   41.8330 C.3    65  PRO65       0.1402
     76  C         15.6420   30.6760   42.4320 C.2    65  PRO65       0.2269
     77  O         15.4050   31.7650   41.8620 O.2    65  PRO65      -0.2865
     78  CB        16.0290   28.7510   40.8590 C.3    65  PRO65       0.0296
     79  CG        15.8880   27.5030   41.6690 C.3    65  PRO65       0.0237
     80  CD        17.1100   27.4400   42.5470 C.3    65  PRO65       0.0939
     81  N         13.9320   23.5700   40.4350 N.3    95  GLN95      -0.1231
     82  CA        14.5670   22.6750   41.4380 C.3    95  GLN95       0.1698
     83  C         14.9250   23.5880   42.6140 C.2    95  GLN95       0.2593
     84  O         15.6270   24.5810   42.4130 O.2    95  GLN95      -0.2718
     85  CB        15.8930   22.1460   40.8940 C.3    95  GLN95       0.0381
     86  CG        15.9660   20.7640   40.2620 C.3    95  GLN95       0.0905
     87  CD        17.4390   20.4000   39.9490 C.2    95  GLN95       0.2608
     88  OE1       18.1130   21.1250   39.2130 O.2    95  GLN95      -0.2717
     89  NE2       17.9130   19.2830   40.4680 N.am   95  GLN95      -0.0878
     90  N         14.4540   23.2730   43.8240 N.am   96  THR96      -0.1939
     91  CA        14.6160   24.2450   44.9230 C.3    96  THR96       0.2028
     92  C         14.9490   23.5750   46.2310 C.2    96  THR96       0.2642
     93  O         14.5710   22.4150   46.4700 O.2    96  THR96      -0.2714
     94  CB        13.3380   25.1130   45.1390 C.3    96  THR96       0.1808
     95  OG1       13.5450   26.0620   46.2130 O.3    96  THR96      -0.2208
     96  CG2       12.1200   24.2520   45.4360 C.3    96  THR96       0.0379
     97  N         15.6900   24.2910   47.0580 N.am   97  ASN97      -0.1971
     98  CA        15.9520   23.8120   48.4270 C.3    97  ASN97       0.1688
     99  C         14.7460   23.9840   49.3460 C.2    97  ASN97       0.2292
    100  O         14.7220   23.4800   50.4680 O.2    97  ASN97      -0.2864
    101  CB        17.2460   24.4130   49.0470 C.3    97  ASN97       0.1181
    102  CG        17.1630   25.9360   49.3420 C.2    97  ASN97       0.2629
    103  OD1       16.1040   26.4810   49.6610 O.2    97  ASN97      -0.2716
    104  ND2       18.3110   26.6000   49.2510 N.am   97  ASN97      -0.0877
    105  N         14.5150   19.4380   47.2010 N.3   119  SER119     -0.1217
    106  CA        15.6460   18.6670   47.7750 C.3   119  SER119      0.1889
    107  C         15.4640   18.3140   49.2380 C.2   119  SER119      0.2288
    108  O         15.3640   19.1770   50.1190 O.2   119  SER119     -0.2866
    109  CB        16.9510   19.4340   47.5970 C.3   119  SER119      0.2089
    110  OG        17.2230   19.5220   46.2030 O.3   119  SER119     -0.2183
    111  N         22.8260   19.1930   55.0660 N.3   131  ARG131     -0.1245
    112  CA        22.1330   20.3150   54.4300 C.3   131  ARG131      0.1563
    113  C         21.9140   21.3820   55.4730 C.2   131  ARG131      0.2260
    114  O         20.8810   21.4170   56.1550 O.2   131  ARG131     -0.2867
    115  CB        20.8360   19.8690   53.7700 C.3   131  ARG131      0.0307
    116  CG        21.1180   18.8470   52.6180 C.3   131  ARG131      0.0489
    117  CD        19.8510   18.5370   51.8180 C.3   131  ARG131      0.2205
    118  NE        19.3930   19.7190   51.0560 N.pl3 131  ARG131     -0.0865
    119  CZ        19.8340   20.0860   49.8640 C.cat 131  ARG131      0.5346
    120  NH1       20.7910   19.4150   49.2370 N.pl3 131  ARG131      0.1354
    121  NH2       19.3210   21.1840   49.2940 N.pl3 131  ARG131      0.1354
    122  N         14.1000   15.1820   45.5390 N.3   160  LEU160     -0.1245
    123  CA        15.4680   14.9190   45.0920 C.3   160  LEU160      0.1561
    124  C         16.3040   14.6560   46.3360 C.2   160  LEU160      0.2260
    125  O         16.4980   15.5550   47.1560 O.2   160  LEU160     -0.2867
    126  CB        16.0620   16.1290   44.3630 C.3   160  LEU160      0.0270
    127  CG        15.7420   16.4110   42.8950 C.3   160  LEU160      0.0019
    128  CD1       14.3840   15.9410   42.4760 C.3   160  LEU160      0.0001
    129  CD2       15.8600   17.8890   42.6890 C.3   160  LEU160      0.0001
    130  N         19.9860   13.2550   47.8200 N.3   162  VAL162     -0.1245
    131  CA        21.3840   12.9240   47.5140 C.3   162  VAL162      0.1561
    132  C         21.7640   11.6740   48.3210 C.2   162  VAL162      0.2260
    133  O         21.4060   11.5470   49.4930 O.2   162  VAL162     -0.2867
    134  CB        22.3370   14.0940   47.8580 C.3   162  VAL162      0.0252
    135  CG1       23.7890   13.7130   47.6780 C.3   162  VAL162      0.0019
    136  CG2       22.0120   15.3070   46.9590 C.3   162  VAL162      0.0019
    137  N         20.0000   10.8050   43.8310 N.3   189  ILE189     -0.1231
    138  CA        21.1220   11.3190   43.0890 C.3   189  ILE189      0.1692
    139  C         22.4180   10.8980   43.7580 C.2   189  ILE189      0.2592
    140  O         22.6670   11.2690   44.9110 O.2   189  ILE189     -0.2718
    141  CB        21.0850   12.8650   43.0320 C.3   189  ILE189      0.0266
    142  CG1       19.7440   13.3630   42.4420 C.3   189  ILE189      0.0019
    143  CG2       22.2340   13.3730   42.1850 C.3   189  ILE189      0.0020
    144  CD1       19.5360   14.8730   42.6570 C.3   189  ILE189      0.0001
    145  N         23.2570   10.1510   43.0580 N.am  190  ASN190     -0.1960
    146  CA        24.5180    9.7340   43.6910 C.3   190  ASN190      0.1819
    147  C         25.3730   10.9300   44.0600 C.2   190  ASN190      0.2621
    148  O         25.5810   11.8140   43.2400 O.2   190  ASN190     -0.2715
    149  CB        25.2950    8.7990   42.7770 C.3   190  ASN190      0.1195
    150  CG        24.5930    7.5050   42.5980 C.2   190  ASN190      0.2630
    151  OD1       23.6040    7.2230   43.3020 O.2   190  ASN190     -0.2716
    152  ND2       25.0710    6.6990   41.6670 N.am  190  ASN190     -0.0877
    153  N         25.8790   10.9540   45.2870 N.am  191  CYS191     -0.1954
    154  CA        26.7150   12.0640   45.6980 C.3   191  CYS191      0.1843
    155  C         28.0170   12.0350   44.9030 C.2   191  CYS191      0.2625
    156  O         28.7680   11.0610   44.9490 O.2   191  CYS191     -0.2714
    157  CB        27.0240   11.9850   47.1840 C.3   191  CYS191      0.0997
    158  SG        27.7900   13.5370   47.7570 S.3   191  CYS191     -0.0797
    159  N         28.2990   13.1170   44.2050 N.am  192  LEU192     -0.1977
    160  CA        29.5110   13.2370   43.4220 C.3   192  LEU192      0.1596
    161  C         30.5850   13.9630   44.2130 C.2   192  LEU192      0.2287
    162  O         30.3170   14.9650   44.8680 O.2   192  LEU192     -0.2864
    163  CB        29.2340   13.9890   42.1280 C.3   192  LEU192      0.0297
    164  CG        28.2180   13.3330   41.1800 C.3   192  LEU192      0.0022
    165  CD1       27.6730   14.3820   40.2320 C.3   192  LEU192      0.0001
    166  CD2       28.8600   12.2250   40.3960 C.3   192  LEU192      0.0001
    167  N         26.9440   19.6140   35.0180 N.3   275  PHE275     -0.1241
    168  CA        28.1430   19.1560   35.7150 C.3   275  PHE275      0.1605
    169  C         29.3830   19.8460   35.1450 C.2   275  PHE275      0.2264
    170  O         30.4700   19.7340   35.7150 O.2   275  PHE275     -0.2867
    171  CB        28.3160   17.6290   35.5650 C.3   275  PHE275      0.0534
    172  CG        27.2310   16.8190   36.2120 C.ar  275  PHE275     -0.0203
    173  CD1       26.7620   17.1250   37.4760 C.ar  275  PHE275     -0.0042
    174  CD2       26.6840   15.7280   35.5400 C.ar  275  PHE275     -0.0042
    175  CE1       25.7610   16.3640   38.0740 C.ar  275  PHE275     -0.0003
    176  CE2       25.6940   14.9460   36.1300 C.ar  275  PHE275     -0.0003
    177  CZ        25.2270   15.2570   37.3950 C.ar  275  PHE275     -0.0000
@<TRIPOS>BOND
     1   167   168    1
     2   169   170    2
     3   169   168    1
     4   174   176   ar
     5   174   172   ar
     6   171   168    1
     7   171   172    1
     8   176   177   ar
     9   172   173   ar
    10    56    54   am
    11    54    53    1
    12    54    55    2
    13    53    52    1
    14   177   175   ar
    15   173   175   ar
    16    48    49    1
    17    52    49    1
    18    49    50    1
    19    88    87    2
    20    50    51    2
    21    50    57   am
    22    45    43   ar
    23    45    46   ar
    24    57    58    1
    25    47    46    1
    26    87    86    1
    27    87    89   am
    28   165   164    1
    29    86    85    1
    30   166   164    1
    31    81    82    1
    32    58    59    1
    33    43    41   ar
    34    46    44   ar
    35    78    79    1
    36    78    75    1
    37    85    82    1
    38    60    59    2
    39   164   163    1
    40    33    35   ar
    41    33    31   ar
    42    59    61   am
    43    82    83    1
    44    35    34   ar
    45   152   150   am
    46    79    80    1
    47    75    76    1
    48    75    74    1
    49    77    76    2
    50    41    42   ar
    51    41    40    1
    52    44    42   ar
    53    31    30   ar
    54   163   160    1
    55   143   141    1
    56    61    62    1
    57    84    83    2
    58   142   144    1
    59   142   141    1
    60   128   127    1
    61    80    74    1
    62    39    38    2
    63   150   149    1
    64   150   151    2
    65    83    90   am
    66    40    37    1
    67    34    32   ar
    68   129   127    1
    69   149   146    1
    70    74    67   am
    71    28    27    2
    72    37    38    1
    73    37    36    1
    74   127   126    1
    75   141   138    1
    76   145   146    1
    77   145   139   am
    78    30    32   ar
    79    30    29    1
    80    62    63    1
    81   138   139    1
    82   138   137    1
    83    64    63    2
    84   148   147    2
    85   160   159    1
    86   160   161    1
    87    63    65   am
    88    27    36   am
    89    27    26    1
    90   146   147    1
    91    67    68    2
    92    67    66    1
    93   139   140    2
    94    90    91    1
    95    29    26    1
    96   147   153   am
    97   159   155   am
    98    65    66    1
    99   161   162    2
   100   126   123    1
   101    26    25    1
   102    66    69    1
   103   155   156    2
   104   155   154    1
   105    91    94    1
   106    91    92    1
   107   123   122    1
   108   123   124    1
   109    94    96    1
   110    94    95    1
   111   153   154    1
   112    25    21   am
   113    73    71   ar
   114   154   157    1
   115    24    23    1
   116    69    70    1
   117    71    72   ar
   118    71    70    1
   119   110   109    1
   120    92    93    2
   121    92    97   am
   122   124   125    2
   123    21    20    1
   124    21    22    2
   125     1     2    1
   126   136   134    1
   127    97    98    1
   128    10     9    2
   129   157   158    1
   130   105   106    1
   131    20    23    1
   132    20    19    1
   133     5     2    1
   134     5     6    1
   135     2     3    1
   136   131   130    1
   137   131   134    1
   138   131   132    1
   139   109   106    1
   140   135   134    1
   141   106   107    1
   142     9    19   am
   143     9     8    1
   144   132   133    2
   145    98   101    1
   146    98    99    1
   147    13    15   ar
   148    13    12   ar
   149    15    17   ar
   150     3     4    2
   151   101   102    1
   152   120   119    1
   153   107   108    2
   154   104   102   am
   155   121   119    1
   156   102   103    2
   157    99   100    2
   158    11     8    1
   159    11    12    1
   160     8     7    1
   161    12    14   ar
   162    17    18    1
   163    17    16   ar
   164   119   118    2
   165    14    16   ar
   166   118   117    1
   167   117   116    1
   168   116   115    1
   169   115   112    1
   170   112   111    1
   171   112   113    1
   172   113   114    2
