@<TRIPOS>MOLECULE
tmp/4k39A00.pdb
 163 151 0 0 0
SMALL
GASTEIGER

@<TRIPOS>ATOM
      1  N         18.7970   29.2120   30.2140 N.3     6  LEU6       -0.1245
      2  CA        19.0810   29.1720   31.6400 C.3     6  LEU6        0.1561
      3  C         19.6560   30.4990   32.0860 C.2     6  LEU6        0.2260
      4  O         20.8190   30.7790   31.8460 O.2     6  LEU6       -0.2867
      5  CB        20.1220   28.1180   31.9850 C.3     6  LEU6        0.0270
      6  CG        19.9040   26.6190   31.9430 C.3     6  LEU6        0.0019
      7  CD1       20.7690   25.9490   33.0130 C.3     6  LEU6        0.0001
      8  CD2       18.4520   26.1310   31.9120 C.3     6  LEU6        0.0001
      9  N         14.3580   29.5590   32.2650 N.3    53  ALA53      -0.1245
     10  CA        14.6430   28.9960   33.5910 C.3    53  ALA53       0.1562
     11  C         15.5900   29.9260   34.3590 C.2    53  ALA53       0.2260
     12  O         16.6820   30.2510   33.8740 O.2    53  ALA53      -0.2867
     13  CB        15.2240   27.5780   33.4780 C.3    53  ALA53       0.0290
     14  N         18.0060   30.9180   37.4680 N.3    55  GLN55      -0.1245
     15  CA        18.9120   30.1800   38.2900 C.3    55  GLN55       0.1566
     16  C         20.0100   31.1580   38.7730 C.2    55  GLN55       0.2260
     17  O         19.7680   32.2810   38.7650 O.2    55  GLN55      -0.2867
     18  CB        19.3490   28.8990   37.5490 C.3    55  GLN55       0.0367
     19  CG        18.8240   27.5950   38.1870 C.3    55  GLN55       0.0905
     20  CD        17.7030   26.8210   37.4440 C.2    55  GLN55       0.2608
     21  OE1       16.5640   26.7520   37.9070 O.2    55  GLN55      -0.2717
     22  NE2       18.0420   26.1820   36.3370 N.am   55  GLN55      -0.0878
     23  N         10.4720   28.9820   34.8460 N.3    87  SER87      -0.1202
     24  CA        10.8040   28.2000   36.0420 C.3    87  SER87       0.2020
     25  C         11.8310   28.9560   36.8520 C.2    87  SER87       0.2619
     26  O         12.5050   29.8290   36.3330 O.2    87  SER87      -0.2717
     27  CB        11.3100   26.8060   35.6690 C.3    87  SER87       0.2103
     28  OG        12.4860   26.8610   34.8750 O.3    87  SER87      -0.2182
     29  N         11.9350   28.6310   38.1410 N.am   88  LEU88      -0.1965
     30  CA        12.8060   29.3680   39.0450 C.3    88  LEU88       0.1728
     31  C         13.3900   28.3620   40.0020 C.2    88  LEU88       0.2616
     32  O         12.6400   27.6010   40.5860 O.2    88  LEU88      -0.2715
     33  CB        11.9720   30.3330   39.8630 C.3    88  LEU88       0.0311
     34  CG        12.7200   31.0390   41.0060 C.3    88  LEU88       0.0022
     35  CD1       13.2490   32.3520   40.4340 C.3    88  LEU88       0.0001
     36  CD2       11.7850   31.3160   42.1550 C.3    88  LEU88       0.0001
     37  N         14.7150   28.3440   40.1380 N.am   89  GLN89      -0.1977
     38  CA        15.3880   27.5470   41.1660 C.3    89  GLN89       0.1601
     39  C         15.7790   28.4910   42.3020 C.2    89  GLN89       0.2287
     40  O         16.4290   29.5030   42.0500 O.2    89  GLN89      -0.2864
     41  CB        16.6290   26.8660   40.5680 C.3    89  GLN89       0.0394
     42  CG        17.4600   26.0910   41.5710 C.3    89  GLN89       0.0908
     43  CD        16.6740   24.9570   42.2220 C.2    89  GLN89       0.2608
     44  OE1       15.9270   24.2260   41.5490 O.2    89  GLN89      -0.2717
     45  NE2       16.8400   24.8000   43.5350 N.am   89  GLN89      -0.0878
     46  N          7.1370   26.8540   37.4150 N.3   109  LEU109     -0.1231
     47  CA         7.5390   25.6310   38.1050 C.3   109  LEU109      0.1693
     48  C          8.7310   26.0530   38.9630 C.2   109  LEU109      0.2592
     49  O          9.6360   26.7110   38.4630 O.2   109  LEU109     -0.2718
     50  CB         7.9590   24.5730   37.0940 C.3   109  LEU109      0.0284
     51  CG         8.5040   23.2890   37.7240 C.3   109  LEU109      0.0019
     52  CD1        7.4520   22.6950   38.6380 C.3   109  LEU109      0.0001
     53  CD2        8.9050   22.2680   36.6830 C.3   109  LEU109      0.0001
     54  N          8.7230   25.6940   40.2430 N.am  110  VAL110     -0.1966
     55  CA         9.7750   26.1250   41.1570 C.3   110  VAL110      0.1727
     56  C         10.5710   24.9210   41.6380 C.2   110  VAL110      0.2616
     57  O         10.0010   23.8720   41.9040 O.2   110  VAL110     -0.2715
     58  CB         9.1710   26.9250   42.3410 C.3   110  VAL110      0.0290
     59  CG1       10.2750   27.3950   43.3110 C.3   110  VAL110      0.0023
     60  CG2        8.4210   28.1120   41.8210 C.3   110  VAL110      0.0023
     61  N         11.8990   25.0660   41.7130 N.am  111  GLY111     -0.1955
     62  CA        12.7490   24.0670   42.3250 C.3   111  GLY111      0.1869
     63  C         13.2350   24.6940   43.6300 C.2   111  GLY111      0.2309
     64  O         13.7730   25.7990   43.6280 O.2   111  GLY111     -0.2863
     65  N          3.5220   25.0770   42.0770 N.3   150  GLU150     -0.1231
     66  CA         4.0100   23.7450   41.7400 C.3   150  GLU150      0.1699
     67  C          5.5030   23.7410   42.0060 C.2   150  GLU150      0.2592
     68  O          6.2240   24.6030   41.4650 O.2   150  GLU150     -0.2718
     69  CB         3.7670   23.4270   40.2610 C.3   150  GLU150      0.0402
     70  CG         2.3730   22.9240   39.9510 C.3   150  GLU150      0.1161
     71  CD         2.3190   22.1180   38.6500 C.2   150  GLU150      0.3649
     72  OE1        3.3320   22.0970   37.8950 O.co2 150  GLU150     -0.2457
     73  OE2        1.2610   21.4970   38.3900 O.co2 150  GLU150     -0.2457
     74  N          5.9790   22.8180   42.8490 N.am  151  PHE151     -0.1962
     75  CA         7.4240   22.7710   43.0830 C.3   151  PHE151      0.1771
     76  C          8.0450   21.3760   43.2130 C.2   151  PHE151      0.2619
     77  O          7.3900   20.4090   43.6300 O.2   151  PHE151     -0.2715
     78  CB         7.8230   23.6740   44.2800 C.3   151  PHE151      0.0574
     79  CG         7.4190   23.1340   45.6310 C.ar  151  PHE151     -0.0200
     80  CD1        6.0970   23.2250   46.0750 C.ar  151  PHE151     -0.0042
     81  CD2        8.3670   22.5740   46.4780 C.ar  151  PHE151     -0.0042
     82  CE1        5.7200   22.7380   47.3330 C.ar  151  PHE151     -0.0003
     83  CE2        8.0010   22.0760   47.7510 C.ar  151  PHE151     -0.0003
     84  CZ         6.6720   22.1660   48.1710 C.ar  151  PHE151     -0.0000
     85  N          9.3300   21.2880   42.8750 N.am  152  ASN152     -0.1972
     86  CA        10.1080   20.0790   43.1210 C.3   152  ASN152      0.1688
     87  C         11.1810   20.4470   44.1280 C.2   152  ASN152      0.2292
     88  O         11.4840   21.6220   44.3090 O.2   152  ASN152     -0.2864
     89  CB        10.8130   19.6050   41.8590 C.3   152  ASN152      0.1181
     90  CG         9.8710   19.3250   40.7460 C.2   152  ASN152      0.2629
     91  OD1        8.6490   19.4370   40.9060 O.2   152  ASN152     -0.2716
     92  ND2       10.4220   18.9580   39.5860 N.am  152  ASN152     -0.0877
     93  N         15.1250   20.1370   45.2910 N.3   154  LEU154     -0.1245
     94  CA        16.4230   19.8740   44.7350 C.3   154  LEU154      0.1561
     95  C         17.3960   19.6160   45.8510 C.2   154  LEU154      0.2260
     96  O         17.6990   20.4660   46.6360 O.2   154  LEU154     -0.2867
     97  CB        16.8770   21.0480   43.8960 C.3   154  LEU154      0.0270
     98  CG        17.2580   20.6890   42.4780 C.3   154  LEU154      0.0019
     99  CD1       16.0080   20.6600   41.6230 C.3   154  LEU154      0.0001
    100  CD2       18.2530   21.7290   42.0180 C.3   154  LEU154      0.0001
    101  N          8.0380   15.1370   44.2980 N.3   179  PHE179     -0.1241
    102  CA         8.8640   15.3620   43.1020 C.3   179  PHE179      0.1605
    103  C         10.2580   15.7790   43.5290 C.2   179  PHE179      0.2264
    104  O         10.4640   16.9120   44.0050 O.2   179  PHE179     -0.2867
    105  CB         8.2620   16.4760   42.2260 C.3   179  PHE179      0.0534
    106  CG         6.9470   16.1020   41.5950 C.ar  179  PHE179     -0.0203
    107  CD1        6.9100   15.4230   40.3890 C.ar  179  PHE179     -0.0042
    108  CD2        5.7600   16.3970   42.2390 C.ar  179  PHE179     -0.0042
    109  CE1        5.6850   15.0720   39.8180 C.ar  179  PHE179     -0.0003
    110  CE2        4.5470   16.0460   41.6930 C.ar  179  PHE179     -0.0003
    111  CZ         4.5030   15.3920   40.4820 C.ar  179  PHE179     -0.0000
    112  N         14.6030   15.7610   43.0250 N.3   181  GLN181     -0.1245
    113  CA        15.7650   15.7100   42.1420 C.3   181  GLN181      0.1566
    114  C         17.0070   15.6990   43.0350 C.2   181  GLN181      0.2260
    115  O         17.2290   16.6300   43.8100 O.2   181  GLN181     -0.2867
    116  CB        15.7920   16.9320   41.2180 C.3   181  GLN181      0.0367
    117  CG        14.4620   17.1330   40.4850 C.3   181  GLN181      0.0905
    118  CD        14.4870   18.2620   39.4780 C.2   181  GLN181      0.2608
    119  OE1       13.4310   18.7210   39.0260 O.2   181  GLN181     -0.2717
    120  NE2       15.6910   18.7160   39.1150 N.am  181  GLN181     -0.0878
    121  N         13.9320   12.1920   39.7840 N.3   229  ARG229     -0.1245
    122  CA        14.3700   12.5720   38.4350 C.3   229  ARG229      0.1563
    123  C         15.2840   11.5670   37.7580 C.2   229  ARG229      0.2260
    124  O         15.0120   11.1400   36.6220 O.2   229  ARG229     -0.2867
    125  CB        15.0400   13.9520   38.4590 C.3   229  ARG229      0.0307
    126  CG        15.5240   14.4060   37.0780 C.3   229  ARG229      0.0489
    127  CD        14.7320   15.6190   36.6120 C.3   229  ARG229      0.2205
    128  NE        15.0940   16.0300   35.2590 N.pl3 229  ARG229     -0.0865
    129  CZ        15.7430   17.1520   34.9530 C.cat 229  ARG229      0.5346
    130  NH1       16.1010   18.0030   35.9070 N.pl3 229  ARG229      0.1354
    131  NH2       16.0220   17.4300   33.6810 N.pl3 229  ARG229      0.1354
    132  N         13.3340    8.3940   36.8720 N.3   232  ASP232     -0.1239
    133  CA        12.4120    8.7070   35.7620 C.3   232  ASP232      0.1674
    134  C         13.1470    8.6760   34.4300 C.2   232  ASP232      0.2266
    135  O         12.6390    8.1470   33.4370 O.2   232  ASP232     -0.2867
    136  CB        11.7840   10.0910   35.9480 C.3   232  ASP232      0.1410
    137  CG        10.6690   10.1120   36.9890 C.2   232  ASP232      0.3668
    138  OD1       10.1290    9.0360   37.3200 O.co2 232  ASP232     -0.2456
    139  OD2       10.3270   11.2250   37.4670 O.co2 232  ASP232     -0.2456
    140  N         12.5900    6.4720   31.0990 N.3   236  GLU236     -0.1245
    141  CA        12.5290    7.0910   29.7620 C.3   236  GLU236      0.1567
    142  C         13.4860    6.4460   28.7860 C.2   236  GLU236      0.2260
    143  O         13.1140    6.1320   27.6460 O.2   236  GLU236     -0.2867
    144  CB        12.8530    8.6020   29.8190 C.3   236  GLU236      0.0388
    145  CG        11.8420    9.4660   30.5270 C.3   236  GLU236      0.1160
    146  CD        12.2540   10.9390   30.5780 C.2   236  GLU236      0.3649
    147  OE1       13.3700   11.2580   31.0640 O.co2 236  GLU236     -0.2457
    148  OE2       11.4580   11.7970   30.1340 O.co2 236  GLU236     -0.2457
    149  N         14.7370   13.0340   29.0270 N.3   244  SER244     -0.1217
    150  CA        14.6050   14.4910   29.0370 C.3   244  SER244      0.1889
    151  C         15.6030   15.1720   29.9890 C.2   244  SER244      0.2288
    152  O         15.5710   16.3980   30.1610 O.2   244  SER244     -0.2866
    153  CB        13.1750   14.9010   29.3780 C.3   244  SER244      0.2089
    154  OG        12.7990   14.4200   30.6470 O.3   244  SER244     -0.2183
    155  N         22.8080   24.6170   26.3760 N.3   255  GLN255     -0.1245
    156  CA        21.7740   24.9880   27.3330 C.3   255  GLN255      0.1566
    157  C         21.4360   26.4800   27.2700 C.2   255  GLN255      0.2260
    158  O         20.4760   26.9340   27.8990 O.2   255  GLN255     -0.2867
    159  CB        22.2070   24.5900   28.7530 C.3   255  GLN255      0.0367
    160  CG        22.3760   23.0740   28.9500 C.3   255  GLN255      0.0905
    161  CD        22.8480   22.6900   30.3500 C.2   255  GLN255      0.2608
    162  OE1       23.0520   23.5480   31.2230 O.2   255  GLN255     -0.2717
    163  NE2       23.0230   21.3890   30.5710 N.am  255  GLN255     -0.0878
@<TRIPOS>BOND
     1   155   156    1
     2   157   156    1
     3   157   158    2
     4   156   159    1
     5   143   142    2
     6   159   160    1
     7   142   141    1
     8   160   161    1
     9   149   150    1
    10   150   153    1
    11   150   151    1
    12   153   154    1
    13   141   144    1
    14   141   140    1
    15   144   145    1
    16   151   152    2
    17   148   146   ar
    18     1     2    1
    19   161   163   am
    20   161   162    2
    21   145   146    1
    22   146   147   ar
    23     2     5    1
    24     2     3    1
    25     4     3    2
    26     8     6    1
    27     6     5    1
    28     6     7    1
    29     9    10    1
    30   135   134    2
    31    13    10    1
    32    10    11    1
    33   131   129    1
    34    12    11    2
    35   134   133    1
    36    23    24    1
    37    28    27    1
    38   129   128    2
    39   129   130    1
    40   128   127    1
    41    27    24    1
    42   133   136    1
    43   133   132    1
    44   136   137    1
    45    24    25    1
    46    26    25    2
    47    22    20   am
    48   127   126    1
    49   124   123    2
    50    53    51    1
    51    25    29   am
    52   137   138   ar
    53   137   139   ar
    54   126   125    1
    55    50    51    1
    56    50    47    1
    57    46    47    1
    58    20    21    2
    59    20    19    1
    60    14    15    1
    61    18    19    1
    62    18    15    1
    63    51    52    1
    64   123   122    1
    65    72    71   ar
    66    47    48    1
    67    29    30    1
    68    15    16    1
    69    73    71   ar
    70   122   125    1
    71   122   121    1
    72    49    48    2
    73    71    70    1
    74    17    16    2
    75    48    54   am
    76   119   118    2
    77    30    33    1
    78    30    31    1
    79   120   118   am
    80   118   117    1
    81    92    90   am
    82   109   107   ar
    83   109   111   ar
    84    33    34    1
    85    70    69    1
    86    31    37   am
    87    31    32    2
    88    37    38    1
    89    54    55    1
    90    69    66    1
    91   107   106   ar
    92    35    34    1
    93   111   110   ar
    94   117   116    1
    95    41    38    1
    96    41    42    1
    97    90    91    2
    98    90    89    1
    99    34    36    1
   100    55    56    1
   101    55    58    1
   102    38    39    1
   103   116   113    1
   104    68    67    2
   105    44    43    2
   106    42    43    1
   107   106   105    1
   108   106   108   ar
   109    99    98    1
   110    56    61   am
   111    56    57    2
   112   110   108   ar
   113    61    62    1
   114    66    67    1
   115    66    65    1
   116    60    58    1
   117    89    86    1
   118    67    74   am
   119   100    98    1
   120    40    39    2
   121   113   112    1
   122   113   114    1
   123    43    45   am
   124   105   102    1
   125    62    63    1
   126    58    59    1
   127    98    97    1
   128    74    75    1
   129    85    86    1
   130    85    76   am
   131   114   115    2
   132    75    76    1
   133    75    78    1
   134   102   103    1
   135   102   101    1
   136    86    87    1
   137    76    77    2
   138   103   104    2
   139    64    63    2
   140    97    94    1
   141    87    88    2
   142    78    79    1
   143    94    93    1
   144    94    95    1
   145    79    80   ar
   146    79    81   ar
   147    95    96    2
   148    80    82   ar
   149    81    83   ar
   150    82    84   ar
   151    83    84   ar
