@<TRIPOS>MOLECULE
tmp/4k3fA00.pdb
 135 131 0 0 0
SMALL
GASTEIGER

@<TRIPOS>ATOM
      1  N          8.7580    3.5130    8.9030 N.3    14  HIS14      -0.1241
      2  CA         9.4420    2.9500    7.7450 C.3    14  HIS14       0.1621
      3  C          8.7860    1.7100    7.1670 C.2    14  HIS14       0.2264
      4  O          8.5480    1.6290    5.9720 O.2    14  HIS14      -0.2867
      5  CB        10.9210    2.6930    8.0740 C.3    14  HIS14       0.0745
      6  CG        11.5940    3.8870    8.6610 C.ar   14  HIS14       0.0817
      7  ND1       11.3020    4.3630    9.9230 N.ar   14  HIS14      -0.2268
      8  CD2       12.4850    4.7480    8.1290 C.ar   14  HIS14       0.1154
      9  CE1       12.0100    5.4570   10.1460 C.ar   14  HIS14       0.1986
     10  NE2       12.7410    5.7110    9.0740 N.ar   14  HIS14      -0.2212
     11  N         18.8170    0.3350   15.9580 N.3    40  TYR40      -0.1241
     12  CA        19.5230    1.1530   15.0120 C.3    40  TYR40       0.1605
     13  C         20.8550    0.5480   14.5260 C.2    40  TYR40       0.2264
     14  O         21.5990    1.1940   13.8040 O.2    40  TYR40      -0.2867
     15  CB        19.7950    2.5020   15.6510 C.3    40  TYR40       0.0534
     16  CG        18.6630    3.5150   15.7380 C.ar   40  TYR40      -0.0201
     17  CD1       17.4410    3.3440   15.0980 C.ar   40  TYR40      -0.0009
     18  CD2       18.8650    4.6920   16.4710 C.ar   40  TYR40      -0.0009
     19  CE1       16.4500    4.3340   15.1690 C.ar   40  TYR40       0.0417
     20  CE2       17.9130    5.6740   16.5130 C.ar   40  TYR40       0.0417
     21  CZ        16.6930    5.5130   15.8760 C.ar   40  TYR40       0.1957
     22  OH        15.7480    6.5380   15.9650 O.3    40  TYR40      -0.2866
     23  N         15.7840    3.1800    7.5970 N.3    57  PHE57      -0.1227
     24  CA        15.6710    3.4750    9.0480 C.3    57  PHE57       0.1736
     25  C         16.4920    4.6480    9.5340 C.2    57  PHE57       0.2595
     26  O         16.2470    5.0880   10.6150 O.2    57  PHE57      -0.2718
     27  CB        16.0000    2.2770    9.9540 C.3    57  PHE57       0.0547
     28  CG        17.4800    2.0730   10.1890 C.ar   57  PHE57      -0.0202
     29  CD1       18.2740    1.5160    9.2250 C.ar   57  PHE57      -0.0042
     30  CD2       18.0610    2.4880   11.3770 C.ar   57  PHE57      -0.0042
     31  CE1       19.6620    1.3230    9.4470 C.ar   57  PHE57      -0.0003
     32  CE2       19.4100    2.3030   11.5970 C.ar   57  PHE57      -0.0003
     33  CZ        20.2020    1.7330   10.6340 C.ar   57  PHE57      -0.0000
     34  N         17.4770    5.1170    8.7840 N.am   58  GLN58      -0.1965
     35  CA        18.4910    6.0680    9.3390 C.3    58  GLN58       0.1733
     36  C         18.5900    7.3010    8.4690 C.2    58  GLN58       0.2616
     37  O         18.0700    7.3210    7.3350 O.2    58  GLN58      -0.2715
     38  CB        19.8600    5.3890    9.4360 C.3    58  GLN58       0.0408
     39  CG        20.5510    5.2460    8.0720 C.3    58  GLN58       0.0908
     40  CD        21.5850    4.1490    8.0980 C.2    58  GLN58       0.2608
     41  OE1       22.5260    4.1640    8.8990 O.2    58  GLN58      -0.2717
     42  NE2       21.3580    3.1360    7.3040 N.am   58  GLN58      -0.0878
     43  N         19.2470    8.3270    9.0040 N.am   59  HIS59      -0.1973
     44  CA        19.5850    9.5030    8.2320 C.3    59  HIS59       0.1656
     45  C         21.0630    9.4300    7.8320 C.2    59  HIS59       0.2291
     46  O         21.8030    8.5420    8.2290 O.2    59  HIS59      -0.2864
     47  CB        19.2440   10.8070    8.9730 C.3    59  HIS59       0.0771
     48  CG        19.6810   10.8580   10.4290 C.ar   59  HIS59       0.0820
     49  ND1       21.0150   10.7920   10.8170 N.ar   59  HIS59      -0.2267
     50  CD2       18.9730   10.9730   11.5740 C.ar   59  HIS59       0.1154
     51  CE1       21.0960   10.8820   12.1380 C.ar   59  HIS59       0.1986
     52  NE2       19.8640   11.0130   12.6190 N.ar   59  HIS59      -0.2212
     53  N         23.9600    9.6250   10.4840 N.3    62  TYR62      -0.1241
     54  CA        24.0670    8.3490   11.2110 C.3    62  TYR62       0.1605
     55  C         24.8140    7.3010   10.3680 C.2    62  TYR62       0.2264
     56  O         25.7270    6.6210   10.8680 O.2    62  TYR62      -0.2867
     57  CB        22.6700    7.8450   11.6160 C.3    62  TYR62       0.0534
     58  CG        22.7440    6.6040   12.4530 C.ar   62  TYR62      -0.0201
     59  CD1       22.8030    5.3600   11.8600 C.ar   62  TYR62      -0.0009
     60  CD2       22.8200    6.6710   13.8650 C.ar   62  TYR62      -0.0009
     61  CE1       22.8880    4.2200   12.6100 C.ar   62  TYR62       0.0417
     62  CE2       22.9110    5.5200   14.6310 C.ar   62  TYR62       0.0417
     63  CZ        22.9500    4.3060   14.0070 C.ar   62  TYR62       0.1957
     64  OH        23.0770    3.1590   14.7910 O.3    62  TYR62      -0.2866
     65  N         11.8170   13.3510   10.0580 N.3    83  GLU83      -0.1245
     66  CA        11.0740   13.1360   11.3190 C.3    83  GLU83       0.1567
     67  C         11.5360   14.1700   12.3180 C.2    83  GLU83       0.2260
     68  O         12.4150   13.8930   13.1160 O.2    83  GLU83      -0.2867
     69  CB        11.3960   11.7540   11.9130 C.3    83  GLU83       0.0388
     70  CG        10.9330   10.5990   11.0880 C.3    83  GLU83       0.1160
     71  CD        11.4220    9.2360   11.5850 C.2    83  GLU83       0.3649
     72  OE1       11.8810    9.0660   12.7630 O.co2  83  GLU83      -0.2457
     73  OE2       11.3580    8.3350   10.7680 O.co2  83  GLU83      -0.2457
     74  N         22.6720   11.4380   16.7680 N.3   112  ASN112     -0.1240
     75  CA        21.4010   11.7700   17.4060 C.3   112  ASN112      0.1653
     76  C         21.5700   12.5090   18.7470 C.2   112  ASN112      0.2266
     77  O         20.7170   13.3420   19.0990 O.2   112  ASN112     -0.2867
     78  CB        20.4860   10.5610   17.4830 C.3   112  ASN112      0.1155
     79  CG        20.0600   10.0980   16.1270 C.2   112  ASN112      0.2627
     80  OD1       19.2930   10.7700   15.4230 O.2   112  ASN112     -0.2716
     81  ND2       20.5160    8.9370   15.7710 N.am  112  ASN112     -0.0877
     82  N         22.4380   16.1020   17.5090 N.3   115  ARG115     -0.1245
     83  CA        21.1700   16.6310   17.0560 C.3   115  ARG115      0.1563
     84  C         20.2770   17.1260   18.2240 C.2   115  ARG115      0.2260
     85  O         19.6990   18.2090   18.1630 O.2   115  ARG115     -0.2867
     86  CB        20.4850   15.5290   16.2880 C.3   115  ARG115      0.0307
     87  CG        19.0570   15.7400   15.9490 C.3   115  ARG115      0.0489
     88  CD        18.5360   14.4760   15.2910 C.3   115  ARG115      0.2205
     89  NE        17.3440   14.7960   14.5800 N.pl3 115  ARG115     -0.0865
     90  CZ        16.6140   13.9230   13.9000 C.cat 115  ARG115      0.5346
     91  NH1       16.9430   12.6310   13.8990 N.pl3 115  ARG115      0.1354
     92  NH2       15.5490   14.3480   13.2750 N.pl3 115  ARG115      0.1354
     93  N         13.7510   10.2780   19.3340 N.3   170  ASN170     -0.1225
     94  CA        13.6130   10.0970   17.8970 C.3   170  ASN170      0.1785
     95  C         12.1680    9.7770   17.5770 C.2   170  ASN170      0.2598
     96  O         11.5010    8.9510   18.2490 O.2   170  ASN170     -0.2718
     97  CB        14.5030    8.9770   17.3760 C.3   170  ASN170      0.1169
     98  CG        15.9730    9.3000   17.5160 C.2   170  ASN170      0.2627
     99  OD1       16.6050    9.0160   18.5630 O.2   170  ASN170     -0.2716
    100  ND2       16.5220    9.9350   16.5080 N.am  170  ASN170     -0.0877
    101  N         11.6810   10.3850   16.5080 N.am  171  THR171     -0.1939
    102  CA        10.2320   10.3060   16.2130 C.3   171  THR171      0.2028
    103  C          9.7380    8.8670   15.9450 C.2   171  THR171      0.2642
    104  O          8.6220    8.4830   16.3250 O.2   171  THR171     -0.2714
    105  CB         9.9200   11.2590   15.0530 C.3   171  THR171      0.1808
    106  OG1       10.1500   12.5830   15.5280 O.3   171  THR171     -0.2208
    107  CG2        8.4900   11.1040   14.5690 C.3   171  THR171      0.0379
    108  N         10.5420    8.0360   15.2640 N.am  172  ASN172     -0.1971
    109  CA        10.1360    6.6580   15.0380 C.3   172  ASN172      0.1688
    110  C          9.7930    5.9410   16.3320 C.2   172  ASN172      0.2292
    111  O          8.7510    5.2810   16.4150 O.2   172  ASN172     -0.2864
    112  CB        11.1510    5.8580   14.2260 C.3   172  ASN172      0.1181
    113  CG        12.4150    5.5450   14.9910 C.2   172  ASN172      0.2629
    114  OD1       13.2530    6.4110   15.2390 O.2   172  ASN172     -0.2716
    115  ND2       12.5500    4.2970   15.3880 N.am  172  ASN172     -0.0877
    116  N         18.5460   15.7280    8.4980 N.3   195  TYR195     -0.1241
    117  CA        18.1350   14.3990    8.9560 C.3   195  TYR195      0.1605
    118  C         17.0860   13.6750    8.1030 C.2   195  TYR195      0.2264
    119  O         16.3210   12.8270    8.5960 O.2   195  TYR195     -0.2867
    120  CB        17.7240   14.4300   10.4280 C.3   195  TYR195      0.0534
    121  CG        18.7700   15.0870   11.2890 C.ar  195  TYR195     -0.0201
    122  CD1       20.0240   14.5020   11.4890 C.ar  195  TYR195     -0.0009
    123  CD2       18.5580   16.3600   11.8210 C.ar  195  TYR195     -0.0009
    124  CE1       20.9970   15.1030   12.2440 C.ar  195  TYR195      0.0417
    125  CE2       19.5460   16.9710   12.5750 C.ar  195  TYR195      0.0417
    126  CZ        20.7570   16.3530   12.7680 C.ar  195  TYR195      0.1957
    127  OH        21.7100   16.9770   13.4970 O.3   195  TYR195     -0.2866
    128  N         15.6110   10.8210    6.2330 N.3   197  ASN197     -0.1240
    129  CA        15.7830    9.3620    6.2840 C.3   197  ASN197      0.1653
    130  C         15.9420    8.7900    4.8780 C.2   197  ASN197      0.2266
    131  O         15.2260    9.1820    3.9590 O.2   197  ASN197     -0.2867
    132  CB        14.6040    8.7000    7.0050 C.3   197  ASN197      0.1155
    133  CG        14.6930    8.8560    8.5380 C.2   197  ASN197      0.2627
    134  OD1       14.4030    7.9240    9.2730 O.2   197  ASN197     -0.2716
    135  ND2       15.1800   10.0440    9.0170 N.am  197  ASN197     -0.0877
@<TRIPOS>BOND
     1   131   130    2
     2   130   129    1
     3     4     3    2
     4   128   129    1
     5   129   132    1
     6   132   133    1
     7     3     2    1
     8    42    40   am
     9    37    36    2
    10    23    24    1
    11     2     5    1
    12     2     1    1
    13    45    46    2
    14    45    44    1
    15    39    40    1
    16    39    38    1
    17     5     6    1
    18    40    41    2
    19   118   119    2
    20   118   117    1
    21     8     6   ar
    22     8    10   ar
    23    44    47    1
    24    44    43    1
    25    36    43   am
    26    36    35    1
    27   116   117    1
    28   133   135   am
    29   133   134    2
    30     6     7   ar
    31    34    35    1
    32    34    25   am
    33   117   120    1
    34    47    48    1
    35    24    25    1
    36    24    27    1
    37    10     9   ar
    38    29    31   ar
    39    29    28   ar
    40    35    38    1
    41    31    33   ar
    42    25    26    2
    43     7     9   ar
    44    27    28    1
    45    65    66    1
    46    28    30   ar
    47    55    56    2
    48    55    54    1
    49   120   121    1
    50    48    49   ar
    51    48    50   ar
    52    53    54    1
    53    33    32   ar
    54    73    71   ar
    55    49    51   ar
    56    70    71    1
    57    70    69    1
    58    54    57    1
    59   121   122   ar
    60   121   123   ar
    61    66    69    1
    62    66    67    1
    63    30    32   ar
    64   122   124   ar
    65    50    52   ar
    66    71    72   ar
    67    57    58    1
    68   123   125   ar
    69    59    58   ar
    70    59    61   ar
    71    51    52   ar
    72   124   126   ar
    73    67    68    2
    74    58    60   ar
    75   125   126   ar
    76    61    63   ar
    77   126   127    1
    78    92    90    1
    79    14    13    2
    80    60    62   ar
    81    91    90    1
    82    90    89    2
    83    63    62   ar
    84    63    64    1
    85   112   113    1
    86   112   109    1
    87    13    12    1
    88   107   105    1
    89    89    88    1
    90   113   114    2
    91   113   115   am
    92    12    15    1
    93    12    11    1
    94   109   108    1
    95   109   110    1
    96   105   106    1
    97   105   102    1
    98    17    19   ar
    99    17    16   ar
   100    19    21   ar
   101   108   103   am
   102    88    87    1
   103    80    79    2
   104    15    16    1
   105    16    18   ar
   106    81    79   am
   107    21    22    1
   108    21    20   ar
   109   103   102    1
   110   103   104    2
   111    87    86    1
   112    79    78    1
   113   102   101    1
   114    86    83    1
   115   110   111    2
   116    18    20   ar
   117   101    95   am
   118   100    98   am
   119    74    75    1
   120    83    82    1
   121    83    84    1
   122    97    98    1
   123    97    94    1
   124    75    78    1
   125    75    76    1
   126    98    99    2
   127    95    94    1
   128    95    96    2
   129    94    93    1
   130    85    84    2
   131    76    77    2
