@<TRIPOS>MOLECULE
tmp/4k3hD01.pdb
 67 62 0 0 0
SMALL
GASTEIGER

@<TRIPOS>ATOM
      1  N        -12.0880  -10.0800   -5.8100 N.3     2  ALA2       -0.1245
      2  CA       -12.1190  -10.3280   -4.3670 C.3     2  ALA2        0.1562
      3  C        -11.9120   -9.0590   -3.5340 C.2     2  ALA2        0.2260
      4  O        -10.9630   -8.2950   -3.7690 O.2     2  ALA2       -0.2867
      5  CB       -11.1020  -11.3840   -3.9860 C.3     2  ALA2        0.0290
      6  N        -14.7540  -11.7780    3.7630 N.3    24  SER24      -0.1217
      7  CA       -14.2560  -11.9290    2.4180 C.3    24  SER24       0.1889
      8  C        -15.4760  -11.9880    1.5030 C.2    24  SER24       0.2288
      9  O        -16.4930  -12.5990    1.8470 O.2    24  SER24      -0.2866
     10  CB       -13.4210  -13.1980    2.3190 C.3    24  SER24       0.2089
     11  OG       -13.3700  -13.6590    0.9920 O.3    24  SER24      -0.2183
     12  N        -15.8460  -13.5700   -1.1830 N.3    26  THR26      -0.1203
     13  CA       -15.9490  -14.7580   -2.0140 C.3    26  THR26       0.1994
     14  C        -16.2030  -16.0550   -1.2620 C.2    26  THR26       0.2618
     15  O        -16.4360  -17.0930   -1.8730 O.2    26  THR26      -0.2717
     16  CB       -14.6950  -14.9420   -2.8570 C.3    26  THR26       0.1784
     17  OG1      -13.6060  -15.3100   -2.0060 O.3    26  THR26      -0.2211
     18  CG2      -14.3610  -13.6600   -3.6250 C.3    26  THR26       0.0376
     19  N        -16.1570  -16.0100    0.0550 N.am   27  GLY27      -0.1942
     20  CA       -16.4460  -17.1930    0.8330 C.3    27  GLY27       0.2014
     21  C        -16.3740  -16.8940    2.3100 C.2    27  GLY27       0.2638
     22  O        -16.2530  -15.7280    2.7220 O.2    27  GLY27      -0.2714
     23  N        -16.4490  -17.9470    3.1160 N.am   28  ALA28      -0.1977
     24  CA       -16.3200  -17.7900    4.5460 C.3    28  ALA28       0.1597
     25  C        -14.8400  -17.6060    4.9000 C.2    28  ALA28       0.2287
     26  O        -13.9540  -18.1530    4.2420 O.2    28  ALA28      -0.2864
     27  CB       -16.9030  -18.9860    5.2520 C.3    28  ALA28       0.0319
     28  N         -7.0010  -18.1190    6.5620 N.3    33  HIS33      -0.1241
     29  CA        -6.8180  -16.7710    6.0440 C.3    33  HIS33       0.1621
     30  C         -5.8660  -15.9640    6.9030 C.2    33  HIS33       0.2264
     31  O         -5.4530  -14.8730    6.5020 O.2    33  HIS33      -0.2867
     32  CB        -8.1480  -16.0330    5.9650 C.3    33  HIS33       0.0745
     33  CG        -9.0210  -16.5040    4.8600 C.ar   33  HIS33       0.0817
     34  ND1      -10.1800  -17.2190    5.0820 N.ar   33  HIS33      -0.2268
     35  CD2       -8.9090  -16.3730    3.5170 C.ar   33  HIS33       0.1154
     36  CE1      -10.7440  -17.5010    3.9250 C.ar   33  HIS33       0.1986
     37  NE2       -9.9940  -16.9960    2.9580 N.ar   33  HIS33      -0.2212
     38  N         -6.6280  -10.2370    5.1350 N.3    92  LEU92      -0.1231
     39  CA        -6.8280  -11.6700    5.0010 C.3    92  LEU92       0.1693
     40  C         -5.9120  -12.0820    3.8890 C.2    92  LEU92       0.2593
     41  O         -5.6200  -11.2730    3.0000 O.2    92  LEU92      -0.2718
     42  CB        -8.2630  -11.9690    4.5560 C.3    92  LEU92       0.0284
     43  CG        -9.3720  -11.5100    5.4940 C.3    92  LEU92       0.0019
     44  CD1      -10.7370  -11.8980    4.9220 C.3    92  LEU92       0.0001
     45  CD2       -9.1440  -12.1240    6.8600 C.3    92  LEU92       0.0001
     46  N         -5.4570  -13.3210    3.8990 N.am   93  SER93      -0.1938
     47  CA        -4.6720  -13.7710    2.7620 C.3    93  SER93       0.2055
     48  C         -4.8740  -15.2200    2.4290 C.2    93  SER93       0.2643
     49  O         -5.4180  -15.9880    3.2240 O.2    93  SER93      -0.2714
     50  CB        -3.1790  -13.5360    2.9930 C.3    93  SER93       0.2130
     51  OG        -2.7670  -14.1820    4.1630 O.3    93  SER93      -0.2179
     52  N         -4.4040  -15.5820    1.2430 N.am   94  ASP94      -0.1971
     53  CA        -4.3720  -16.9670    0.8190 C.3    94  ASP94       0.1709
     54  C         -3.0960  -17.2040    0.0230 C.2    94  ASP94       0.2293
     55  O         -2.1170  -16.4720    0.1690 O.2    94  ASP94      -0.2864
     56  CB        -5.6080  -17.3090   -0.0190 C.3    94  ASP94       0.1436
     57  CG        -5.8250  -16.3340   -1.1650 C.2    94  ASP94       0.3671
     58  OD1       -4.8380  -15.8000   -1.7190 O.co2  94  ASP94      -0.2456
     59  OD2       -6.9970  -16.0920   -1.5130 O.co2  94  ASP94      -0.2456
     60  N         -5.0990   -9.2170    1.1550 N.3    99  LEU99      -0.1245
     61  CA        -5.9090   -8.0350    0.8650 C.3    99  LEU99       0.1561
     62  C         -6.2870   -7.3620    2.1800 C.2    99  LEU99       0.2260
     63  O         -6.5590   -8.0430    3.1810 O.2    99  LEU99      -0.2867
     64  CB        -7.1770   -8.4130    0.0930 C.3    99  LEU99       0.0270
     65  CG        -7.0460   -9.0010   -1.3210 C.3    99  LEU99       0.0019
     66  CD1       -8.4210   -9.1560   -1.9460 C.3    99  LEU99       0.0001
     67  CD2       -6.1670   -8.1460   -2.2140 C.3    99  LEU99       0.0001
@<TRIPOS>BOND
     1     1     2    1
     2     2     5    1
     3     2     3    1
     4     4     3    2
     5    18    16    1
     6    16    13    1
     7    16    17    1
     8    67    65    1
     9    13    14    1
    10    13    12    1
    11    66    65    1
    12    15    14    2
    13    58    57   ar
    14    59    57   ar
    15    65    64    1
    16    14    19   am
    17    57    56    1
    18    56    53    1
    19    54    55    2
    20    54    53    1
    21    19    20    1
    22    64    61    1
    23    53    52    1
    24    20    21    1
    25    61    60    1
    26    61    62    1
    27    11    10    1
    28    52    48   am
    29     8     9    2
    30     8     7    1
    31    62    63    2
    32    21    22    2
    33    21    23   am
    34    10     7    1
    35     7     6    1
    36    48    47    1
    37    48    49    2
    38    47    50    1
    39    47    46    1
    40    37    35   ar
    41    37    36   ar
    42    50    51    1
    43    41    40    2
    44    23    24    1
    45    35    33   ar
    46    40    46   am
    47    40    39    1
    48    36    34   ar
    49    26    25    2
    50    24    25    1
    51    24    27    1
    52    42    39    1
    53    42    43    1
    54    33    34   ar
    55    33    32    1
    56    44    43    1
    57    39    38    1
    58    43    45    1
    59    32    29    1
    60    29    28    1
    61    29    30    1
    62    31    30    2
