@<TRIPOS>MOLECULE
tmp/4k3hF00.pdb
 116 114 0 0 0
SMALL
GASTEIGER

@<TRIPOS>ATOM
      1  N        -52.1450    1.7000  -13.0970 N.3    34  TYR34      -0.1241
      2  CA       -51.3120    0.5370  -12.7770 C.3    34  TYR34       0.1605
      3  C        -51.5710   -0.0340  -11.3850 C.2    34  TYR34       0.2264
      4  O        -50.6910   -0.0120  -10.5210 O.2    34  TYR34      -0.2867
      5  CB       -49.8250    0.8940  -12.8920 C.3    34  TYR34       0.0534
      6  CG       -49.3890    1.3860  -14.2530 C.ar   34  TYR34      -0.0201
      7  CD1      -48.9590    0.4970  -15.2320 C.ar   34  TYR34      -0.0009
      8  CD2      -49.3900    2.7430  -14.5540 C.ar   34  TYR34      -0.0009
      9  CE1      -48.5390    0.9430  -16.4690 C.ar   34  TYR34       0.0417
     10  CE2      -48.9720    3.1970  -15.7900 C.ar   34  TYR34       0.0417
     11  CZ       -48.5480    2.2940  -16.7410 C.ar   34  TYR34       0.1957
     12  OH       -48.1360    2.7470  -17.9740 O.3    34  TYR34      -0.2866
     13  N        -51.7650   -1.9300   -8.1230 N.3    36  ASN36      -0.1240
     14  CA       -51.0790   -3.0040   -7.4190 C.3    36  ASN36       0.1653
     15  C        -51.9220   -3.5080   -6.2380 C.2    36  ASN36       0.2266
     16  O        -52.5600   -2.7150   -5.5360 O.2    36  ASN36      -0.2867
     17  CB       -49.7220   -2.5250   -6.9160 C.3    36  ASN36       0.1155
     18  CG       -48.6410   -2.5880   -7.9860 C.2    36  ASN36       0.2627
     19  OD1      -47.6410   -3.3070   -7.8370 O.2    36  ASN36      -0.2716
     20  ND2      -48.8340   -1.8380   -9.0720 N.am   36  ASN36      -0.0877
     21  N        -51.8260   -6.0300   -2.6450 N.3    38  PHE38      -0.1241
     22  CA       -50.9290   -6.6270   -1.6610 C.3    38  PHE38       0.1605
     23  C        -51.7110   -7.3940   -0.5950 C.2    38  PHE38       0.2264
     24  O        -52.7570   -6.9370   -0.1450 O.2    38  PHE38      -0.2867
     25  CB       -50.0980   -5.5370   -0.9860 C.3    38  PHE38       0.0534
     26  CG       -49.3090   -4.6910   -1.9470 C.ar   38  PHE38      -0.0203
     27  CD1      -47.9890   -4.9990   -2.2440 C.ar   38  PHE38      -0.0042
     28  CD2      -49.8860   -3.5850   -2.5530 C.ar   38  PHE38      -0.0042
     29  CE1      -47.2640   -4.2260   -3.1350 C.ar   38  PHE38      -0.0003
     30  CE2      -49.1680   -2.8060   -3.4400 C.ar   38  PHE38      -0.0003
     31  CZ       -47.8430   -3.1260   -3.7310 C.ar   38  PHE38      -0.0000
     32  N        -46.6390   -9.1340   -2.3390 N.3    48  ALA48      -0.1245
     33  CA       -47.1540   -8.5670   -3.5740 C.3    48  ALA48       0.1562
     34  C        -47.9980   -9.6260   -4.2790 C.2    48  ALA48       0.2260
     35  O        -47.6350  -10.7970   -4.2930 O.2    48  ALA48      -0.2867
     36  CB       -46.0050   -8.0980   -4.4550 C.3    48  ALA48       0.0290
     37  N        -49.8080   -6.7040  -10.0180 N.3    51  PHE51      -0.1241
     38  CA       -49.2720   -5.4240  -10.4560 C.3    51  PHE51       0.1605
     39  C        -49.8670   -5.1280  -11.8330 C.2    51  PHE51       0.2264
     40  O        -50.3730   -6.0410  -12.4870 O.2    51  PHE51      -0.2867
     41  CB       -47.7320   -5.4610  -10.5030 C.3    51  PHE51       0.0534
     42  CG       -47.1790   -6.5000  -11.4410 C.ar   51  PHE51      -0.0203
     43  CD1      -47.1520   -7.8460  -11.0770 C.ar   51  PHE51      -0.0042
     44  CD2      -46.6910   -6.1370  -12.6880 C.ar   51  PHE51      -0.0042
     45  CE1      -46.6580   -8.8100  -11.9370 C.ar   51  PHE51      -0.0003
     46  CE2      -46.1750   -7.1030  -13.5620 C.ar   51  PHE51      -0.0003
     47  CZ       -46.1610   -8.4420  -13.1810 C.ar   51  PHE51      -0.0000
     48  N        -47.7250  -12.6350  -10.1190 N.3    57  TYR57      -0.1241
     49  CA       -46.3860  -13.1600   -9.8780 C.3    57  TYR57       0.1605
     50  C        -46.4820  -14.6690   -9.8780 C.2    57  TYR57       0.2264
     51  O        -47.5770  -15.2290   -9.7710 O.2    57  TYR57      -0.2867
     52  CB       -45.8330  -12.6910   -8.5340 C.3    57  TYR57       0.0534
     53  CG       -45.8310  -11.1940   -8.3830 C.ar   57  TYR57      -0.0201
     54  CD1      -44.8120  -10.4280   -8.9240 C.ar   57  TYR57      -0.0009
     55  CD2      -46.8670  -10.5380   -7.7170 C.ar   57  TYR57      -0.0009
     56  CE1      -44.8140   -9.0560   -8.8030 C.ar   57  TYR57       0.0417
     57  CE2      -46.8780   -9.1590   -7.5920 C.ar   57  TYR57       0.0417
     58  CZ       -45.8450   -8.4270   -8.1300 C.ar   57  TYR57       0.1957
     59  OH       -45.8380   -7.0590   -8.0090 O.3    57  TYR57      -0.2866
     60  N        -45.8320  -16.5790   -7.6300 N.3    59  TRP59      -0.1241
     61  CA       -46.3740  -17.0470   -6.3540 C.3    59  TRP59       0.1605
     62  C        -47.8230  -16.6170   -6.1030 C.2    59  TRP59       0.2264
     63  O        -48.3840  -16.8990   -5.0350 O.2    59  TRP59      -0.2867
     64  CB       -45.5080  -16.5710   -5.1900 C.3    59  TRP59       0.0550
     65  CG       -45.3480  -15.0900   -5.1690 C.ar   59  TRP59       0.0003
     66  CD1      -46.2480  -14.1720   -4.7050 C.ar   59  TRP59       0.0946
     67  CD2      -44.2270  -14.3460   -5.6540 C.ar   59  TRP59       0.0152
     68  NE1      -45.7490  -12.9010   -4.8670 N.ar   59  TRP59      -0.2442
     69  CE2      -44.5100  -12.9800   -5.4440 C.ar   59  TRP59       0.0810
     70  CE3      -43.0110  -14.7030   -6.2510 C.ar   59  TRP59       0.0012
     71  CZ2      -43.6210  -11.9690   -5.8050 C.ar   59  TRP59       0.0191
     72  CZ3      -42.1250  -13.6950   -6.6070 C.ar   59  TRP59       0.0001
     73  CH2      -42.4350  -12.3460   -6.3810 C.ar   59  TRP59       0.0015
     74  N        -52.8250   -0.2520   -4.3520 N.3    91  SER91      -0.1202
     75  CA       -52.1330    1.0010   -4.5850 C.3    91  SER91       0.2020
     76  C        -52.3990    1.4800   -6.0060 C.2    91  SER91       0.2619
     77  O        -52.5290    0.6740   -6.9330 O.2    91  SER91      -0.2717
     78  CB       -50.6280    0.8490   -4.3450 C.3    91  SER91       0.2103
     79  OG       -49.9850    2.0950   -4.5280 O.3    91  SER91      -0.2182
     80  N        -52.4990    2.7930   -6.1640 N.am   92  LEU92      -0.1965
     81  CA       -52.7620    3.3940   -7.4610 C.3    92  LEU92       0.1728
     82  C        -51.7480    4.4900   -7.6730 C.2    92  LEU92       0.2616
     83  O        -51.2730    5.0920   -6.7010 O.2    92  LEU92      -0.2715
     84  CB       -54.1700    3.9920   -7.4980 C.3    92  LEU92       0.0311
     85  CG       -55.3330    3.0240   -7.3260 C.3    92  LEU92       0.0022
     86  CD1      -56.6310    3.7940   -7.3700 C.3    92  LEU92       0.0001
     87  CD2      -55.2890    1.9600   -8.4140 C.3    92  LEU92       0.0001
     88  N        -51.4050    4.7580   -8.9290 N.am   93  SER93      -0.1950
     89  CA       -50.4560    5.8280   -9.2030 C.3    93  SER93       0.1924
     90  C        -50.7880    6.6410  -10.4420 C.2    93  SER93       0.2314
     91  O        -51.4890    6.1800  -11.3450 O.2    93  SER93      -0.2863
     92  CB       -49.0230    5.2810   -9.3070 C.3    93  SER93       0.2116
     93  OG       -48.9500    4.2760  -10.2960 O.3    93  SER93      -0.2180
     94  N        -47.5210    7.5440   -6.1070 N.3    98  TYR98      -0.1241
     95  CA       -48.3670    6.3850   -5.8720 C.3    98  TYR98       0.1605
     96  C        -49.0120    6.5240   -4.5030 C.2    98  TYR98       0.2264
     97  O        -48.4000    7.0790   -3.5860 O.2    98  TYR98      -0.2867
     98  CB       -47.5570    5.0820   -5.9750 C.3    98  TYR98       0.0534
     99  CG       -46.3960    4.9720   -5.0030 C.ar   98  TYR98      -0.0201
    100  CD1      -45.0880    5.2420   -5.4040 C.ar   98  TYR98      -0.0009
    101  CD2      -46.6040    4.5750   -3.6910 C.ar   98  TYR98      -0.0009
    102  CE1      -44.0180    5.1290   -4.5110 C.ar   98  TYR98       0.0417
    103  CE2      -45.5540    4.4620   -2.7990 C.ar   98  TYR98       0.0417
    104  CZ       -44.2630    4.7380   -3.2100 C.ar   98  TYR98       0.1957
    105  OH       -43.2350    4.6280   -2.2950 O.3    98  TYR98      -0.2866
    106  N        -51.6810    4.5860   -1.3540 N.3   100  PHE100     -0.1241
    107  CA       -52.2490    3.3430   -0.8460 C.3   100  PHE100      0.1605
    108  C        -53.6790    3.5210   -0.3160 C.2   100  PHE100      0.2264
    109  O        -54.0520    4.5810    0.1890 O.2   100  PHE100     -0.2867
    110  CB       -51.3420    2.7200    0.2250 C.3   100  PHE100      0.0534
    111  CG       -50.1540    1.9860   -0.3360 C.ar  100  PHE100     -0.0203
    112  CD1      -48.9960    2.6670   -0.6890 C.ar  100  PHE100     -0.0042
    113  CD2      -50.1930    0.6150   -0.5140 C.ar  100  PHE100     -0.0042
    114  CE1      -47.8890    1.9910   -1.2180 C.ar  100  PHE100     -0.0003
    115  CE2      -49.0910   -0.0680   -1.0390 C.ar  100  PHE100     -0.0003
    116  CZ       -47.9390    0.6260   -1.3910 C.ar  100  PHE100     -0.0000
@<TRIPOS>BOND
     1    12    11    1
     2    11     9   ar
     3    11    10   ar
     4     9     7   ar
     5    10     8   ar
     6     7     6   ar
     7     8     6   ar
     8     6     5    1
     9    46    47   ar
    10    46    44   ar
    11    47    45   ar
    12     1     2    1
    13     5     2    1
    14     2     3    1
    15    44    42   ar
    16    40    39    2
    17    45    43   ar
    18    39    38    1
    19    42    43   ar
    20    42    41    1
    21     3     4    2
    22    91    90    2
    23    41    38    1
    24    38    37    1
    25    90    89    1
    26    93    92    1
    27    48    49    1
    28    49    50    1
    29    49    52    1
    30    50    51    2
    31    92    89    1
    32    89    88    1
    33    20    18   am
    34    88    82   am
    35    54    56   ar
    36    54    53   ar
    37    56    58   ar
    38    52    53    1
    39    87    85    1
    40    53    55   ar
    41    58    59    1
    42    58    57   ar
    43    13    14    1
    44    18    19    2
    45    18    17    1
    46    55    57   ar
    47    82    81    1
    48    82    83    2
    49    60    61    1
    50    84    81    1
    51    84    85    1
    52    81    80    1
    53    14    17    1
    54    14    15    1
    55    86    85    1
    56    77    76    2
    57    72    73   ar
    58    72    70   ar
    59    73    71   ar
    60    61    62    1
    61    61    64    1
    62    70    67   ar
    63    15    16    2
    64    80    76   am
    65    94    95    1
    66    62    63    2
    67    76    75    1
    68    98    95    1
    69    98    99    1
    70    95    96    1
    71    71    69   ar
    72    67    69   ar
    73    67    65   ar
    74    69    68   ar
    75   100    99   ar
    76   100   102   ar
    77    64    65    1
    78    65    66   ar
    79    99   101   ar
    80    68    66   ar
    81    75    74    1
    82    75    78    1
    83    79    78    1
    84   102   104   ar
    85    96    97    2
    86    36    33    1
    87    35    34    2
    88    34    33    1
    89    31    30   ar
    90    31    29   ar
    91   101   103   ar
    92    33    32    1
    93    30    28   ar
    94   104   103   ar
    95   104   105    1
    96    29    27   ar
    97    21    22    1
    98    28    26   ar
    99    27    26   ar
   100    26    25    1
   101    22    25    1
   102    22    23    1
   103   116   114   ar
   104   116   115   ar
   105   106   107    1
   106   114   112   ar
   107   115   113   ar
   108   107   108    1
   109   107   110    1
   110   112   111   ar
   111    23    24    2
   112   113   111   ar
   113   111   110    1
   114   108   109    2
