@<TRIPOS>MOLECULE
tmp/4k3kA00.pdb
 116 107 0 0 0
SMALL
GASTEIGER

@<TRIPOS>ATOM
      1  N        -20.9320  -20.6330  -25.0150 N.3   155  GLU155     -0.1245
      2  CA       -21.4460  -20.6640  -26.3850 C.3   155  GLU155      0.1567
      3  C        -20.5040  -21.4630  -27.2720 C.2   155  GLU155      0.2260
      4  O        -19.3200  -21.1570  -27.3590 O.2   155  GLU155     -0.2867
      5  CB       -21.6170  -19.2500  -26.9420 C.3   155  GLU155      0.0388
      6  CG       -22.3830  -19.2180  -28.2650 C.3   155  GLU155      0.1160
      7  CD       -22.3040  -17.8880  -28.9960 C.2   155  GLU155      0.3649
      8  OE1      -21.5650  -16.9880  -28.5540 O.co2 155  GLU155     -0.2457
      9  OE2      -22.9800  -17.7490  -30.0390 O.co2 155  GLU155     -0.2457
     10  N        -16.6740  -22.1340  -26.4530 N.3   158  GLU158     -0.1245
     11  CA       -16.0470  -21.0250  -25.7320 C.3   158  GLU158      0.1567
     12  C        -16.7360  -20.7280  -24.4050 C.2   158  GLU158      0.2260
     13  O        -17.9500  -20.8800  -24.2750 O.2   158  GLU158     -0.2867
     14  CB       -16.0800  -19.7400  -26.5660 C.3   158  GLU158      0.0388
     15  CG       -15.3220  -19.7950  -27.8860 C.3   158  GLU158      0.1160
     16  CD       -15.2760  -18.4350  -28.5750 C.2   158  GLU158      0.3649
     17  OE1      -16.2860  -17.6920  -28.5360 O.co2 158  GLU158     -0.2457
     18  OE2      -14.2250  -18.0940  -29.1520 O.co2 158  GLU158     -0.2457
     19  N        -17.0520  -17.2240  -22.2190 N.3   160  ARG160     -0.1245
     20  CA       -16.9200  -15.7960  -22.4380 C.3   160  ARG160      0.1563
     21  C        -17.2410  -15.0310  -21.1600 C.2   160  ARG160      0.2260
     22  O        -18.1510  -15.4040  -20.4270 O.2   160  ARG160     -0.2867
     23  CB       -17.8920  -15.3680  -23.5460 C.3   160  ARG160      0.0307
     24  CG       -17.9330  -13.8770  -23.8510 C.3   160  ARG160      0.0489
     25  CD       -18.8330  -13.5780  -25.0480 C.3   160  ARG160      0.2205
     26  NE       -18.4770  -14.4200  -26.1920 N.pl3 160  ARG160     -0.0865
     27  CZ       -19.2910  -15.2530  -26.8440 C.cat 160  ARG160      0.5346
     28  NH1      -20.5750  -15.3640  -26.5310 N.pl3 160  ARG160      0.1354
     29  NH2      -18.8110  -15.9690  -27.8540 N.pl3 160  ARG160      0.1354
     30  N        -15.1850   -7.5250  -23.2640 N.3   171  VAL171     -0.1245
     31  CA       -15.5980   -8.8880  -23.5560 C.3   171  VAL171      0.1561
     32  C        -14.3720   -9.7180  -23.9240 C.2   171  VAL171      0.2260
     33  O        -13.5010   -9.2550  -24.6620 O.2   171  VAL171     -0.2867
     34  CB       -16.6710   -8.9440  -24.6700 C.3   171  VAL171      0.0252
     35  CG1      -16.2190   -8.1990  -25.9250 C.3   171  VAL171      0.0019
     36  CG2      -17.0550  -10.3890  -24.9820 C.3   171  VAL171      0.0019
     37  N        -13.3280  -13.9710  -24.8860 N.3   173  SER173     -0.1217
     38  CA       -13.7740  -15.3450  -25.1460 C.3   173  SER173      0.1889
     39  C        -12.5630  -16.2480  -25.2490 C.2   173  SER173      0.2288
     40  O        -11.5590  -15.8670  -25.8540 O.2   173  SER173     -0.2866
     41  CB       -14.5730  -15.4310  -26.4530 C.3   173  SER173      0.2089
     42  OG       -15.7190  -14.5900  -26.4320 O.3   173  SER173     -0.2183
     43  N        -23.5540   -7.8320  -25.5810 N.3   236  TYR236     -0.1227
     44  CA       -22.3260   -7.1860  -26.0750 C.3   236  TYR236      0.1736
     45  C        -22.3500   -6.9900  -27.5960 C.2   236  TYR236      0.2595
     46  O        -21.8110   -6.0110  -28.1180 O.2   236  TYR236     -0.2718
     47  CB       -21.0680   -7.9710  -25.6550 C.3   236  TYR236      0.0548
     48  CG       -20.8030   -9.2140  -26.4720 C.ar  236  TYR236     -0.0200
     49  CD1      -21.4380  -10.4180  -26.1790 C.ar  236  TYR236     -0.0009
     50  CD2      -19.9280   -9.1880  -27.5510 C.ar  236  TYR236     -0.0009
     51  CE1      -21.2050  -11.5570  -26.9320 C.ar  236  TYR236      0.0417
     52  CE2      -19.6860  -10.3240  -28.3040 C.ar  236  TYR236      0.0417
     53  CZ       -20.3270  -11.5070  -27.9920 C.ar  236  TYR236      0.1957
     54  OH       -20.0930  -12.6350  -28.7510 O.3   236  TYR236     -0.2866
     55  N        -22.9850   -7.9160  -28.3050 N.am  237  ARG237     -0.1980
     56  CA       -23.0470   -7.8500  -29.7660 C.3   237  ARG237      0.1597
     57  C        -23.6950   -6.5580  -30.2520 C.2   237  ARG237      0.2287
     58  O        -23.3270   -6.0360  -31.3050 O.2   237  ARG237     -0.2864
     59  CB       -23.7960   -9.0520  -30.3280 C.3   237  ARG237      0.0334
     60  CG       -23.0970  -10.3800  -30.0810 C.3   237  ARG237      0.0492
     61  CD       -23.9900  -11.5370  -30.4750 C.3   237  ARG237      0.2205
     62  NE       -25.2650  -11.4870  -29.7630 N.pl3 237  ARG237     -0.0865
     63  CZ       -26.2930  -12.3000  -29.9980 C.cat 237  ARG237      0.5346
     64  NH1      -26.2090  -13.2580  -30.9180 N.pl3 237  ARG237      0.1354
     65  NH2      -27.4110  -12.1640  -29.2960 N.pl3 237  ARG237      0.1354
     66  N        -20.9470   -3.5310  -29.8570 N.3   240  LEU240     -0.1245
     67  CA       -19.8470   -3.4550  -30.8110 C.3   240  LEU240      0.1561
     68  C        -20.2420   -2.5810  -31.9980 C.2   240  LEU240      0.2260
     69  O        -21.2460   -2.8560  -32.6550 O.2   240  LEU240     -0.2867
     70  CB       -19.4630   -4.8510  -31.3220 C.3   240  LEU240      0.0270
     71  CG       -18.9570   -5.8720  -30.2980 C.3   240  LEU240      0.0019
     72  CD1      -18.7360   -7.2180  -30.9750 C.3   240  LEU240      0.0001
     73  CD2      -17.6890   -5.4080  -29.6020 C.3   240  LEU240      0.0001
     74  N        -14.0190    1.0360  -30.6160 N.3   340  GLN340     -0.1245
     75  CA       -13.5960   -0.3270  -30.2840 C.3   340  GLN340      0.1566
     76  C        -12.0770   -0.3760  -30.2320 C.2   340  GLN340      0.2260
     77  O        -11.4060    0.1660  -31.1050 O.2   340  GLN340     -0.2867
     78  CB       -14.1200   -1.3380  -31.3030 C.3   340  GLN340      0.0367
     79  CG       -13.9160   -2.7910  -30.8860 C.3   340  GLN340      0.0905
     80  CD       -14.8200   -3.7480  -31.6360 C.2   340  GLN340      0.2608
     81  OE1      -15.9790   -3.4410  -31.9070 O.2   340  GLN340     -0.2717
     82  NE2      -14.2930   -4.9160  -31.9760 N.am  340  GLN340     -0.0878
     83  N         -8.7080   -3.0310  -29.5290 N.3   342  GLU342     -0.1245
     84  CA        -8.2730   -4.4270  -29.4970 C.3   342  GLU342      0.1567
     85  C         -6.7590   -4.5060  -29.6280 C.2   342  GLU342      0.2260
     86  O         -6.1210   -3.5990  -30.1600 O.2   342  GLU342     -0.2867
     87  CB        -8.8790   -5.2140  -30.6620 C.3   342  GLU342      0.0388
     88  CG       -10.3930   -5.2220  -30.7490 C.3   342  GLU342      0.1160
     89  CD       -10.8960   -5.9060  -32.0070 C.2   342  GLU342      0.3649
     90  OE1      -10.0690   -6.2700  -32.8700 O.co2 342  GLU342     -0.2457
     91  OE2      -12.1200   -6.0760  -32.1440 O.co2 342  GLU342     -0.2457
     92  N         -7.7020  -11.7380  -31.2490 N.3   347  GLN347     -0.1231
     93  CA        -9.1360  -11.5400  -31.4200 C.3   347  GLN347      0.1698
     94  C         -9.9110  -12.0760  -30.2110 C.2   347  GLN347      0.2593
     95  O        -11.1340  -12.1540  -30.2480 O.2   347  GLN347     -0.2718
     96  CB        -9.6210  -12.2530  -32.6850 C.3   347  GLN347      0.0381
     97  CG        -9.0670  -11.7250  -34.0070 C.3   347  GLN347      0.0905
     98  CD        -9.3690  -10.2630  -34.2130 C.2   347  GLN347      0.2608
     99  OE1      -10.5450   -9.8650  -34.1010 O.2   347  GLN347     -0.2717
    100  NE2       -8.3720   -9.4520  -34.3790 N.am  347  GLN347     -0.0878
    101  N         -9.1940  -12.4330  -29.1470 N.am  348  SER348     -0.1938
    102  CA        -9.7940  -13.0530  -27.9640 C.3   348  SER348      0.2055
    103  C        -10.5490  -12.0680  -27.0690 C.2   348  SER348      0.2643
    104  O        -11.4020  -12.4800  -26.2830 O.2   348  SER348     -0.2714
    105  CB        -8.7130  -13.7570  -27.1360 C.3   348  SER348      0.2130
    106  OG        -8.1770  -14.8580  -27.8390 O.3   348  SER348     -0.2179
    107  N        -10.2220  -10.7820  -27.1730 N.am  349  ALA349     -0.1963
    108  CA       -10.8620   -9.7430  -26.3560 C.3   349  ALA349      0.1728
    109  C        -11.1370   -8.4810  -27.1670 C.2   349  ALA349      0.2616
    110  O        -10.3980   -8.1630  -28.1030 O.2   349  ALA349     -0.2715
    111  CB        -9.9900   -9.4030  -25.1610 C.3   349  ALA349      0.0334
    112  N        -12.1970   -7.7690  -26.7940 N.am  350  ALA350     -0.1977
    113  CA       -12.5190   -6.4710  -27.3890 C.3   350  ALA350      0.1597
    114  C        -13.0750   -5.5230  -26.3330 C.2   350  ALA350      0.2287
    115  O        -13.6630   -5.9600  -25.3350 O.2   350  ALA350     -0.2864
    116  CB       -13.5170   -6.6440  -28.5200 C.3   350  ALA350      0.0319
@<TRIPOS>BOND
     1   100    98   am
     2    98    99    2
     3    98    97    1
     4    97    96    1
     5    90    89   ar
     6    96    93    1
     7    69    68    2
     8    91    89   ar
     9    89    88    1
    10    68    67    1
    11    82    80   am
    12    81    80    2
    13    80    79    1
    14    93    92    1
    15    93    94    1
    16    70    67    1
    17    70    71    1
    18    58    57    2
    19    78    79    1
    20    78    75    1
    21    77    76    2
    22    72    71    1
    23    64    63    1
    24    67    66    1
    25    88    87    1
    26    87    84    1
    27    74    75    1
    28    61    60    1
    29    61    62    1
    30    59    60    1
    31    59    56    1
    32    71    73    1
    33    75    76    1
    34    57    56    1
    35    95    94    2
    36    94   101   am
    37    86    85    2
    38     9     7   ar
    39    63    62    2
    40    63    65    1
    41    56    55    1
    42    85    84    1
    43    83    84    1
    44    18    16   ar
    45   101   102    1
    46     7     8   ar
    47     7     6    1
    48    54    53    1
    49    16    17   ar
    50    16    15    1
    51   116   113    1
    52    55    45   am
    53    52    53   ar
    54    52    50   ar
    55     6     5    1
    56    46    45    2
    57   110   109    2
    58    53    51   ar
    59   102   105    1
    60   102   103    1
    61    15    14    1
    62    29    27    1
    63   106   105    1
    64    45    44    1
    65    50    48   ar
    66   113   112    1
    67   113   114    1
    68     4     3    2
    69     3     2    1
    70   107   103   am
    71   107   108    1
    72   109   112   am
    73   109   108    1
    74   103   104    2
    75     5     2    1
    76    51    49   ar
    77    27    28    1
    78    27    26    2
    79    14    11    1
    80    48    49   ar
    81    48    47    1
    82    10    11    1
    83    41    42    1
    84    41    38    1
    85     2     1    1
    86   108   111    1
    87   114   115    2
    88    26    25    1
    89    44    47    1
    90    44    43    1
    91    35    34    1
    92    40    39    2
    93    11    12    1
    94    39    38    1
    95    38    37    1
    96    25    24    1
    97    36    34    1
    98    34    31    1
    99    33    32    2
   100    12    13    2
   101    32    31    1
   102    24    23    1
   103    31    30    1
   104    23    20    1
   105    20    19    1
   106    20    21    1
   107    21    22    2
