@<TRIPOS>MOLECULE
tmp/4k3kA03.pdb
 128 121 0 0 0
SMALL
GASTEIGER

@<TRIPOS>ATOM
      1  N        -28.3170   -0.4600  -10.9080 N.3   144  ARG144     -0.1245
      2  CA       -28.5260   -1.6790  -11.6890 C.3   144  ARG144      0.1563
      3  C        -27.5690   -2.7520  -11.1830 C.2   144  ARG144      0.2260
      4  O        -26.4640   -2.9250  -11.7010 O.2   144  ARG144     -0.2867
      5  CB       -28.3020   -1.4220  -13.1760 C.3   144  ARG144      0.0307
      6  CG       -29.2900   -0.4420  -13.7810 C.3   144  ARG144      0.0489
      7  CD       -28.7840    0.1030  -15.1010 C.3   144  ARG144      0.2205
      8  NE       -27.5340    0.8390  -14.9170 N.pl3 144  ARG144     -0.0865
      9  CZ       -26.8210    1.3840  -15.8990 C.cat 144  ARG144      0.5346
     10  NH1      -27.2350    1.3000  -17.1640 N.pl3 144  ARG144      0.1354
     11  NH2      -25.6900    2.0180  -15.6080 N.pl3 144  ARG144      0.1354
     12  N        -27.2480   -5.8680  -11.4970 N.3   146  TYR146     -0.1227
     13  CA       -26.7070   -6.8420  -12.4550 C.3   146  TYR146      0.1736
     14  C        -25.4770   -6.3590  -13.2240 C.2   146  TYR146      0.2595
     15  O        -24.8330   -7.1660  -13.8930 O.2   146  TYR146     -0.2718
     16  CB       -27.7800   -7.2830  -13.4570 C.3   146  TYR146      0.0548
     17  CG       -28.4340   -6.1460  -14.2000 C.ar  146  TYR146     -0.0200
     18  CD1      -27.8690   -5.6300  -15.3610 C.ar  146  TYR146     -0.0009
     19  CD2      -29.6240   -5.5840  -13.7360 C.ar  146  TYR146     -0.0009
     20  CE1      -28.4690   -4.5840  -16.0390 C.ar  146  TYR146      0.0417
     21  CE2      -30.2290   -4.5380  -14.4080 C.ar  146  TYR146      0.0417
     22  CZ       -29.6470   -4.0440  -15.5570 C.ar  146  TYR146      0.1957
     23  OH       -30.2510   -3.0080  -16.2250 O.3   146  TYR146     -0.2866
     24  N        -25.1620   -5.0630  -13.1570 N.am  147  LEU147     -0.1980
     25  CA       -23.9120   -4.5460  -13.7270 C.3   147  LEU147      0.1596
     26  C        -22.7440   -4.5960  -12.7320 C.2   147  LEU147      0.2287
     27  O        -21.5840   -4.4700  -13.1390 O.2   147  LEU147     -0.2864
     28  CB       -24.1020   -3.1200  -14.2580 C.3   147  LEU147      0.0297
     29  CG       -25.0910   -2.9720  -15.4260 C.3   147  LEU147      0.0022
     30  CD1      -25.1960   -1.5160  -15.8520 C.3   147  LEU147      0.0001
     31  CD2      -24.6940   -3.8340  -16.6170 C.3   147  LEU147      0.0001
     32  N        -19.5200   -4.4880  -17.9530 N.3   164  THR164     -0.1218
     33  CA       -19.7700   -3.1210  -18.3840 C.3   164  THR164      0.1862
     34  C        -20.3640   -2.2690  -17.2670 C.2   164  THR164      0.2287
     35  O        -20.9890   -2.7840  -16.3420 O.2   164  THR164     -0.2866
     36  CB       -20.6800   -3.0840  -19.6310 C.3   164  THR164      0.1770
     37  OG1      -20.8390   -1.7320  -20.0750 O.3   164  THR164     -0.2211
     38  CG2      -22.0480   -3.6970  -19.3410 C.3   164  THR164      0.0375
     39  N        -21.9520    0.7480  -18.3440 N.3   166  GLY166     -0.1210
     40  CA       -22.7680    1.6600  -19.1310 C.3   166  GLY166      0.1956
     41  C        -21.9720    2.6860  -19.9250 C.2   166  GLY166      0.2612
     42  O        -22.5130    3.3080  -20.8300 O.2   166  GLY166     -0.2717
     43  N        -20.6990    2.8720  -19.5710 N.am  167  HIS167     -0.1961
     44  CA       -19.8000    3.8100  -20.2630 C.3   167  HIS167      0.1787
     45  C        -18.7320    3.1000  -21.0680 C.2   167  HIS167      0.2620
     46  O        -18.3120    3.5900  -22.1200 O.2   167  HIS167     -0.2715
     47  CB       -19.1210    4.7360  -19.2600 C.3   167  HIS167      0.0785
     48  CG       -19.7530    6.0830  -19.1840 C.ar  167  HIS167      0.0821
     49  ND1      -21.0140    6.2810  -18.6680 N.ar  167  HIS167     -0.2267
     50  CD2      -19.3160    7.2950  -19.5950 C.ar  167  HIS167      0.1154
     51  CE1      -21.3240    7.5600  -18.7530 C.ar  167  HIS167      0.1986
     52  NE2      -20.3110    8.1990  -19.3100 N.ar  167  HIS167     -0.2212
     53  N        -18.2630    1.9730  -20.5440 N.am  168  ARG168     -0.1963
     54  CA       -17.3230    1.1210  -21.2540 C.3   168  ARG168      0.1729
     55  C        -17.6550   -0.3510  -21.0330 C.2   168  ARG168      0.2616
     56  O        -18.2780   -0.7110  -20.0430 O.2   168  ARG168     -0.2715
     57  CB       -15.8770    1.4290  -20.8530 C.3   168  ARG168      0.0348
     58  CG       -15.6380    1.7960  -19.3960 C.3   168  ARG168      0.0492
     59  CD       -15.5260    0.5960  -18.4750 C.3   168  ARG168      0.2205
     60  NE       -15.2830    1.0280  -17.1020 N.pl3 168  ARG168     -0.0865
     61  CZ       -14.0910    1.3350  -16.5950 C.cat 168  ARG168      0.5346
     62  NH1      -12.9860    1.2640  -17.3370 N.pl3 168  ARG168      0.1354
     63  NH2      -14.0060    1.7290  -15.3300 N.pl3 168  ARG168      0.1354
     64  N        -17.2610   -1.1810  -21.9900 N.am  169  LEU169     -0.1977
     65  CA       -17.5510   -2.6050  -21.9550 C.3   169  LEU169      0.1596
     66  C        -16.3030   -3.3890  -22.3120 C.2   169  LEU169      0.2287
     67  O        -15.5050   -2.9520  -23.1390 O.2   169  LEU169     -0.2864
     68  CB       -18.6800   -2.9370  -22.9300 C.3   169  LEU169      0.0297
     69  CG       -19.0530   -4.4140  -23.1370 C.3   169  LEU169      0.0022
     70  CD1      -20.5600   -4.5390  -23.3310 C.3   169  LEU169      0.0001
     71  CD2      -18.3030   -5.0590  -24.3010 C.3   169  LEU169      0.0001
     72  N        -31.3820   -8.6090  -16.5960 N.3   232  ARG232     -0.1245
     73  CA       -31.1890   -8.6780  -18.0380 C.3   232  ARG232      0.1563
     74  C        -29.8840   -7.9570  -18.3890 C.2   232  ARG232      0.2260
     75  O        -29.8470   -6.7390  -18.5580 O.2   232  ARG232     -0.2867
     76  CB       -32.3710   -8.0410  -18.7770 C.3   232  ARG232      0.0307
     77  CG       -32.4390   -8.6730  -20.1720 C.3   232  ARG232      0.0489
     78  CD       -33.4220   -7.9810  -21.0450 C.3   232  ARG232      0.2205
     79  NE       -32.9270   -6.7600  -21.6410 N.pl3 232  ARG232     -0.0865
     80  CZ       -31.9060   -6.5010  -22.4650 C.cat 232  ARG232      0.5346
     81  NH1      -31.0190   -7.3490  -22.9760 N.pl3 232  ARG232      0.1354
     82  NH2      -31.7810   -5.2080  -22.8260 N.pl3 232  ARG232      0.1354
     83  N        -26.9240   -6.6320  -20.6060 N.3   234  PRO234     -0.2116
     84  CA       -26.9330   -6.2190  -22.0130 C.3   234  PRO234      0.1372
     85  C        -26.1610   -7.1680  -22.9340 C.2   234  PRO234      0.2244
     86  O        -25.2280   -7.8410  -22.5020 O.2   234  PRO234     -0.2868
     87  CB       -26.2810   -4.8330  -21.9880 C.3   234  PRO234      0.0268
     88  CG       -25.5840   -4.7340  -20.6850 C.3   234  PRO234      0.0207
     89  CD       -26.3380   -5.6040  -19.7310 C.3   234  PRO234      0.0892
     90  N        -24.6470   -6.0400  -29.4790 N.3   238  ARG238     -0.1231
     91  CA       -25.3150   -4.7910  -29.8290 C.3   238  ARG238      0.1694
     92  C        -24.4870   -3.5620  -29.4720 C.2   238  ARG238      0.2591
     93  O        -24.8160   -2.4590  -29.8960 O.2   238  ARG238     -0.2718
     94  CB       -26.6900   -4.7130  -29.1640 C.3   238  ARG238      0.0321
     95  CG       -27.6620   -5.7440  -29.7060 C.3   238  ARG238      0.0489
     96  CD       -28.9980   -5.7080  -28.9930 C.3   238  ARG238      0.2205
     97  NE       -29.7450   -4.4820  -29.2670 N.pl3 238  ARG238     -0.0865
     98  CZ       -31.0060   -4.2700  -28.8950 C.cat 238  ARG238      0.5346
     99  NH1      -31.6860   -5.2040  -28.2380 N.pl3 238  ARG238      0.1354
    100  NH2      -31.5990   -3.1200  -29.1980 N.pl3 238  ARG238      0.1354
    101  N        -23.4260   -3.7510  -28.6900 N.am  239  VAL239     -0.1980
    102  CA       -22.5670   -2.6570  -28.2470 C.3   239  VAL239      0.1595
    103  C        -21.4010   -2.4530  -29.2190 C.2   239  VAL239      0.2287
    104  O        -20.9350   -1.3320  -29.4000 O.2   239  VAL239     -0.2864
    105  CB       -22.0430   -2.9120  -26.8060 C.3   239  VAL239      0.0276
    106  CG1      -21.0650   -1.8280  -26.3690 C.3   239  VAL239      0.0022
    107  CG2      -23.2070   -3.0190  -25.8270 C.3   239  VAL239      0.0022
    108  N        -19.0850    5.5100  -30.0200 N.3   338  SER338     -0.1217
    109  CA       -18.1380    4.7430  -29.2320 C.3   338  SER338      0.1889
    110  C        -17.0450    4.1660  -30.1200 C.2   338  SER338      0.2288
    111  O        -17.1890    4.0660  -31.3490 O.2   338  SER338     -0.2866
    112  CB       -18.8460    3.6380  -28.4430 C.3   338  SER338      0.2089
    113  OG       -19.5180    2.7540  -29.3130 O.3   338  SER338     -0.2183
    114  N        -15.0880   -1.5870  -25.7840 N.3   352  VAL352     -0.1245
    115  CA       -15.8590   -0.4940  -26.3650 C.3   352  VAL352      0.1561
    116  C        -15.9590    0.6020  -25.3230 C.2   352  VAL352      0.2260
    117  O        -16.2430    0.3290  -24.1550 O.2   352  VAL352     -0.2867
    118  CB       -17.2580   -0.9530  -26.8030 C.3   352  VAL352      0.0252
    119  CG1      -18.0570    0.2080  -27.3890 C.3   352  VAL352      0.0019
    120  CG2      -17.1350   -2.0870  -27.8110 C.3   352  VAL352      0.0019
    121  N        -17.3360    4.7310  -24.6930 N.3   354  MET354     -0.1245
    122  CA       -18.0700    5.9210  -25.1310 C.3   354  MET354      0.1570
    123  C        -17.1080    7.0780  -25.3430 C.2   354  MET354      0.2261
    124  O        -16.1160    7.1730  -24.6380 O.2   354  MET354     -0.2867
    125  CB       -19.0500    6.3910  -24.0580 C.3   354  MET354      0.0387
    126  CG       -20.3540    5.6480  -23.9280 C.3   354  MET354      0.0595
    127  SD       -21.3300    6.4680  -22.6410 S.3   354  MET354     -0.1393
    128  CE       -22.9020    5.6570  -22.8970 C.3   354  MET354      0.0692
@<TRIPOS>BOND
     1   111   110    2
     2   110   109    1
     3   108   109    1
     4    93    92    2
     5    91    90    1
     6    91    92    1
     7    91    94    1
     8    95    94    1
     9    95    96    1
    10    92   101   am
    11   104   103    2
    12   113   112    1
    13    97    96    1
    14    97    98    2
    15   109   112    1
    16   103   102    1
    17   100    98    1
    18    98    99    1
    19   101   102    1
    20   102   105    1
    21   120   118    1
    22   119   118    1
    23   105   106    1
    24   105   107    1
    25   118   115    1
    26   115   114    1
    27   115   116    1
    28   123   122    1
    29   123   124    2
    30   116   117    2
    31   122   121    1
    32   122   125    1
    33    71    69    1
    34   125   126    1
    35   126   127    1
    36    70    69    1
    37    67    66    2
    38    69    68    1
    39    81    80    1
    40    85    86    2
    41    85    84    1
    42    68    65    1
    43   128   127    1
    44    82    80    1
    45    80    79    2
    46    66    65    1
    47    46    45    2
    48    84    87    1
    49    84    83    1
    50    64    65    1
    51    64    55   am
    52    87    88    1
    53    79    78    1
    54    54    55    1
    55    54    57    1
    56    54    53    1
    57    45    53   am
    58    45    44    1
    59    78    77    1
    60    55    56    2
    61    57    58    1
    62    42    41    2
    63    88    89    1
    64    83    89    1
    65    44    43    1
    66    44    47    1
    67    77    76    1
    68    37    36    1
    69    41    43   am
    70    41    40    1
    71    36    38    1
    72    36    33    1
    73    50    52   ar
    74    50    48   ar
    75    58    59    1
    76    52    51   ar
    77    47    48    1
    78    48    49   ar
    79    40    39    1
    80    76    73    1
    81    51    49   ar
    82    75    74    2
    83    59    60    1
    84    74    73    1
    85    33    32    1
    86    33    34    1
    87    73    72    1
    88    62    61    1
    89    34    35    2
    90    10     9    1
    91    60    61    2
    92    31    29    1
    93    61    63    1
    94    23    22    1
    95    20    22   ar
    96    20    18   ar
    97     9    11    1
    98     9     8    2
    99    30    29    1
   100    22    21   ar
   101    29    28    1
   102    18    17   ar
   103     7     8    1
   104     7     6    1
   105    21    19   ar
   106    28    25    1
   107    17    19   ar
   108    17    16    1
   109    15    14    2
   110     6     5    1
   111    25    24    1
   112    25    26    1
   113    16    13    1
   114    14    24   am
   115    14    13    1
   116     5     2    1
   117    27    26    2
   118    13    12    1
   119     4     3    2
   120     2     3    1
   121     2     1    1
