@<TRIPOS>MOLECULE
tmp/4k3lA00.pdb
 79 74 0 0 0
SMALL
GASTEIGER

@<TRIPOS>ATOM
      1  N         11.0730   -1.9610   -2.8990 N.3   163  THR163     -0.1218
      2  CA        10.1030   -2.4990   -3.8460 C.3   163  THR163      0.1862
      3  C          9.7430   -3.9270   -3.4960 C.2   163  THR163      0.2287
      4  O         10.5490   -4.6470   -2.8940 O.2   163  THR163     -0.2866
      5  CB        10.6440   -2.4250   -5.2920 C.3   163  THR163      0.1770
      6  OG1        9.6320   -2.8460   -6.2160 O.3   163  THR163     -0.2211
      7  CG2       11.9130   -3.2680   -5.4590 C.3   163  THR163      0.0375
      8  N          8.1410   -5.7220   -6.1460 N.3   165  GLY165     -0.1210
      9  CA         7.8290   -6.2110   -7.4900 C.3   165  GLY165      0.1956
     10  C          6.5470   -5.6460   -8.0780 C.2   165  GLY165      0.2612
     11  O          6.4080   -5.6030   -9.2860 O.2   165  GLY165     -0.2717
     12  N          5.6160   -5.2170   -7.2290 N.am  166  HIS166     -0.1961
     13  CA         4.3370   -4.6470   -7.6930 C.3   166  HIS166      0.1787
     14  C          4.3500   -3.1240   -7.6420 C.2   166  HIS166      0.2620
     15  O          3.7250   -2.4700   -8.4680 O.2   166  HIS166     -0.2715
     16  CB         3.1810   -5.1810   -6.8510 C.3   166  HIS166      0.0785
     17  CG         3.1590   -6.6740   -6.7530 C.ar  166  HIS166      0.0821
     18  ND1        2.8380   -7.4820   -7.8230 N.ar  166  HIS166     -0.2267
     19  CD2        3.4620   -7.5050   -5.7300 C.ar  166  HIS166      0.1154
     20  CE1        2.9240   -8.7480   -7.4550 C.ar  166  HIS166      0.1986
     21  NE2        3.2970   -8.7900   -6.1890 N.ar  166  HIS166     -0.2212
     22  N          5.0760   -2.5810   -6.6700 N.am  167  ARG167     -0.1963
     23  CA         5.2140   -1.1410   -6.4960 C.3   167  ARG167      0.1729
     24  C          6.6220   -0.8500   -6.0010 C.2   167  ARG167      0.2616
     25  O          7.2620   -1.7150   -5.3980 O.2   167  ARG167     -0.2715
     26  CB         4.1620   -0.5890   -5.5240 C.3   167  ARG167      0.0348
     27  CG         3.8430   -1.4590   -4.3150 C.3   167  ARG167      0.0492
     28  CD         4.7570   -1.2220   -3.1220 C.3   167  ARG167      0.2205
     29  NE         4.2550   -1.9590   -1.9570 N.pl3 167  ARG167     -0.0865
     30  CZ         3.2890   -1.5470   -1.1290 C.cat 167  ARG167      0.5346
     31  NH1        2.6870   -0.3700   -1.2830 N.pl3 167  ARG167      0.1354
     32  NH2        2.9120   -2.3280   -0.1280 N.pl3 167  ARG167      0.1354
     33  N          7.0970    0.3500   -6.2790 N.am  168  LEU168     -0.1977
     34  CA         8.4480    0.7690   -5.9430 C.3   168  LEU168      0.1596
     35  C          8.4120    2.2010   -5.4230 C.2   168  LEU168      0.2287
     36  O          7.5800    3.0030   -5.8490 O.2   168  LEU168     -0.2864
     37  CB         9.3710    0.6560   -7.1610 C.3   168  LEU168      0.0297
     38  CG        10.8110    1.1830   -7.0300 C.3   168  LEU168      0.0022
     39  CD1       11.7780    0.3910   -7.9010 C.3   168  LEU168      0.0001
     40  CD2       10.9290    2.6730   -7.3680 C.3   168  LEU168      0.0001
     41  N         15.5130    1.4090  -14.2740 N.3   234  ARG234     -0.1231
     42  CA        14.8830    0.5480  -15.2770 C.3   234  ARG234      0.1694
     43  C         13.3940    0.3390  -15.0000 C.2   234  ARG234      0.2591
     44  O         12.6960   -0.3200  -15.7720 O.2   234  ARG234     -0.2718
     45  CB        15.5760   -0.8110  -15.3090 C.3   234  ARG234      0.0321
     46  CG        17.0850   -0.7520  -15.5000 C.3   234  ARG234      0.0489
     47  CD        17.4960   -0.1970  -16.8520 C.3   234  ARG234      0.2205
     48  NE        17.0190   -1.0380  -17.9470 N.pl3 234  ARG234     -0.0865
     49  CZ        17.1390   -0.7380  -19.2400 C.cat 234  ARG234      0.5346
     50  NH1       17.7240    0.3900  -19.6280 N.pl3 234  ARG234      0.1354
     51  NH2       16.6630   -1.5740  -20.1530 N.pl3 234  ARG234      0.1354
     52  N         12.9170    0.8980  -13.8920 N.am  235  VAL235     -0.1980
     53  CA        11.5220    0.7990  -13.4930 C.3   235  VAL235      0.1595
     54  C         10.7800    2.1120  -13.7590 C.2   235  VAL235      0.2287
     55  O          9.5960    2.0780  -14.0810 O.2   235  VAL235     -0.2864
     56  CB        11.4100    0.3930  -12.0050 C.3   235  VAL235      0.0276
     57  CG1        9.9730    0.4760  -11.5110 C.3   235  VAL235      0.0022
     58  CG2       11.9590   -1.0120  -11.8040 C.3   235  VAL235      0.0022
     59  N          2.8990    0.7540  -16.1520 N.3   334  SER334     -0.1217
     60  CA         2.9920    1.3290  -14.8070 C.3   334  SER334      0.1889
     61  C          2.7570    2.8360  -14.8150 C.2   334  SER334      0.2288
     62  O          2.9210    3.4940  -15.8410 O.2   334  SER334     -0.2866
     63  CB         4.3690    1.0300  -14.2200 C.3   334  SER334      0.2089
     64  OG         5.3760    1.5490  -15.0580 O.3   334  SER334     -0.2183
     65  N          6.3590    4.1150   -8.2630 N.3   348  VAL348     -0.1245
     66  CA         5.9400    3.4260   -9.4770 C.3   348  VAL348      0.1561
     67  C          5.0270    2.2830   -9.0640 C.2   348  VAL348      0.2260
     68  O          5.3280    1.5140   -8.1440 O.2   348  VAL348     -0.2867
     69  CB         7.1330    2.8890  -10.2990 C.3   348  VAL348      0.0252
     70  CG1        6.6370    2.1900  -11.5610 C.3   348  VAL348      0.0019
     71  CG2        8.1030    4.0150  -10.6400 C.3   348  VAL348      0.0019
     72  N          2.4200   -0.8570  -10.6130 N.3   350  MET350     -0.1245
     73  CA         1.9560   -1.6770  -11.7290 C.3   350  MET350      0.1570
     74  C          0.4730   -1.4920  -11.9670 C.2   350  MET350      0.2261
     75  O         -0.2780   -1.3300  -11.0260 O.2   350  MET350     -0.2867
     76  CB         2.1810   -3.1620  -11.4320 C.3   350  MET350      0.0387
     77  CG         3.5910   -3.6280  -11.6860 C.3   350  MET350      0.0595
     78  SD         3.9620   -3.6420  -13.4450 S.3   350  MET350     -0.1393
     79  CE         3.0330   -5.0770  -13.9870 C.3   350  MET350      0.0692
@<TRIPOS>BOND
     1    51    49    1
     2    50    49    1
     3    49    48    2
     4    48    47    1
     5    47    46    1
     6    59    60    1
     7    62    61    2
     8    44    43    2
     9    46    45    1
    10    45    42    1
    11    42    43    1
    12    42    41    1
    13    64    63    1
    14    43    52   am
    15    61    60    1
    16    60    63    1
    17    55    54    2
    18    79    78    1
    19    52    53    1
    20    54    53    1
    21    53    56    1
    22    78    77    1
    23    56    58    1
    24    56    57    1
    25    74    73    1
    26    74    75    2
    27    73    76    1
    28    73    72    1
    29    77    76    1
    30    70    69    1
    31    71    69    1
    32    69    66    1
    33    66    67    1
    34    66    65    1
    35    11    10    2
    36    67    68    2
    37    15    14    2
    38    10     9    1
    39    10    12   am
    40    39    38    1
    41    18    20   ar
    42    18    17   ar
    43    13    14    1
    44    13    12    1
    45    13    16    1
    46    14    22   am
    47     9     8    1
    48    20    21   ar
    49    40    38    1
    50    37    38    1
    51    37    34    1
    52    16    17    1
    53    17    19   ar
    54    22    23    1
    55    23    24    1
    56    23    26    1
    57    33    24   am
    58    33    34    1
    59     6     5    1
    60    21    19   ar
    61    24    25    2
    62    34    35    1
    63    36    35    2
    64    26    27    1
    65     7     5    1
    66     5     2    1
    67    27    28    1
    68     2     3    1
    69     2     1    1
    70     3     4    2
    71    28    29    1
    72    29    30    2
    73    31    30    1
    74    30    32    1
