@<TRIPOS>MOLECULE
tmp/4k3lA02.pdb
 83 80 0 0 0
SMALL
GASTEIGER

@<TRIPOS>ATOM
      1  N        -12.8820   -5.3640   -4.4950 N.3   263  ASN263     -0.1240
      2  CA       -12.6160   -6.7520   -4.1380 C.3   263  ASN263      0.1653
      3  C        -11.7080   -6.7920   -2.9120 C.2   263  ASN263      0.2266
      4  O        -10.6840   -6.1090   -2.8600 O.2   263  ASN263     -0.2867
      5  CB       -11.9780   -7.4730   -5.3270 C.3   263  ASN263      0.1155
      6  CG       -11.8360   -8.9650   -5.0980 C.2   263  ASN263      0.2627
      7  OD1      -11.0270   -9.3970   -4.2820 O.2   263  ASN263     -0.2716
      8  ND2      -12.6240   -9.7570   -5.8190 N.am  263  ASN263     -0.0877
      9  N         -8.2080   -8.5430   -4.0350 N.3   266  PHE266     -0.1241
     10  CA        -7.4760   -7.9660   -5.1690 C.3   266  PHE266      0.1605
     11  C         -7.5110   -6.4380   -5.2200 C.2   266  PHE266      0.2264
     12  O         -6.6480   -5.8180   -5.8460 O.2   266  PHE266     -0.2867
     13  CB        -7.9680   -8.5870   -6.4780 C.3   266  PHE266      0.0534
     14  CG        -7.7510  -10.0710   -6.5390 C.ar  266  PHE266     -0.0203
     15  CD1       -6.4660  -10.5920   -6.6340 C.ar  266  PHE266     -0.0042
     16  CD2       -8.8220  -10.9510   -6.4600 C.ar  266  PHE266     -0.0042
     17  CE1       -6.2580  -11.9660   -6.6710 C.ar  266  PHE266     -0.0003
     18  CE2       -8.6220  -12.3230   -6.5020 C.ar  266  PHE266     -0.0003
     19  CZ        -7.3400  -12.8290   -6.6090 C.ar  266  PHE266     -0.0000
     20  N         -9.0090   -4.0080   -6.6480 N.3   268  GLY268     -0.1210
     21  CA        -8.9270   -3.2990   -7.9200 C.3   268  GLY268      0.1956
     22  C         -9.8950   -2.1310   -8.0220 C.2   268  GLY268      0.2612
     23  O        -11.0700   -2.2590   -7.6800 O.2   268  GLY268     -0.2717
     24  N         -9.3920   -0.9960   -8.5010 N.am  269  VAL269     -0.1965
     25  CA       -10.2220    0.1340   -8.8990 C.3   269  VAL269      0.1727
     26  C         -9.8370    0.5400  -10.3170 C.2   269  VAL269      0.2616
     27  O         -8.7460    0.1930  -10.7850 O.2   269  VAL269     -0.2715
     28  CB       -10.0670    1.3400   -7.9390 C.3   269  VAL269      0.0290
     29  CG1      -10.5230    0.9520   -6.5380 C.3   269  VAL269      0.0023
     30  CG2       -8.6430    1.8870   -7.9140 C.3   269  VAL269      0.0023
     31  N        -10.7330    1.2570  -10.9920 N.am  270  ARG270     -0.1977
     32  CA       -10.4840    1.7370  -12.3460 C.3   270  ARG270      0.1597
     33  C        -10.4970    3.2560  -12.3590 C.2   270  ARG270      0.2287
     34  O        -11.3090    3.8820  -11.6780 O.2   270  ARG270     -0.2864
     35  CB       -11.5260    1.1720  -13.3130 C.3   270  ARG270      0.0334
     36  CG       -11.3400   -0.3170  -13.5960 C.3   270  ARG270      0.0492
     37  CD       -12.0520   -0.7890  -14.8630 C.3   270  ARG270      0.2205
     38  NE       -13.4870   -0.9930  -14.6710 N.pl3 270  ARG270     -0.0865
     39  CZ       -14.0380   -2.0220  -14.0260 C.cat 270  ARG270      0.5346
     40  NH1      -13.2840   -2.9610  -13.4550 N.pl3 270  ARG270      0.1354
     41  NH2      -15.3590   -2.1020  -13.9250 N.pl3 270  ARG270      0.1354
     42  N        -15.8970   -2.0630   -7.9900 N.3   283  ASN283     -0.1225
     43  CA       -16.9540   -3.0310   -7.7870 C.3   283  ASN283      0.1785
     44  C        -16.4120   -4.3160   -7.1790 C.2   283  ASN283      0.2597
     45  O        -15.2140   -4.5730   -7.2090 O.2   283  ASN283     -0.2718
     46  CB       -17.7260   -3.3040   -9.0870 C.3   283  ASN283      0.1169
     47  CG       -16.8940   -4.0290  -10.1240 C.2   283  ASN283      0.2627
     48  OD1      -16.9980   -5.2470  -10.2690 O.2   283  ASN283     -0.2716
     49  ND2      -16.0530   -3.2940  -10.8340 N.am  283  ASN283     -0.0877
     50  N        -17.3050   -5.0980   -6.5920 N.am  284  ASN284     -0.1961
     51  CA       -16.9140   -6.3140   -5.9050 C.3   284  ASN284      0.1804
     52  C        -17.7640   -7.4860   -6.3960 C.2   284  ASN284      0.2463
     53  O        -18.6470   -7.2950   -7.2300 O.2   284  ASN284     -0.2730
     54  CB       -16.9800   -6.1120   -4.3830 C.3   284  ASN284      0.1195
     55  CG       -18.3630   -5.7400   -3.8840 C.2   284  ASN284      0.2630
     56  OD1      -19.3710   -6.0110   -4.5310 O.2   284  ASN284     -0.2716
     57  ND2      -18.4110   -5.1170   -2.7020 N.am  284  ASN284     -0.0877
     58  N        -17.4780   -8.7060   -5.9100 N.am  285  PRO285     -0.2727
     59  CA       -18.2930   -9.8510   -6.3160 C.3   285  PRO285      0.1402
     60  C        -19.7710   -9.7780   -5.9070 C.2   285  PRO285      0.2269
     61  O        -20.5950  -10.4680   -6.5060 O.2   285  PRO285     -0.2865
     62  CB       -17.5930  -11.0310   -5.6380 C.3   285  PRO285      0.0296
     63  CG       -16.1780  -10.5880   -5.4950 C.3   285  PRO285      0.0237
     64  CD       -16.2900   -9.1330   -5.1500 C.3   285  PRO285      0.0939
     65  N         -3.2800   -3.0630  -13.1210 N.3   352  MET352     -0.1230
     66  CA        -4.0130   -4.3220  -13.0170 C.3   352  MET352      0.1702
     67  C         -4.7920   -4.5420  -14.3060 C.2   352  MET352      0.2592
     68  O         -5.1710   -3.5750  -14.9700 O.2   352  MET352     -0.2718
     69  CB        -4.9960   -4.2660  -11.8460 C.3   352  MET352      0.0401
     70  CG        -4.3720   -4.5850  -10.5050 C.3   352  MET352      0.0596
     71  SD        -5.5860   -4.5210   -9.1780 S.3   352  MET352     -0.1393
     72  CE        -6.6940   -5.8530   -9.6190 C.3   352  MET352      0.0692
     73  N         -5.0570   -5.8080  -14.6320 N.am  353  ARG353     -0.1980
     74  CA        -5.7630   -6.1760  -15.8670 C.3   353  ARG353      0.1597
     75  C         -7.2130   -5.6880  -15.8960 C.2   353  ARG353      0.2287
     76  O         -7.8230   -5.4180  -14.8560 O.2   353  ARG353     -0.2864
     77  CB        -5.7240   -7.6940  -16.0690 C.3   353  ARG353      0.0334
     78  CG        -4.3310   -8.3250  -16.0270 C.3   353  ARG353      0.0492
     79  CD        -3.7100   -8.4460  -17.4120 C.3   353  ARG353      0.2205
     80  NE        -3.3920   -7.1470  -17.9980 N.pl3 353  ARG353     -0.0865
     81  CZ        -2.3410   -6.4130  -17.6670 C.cat 353  ARG353      0.5346
     82  NH1       -1.4900   -6.8480  -16.7510 N.pl3 353  ARG353      0.1354
     83  NH2       -2.1190   -5.2540  -18.2690 N.pl3 353  ARG353      0.1354
@<TRIPOS>BOND
     1    83    81    1
     2    80    81    2
     3    80    79    1
     4    81    82    1
     5    79    78    1
     6    77    78    1
     7    77    74    1
     8    75    74    1
     9    75    76    2
    10    74    73    1
    11    68    67    2
    12    37    38    1
    13    37    36    1
    14    38    39    2
    15    73    67   am
    16    67    66    1
    17    39    41    1
    18    39    40    1
    19    36    35    1
    20    35    32    1
    21    65    66    1
    22    66    69    1
    23    33    32    1
    24    33    34    2
    25    32    31    1
    26    69    70    1
    27    31    26   am
    28    49    47   am
    29    27    26    2
    30    70    71    1
    31    26    25    1
    32    48    47    2
    33    47    46    1
    34    72    71    1
    35    46    43    1
    36    25    24    1
    37    25    28    1
    38    24    22   am
    39    22    21    1
    40    22    23    2
    41    42    43    1
    42    28    30    1
    43    28    29    1
    44    21    20    1
    45    43    44    1
    46    53    52    2
    47    45    44    2
    48    44    50   am
    49    17    15   ar
    50    17    19   ar
    51    15    14   ar
    52    19    18   ar
    53    50    51    1
    54    14    13    1
    55    14    16   ar
    56    61    60    2
    57    18    16   ar
    58    13    10    1
    59    52    58   am
    60    52    51    1
    61    59    58    1
    62    59    60    1
    63    59    62    1
    64    58    64    1
    65    51    54    1
    66    12    11    2
    67     8     6   am
    68    62    63    1
    69    63    64    1
    70     5     6    1
    71     5     2    1
    72    11    10    1
    73    10     9    1
    74     6     7    2
    75    56    55    2
    76     1     2    1
    77    54    55    1
    78     2     3    1
    79    55    57   am
    80     3     4    2
