@<TRIPOS>MOLECULE
tmp/4k3lB03.pdb
 93 87 0 0 0
SMALL
GASTEIGER

@<TRIPOS>ATOM
      1  N        -22.9370    8.7660   15.2150 N.3    12  LYS12      -0.1245
      2  CA       -23.1810    8.2120   16.5410 C.3    12  LYS12       0.1561
      3  C        -24.2120    7.0910   16.4830 C.2    12  LYS12       0.2260
      4  O        -23.9910    6.0340   17.0610 O.2    12  LYS12      -0.2867
      5  CB       -23.5950    9.2930   17.5550 C.3    12  LYS12       0.0271
      6  CG       -22.5410   10.4100   17.8180 C.3    12  LYS12       0.0035
      7  CD       -23.1470   11.6800   18.4640 C.3    12  LYS12       0.0206
      8  CE       -23.8530   12.6780   17.5310 C.3    12  LYS12       0.1093
      9  NZ       -25.0470   12.2190   16.8120 N.3    12  LYS12      -0.1314
     10  N        -23.3630    3.1330   17.5310 N.3    16  GLN16      -0.1245
     11  CA       -24.1410    2.4270   18.5370 C.3    16  GLN16       0.1566
     12  C        -24.7810    1.1450   18.0400 C.2    16  GLN16       0.2260
     13  O        -24.8370    0.1700   18.7820 O.2    16  GLN16      -0.2867
     14  CB       -25.2070    3.3550   19.1280 C.3    16  GLN16       0.0367
     15  CG       -24.6230    4.4860   19.9670 C.3    16  GLN16       0.0905
     16  CD       -23.9060    3.9800   21.2030 C.2    16  GLN16       0.2608
     17  OE1      -24.3510    3.0250   21.8370 O.2    16  GLN16      -0.2717
     18  NE2      -22.7980    4.6140   21.5530 N.am   16  GLN16      -0.0878
     19  N        -27.1250    8.9650   33.9970 N.3   125  GLN125     -0.1245
     20  CA       -26.1520    8.1650   33.2610 C.3   125  GLN125      0.1566
     21  C        -24.8410    8.0130   34.0000 C.2   125  GLN125      0.2260
     22  O        -24.2330    6.9520   33.9650 O.2   125  GLN125     -0.2867
     23  CB       -25.8230    8.8050   31.9280 C.3   125  GLN125      0.0367
     24  CG       -26.9140    8.7410   30.9020 C.3   125  GLN125      0.0905
     25  CD       -26.4170    9.3270   29.6030 C.2   125  GLN125      0.2608
     26  OE1      -25.4700    8.8210   29.0100 O.2   125  GLN125     -0.2717
     27  NE2      -27.0260   10.4120   29.1780 N.am  125  GLN125     -0.0878
     28  N        -23.0510    2.8830   25.3100 N.3   199  MET199     -0.1196
     29  CA       -24.2140    3.7190   24.9740 C.3   199  MET199      0.1786
     30  C        -24.2990    4.9610   25.8720 C.2   199  MET199      0.2306
     31  O        -25.0150    5.9090   25.5630 O.2   199  MET199     -0.2863
     32  CB       -25.5130    2.8990   25.0930 C.2   199  MET199      0.0070
     33  CG       -26.7580    3.5680   24.5090 C.2   199  MET199      0.0282
     34  SD       -28.3190    2.7170   24.8430 S.3   199  MET199     -0.1125
     35  CE       -28.1280    2.3720   26.5760 C.3   199  MET199      0.0742
     36  N        -22.8670    8.2910   27.5800 N.3   201  ASP201     -0.1239
     37  CA       -21.8250    9.3180   27.5530 C.3   201  ASP201      0.1674
     38  C        -21.6800   10.0650   28.8770 C.2   201  ASP201      0.2266
     39  O        -20.7480   10.8460   29.0300 O.2   201  ASP201     -0.2867
     40  CB       -22.0010   10.2910   26.3770 C.3   201  ASP201      0.1410
     41  CG       -23.2580   11.1500   26.4700 C.2   201  ASP201      0.3668
     42  OD1      -24.0630   11.0130   27.4210 O.co2 201  ASP201     -0.2456
     43  OD2      -23.4460   11.9740   25.5470 O.co2 201  ASP201     -0.2456
     44  N        -24.0180   12.0380   30.0470 N.3   203  GLY203     -0.1210
     45  CA       -24.6450   13.3270   29.7600 C.3   203  GLY203      0.1956
     46  C        -25.8770   13.6590   30.5790 C.2   203  GLY203      0.2612
     47  O        -26.1530   13.0320   31.5990 O.2   203  GLY203     -0.2717
     48  N        -26.6330   14.6520   30.1110 N.am  204  ASP204     -0.1959
     49  CA       -27.7910   15.1530   30.8570 C.3   204  ASP204      0.1840
     50  C        -29.1070   14.4110   30.6080 C.2   204  ASP204      0.2622
     51  O        -30.0500   14.5660   31.3800 O.2   204  ASP204     -0.2715
     52  CB       -27.9740   16.6460   30.5940 C.3   204  ASP204      0.1450
     53  CG       -26.8020   17.4590   31.0780 C.2   204  ASP204      0.3671
     54  OD1      -26.0070   16.9510   31.9070 O.co2 204  ASP204     -0.2456
     55  OD2      -26.6810   18.6110   30.6480 O.co2 204  ASP204     -0.2456
     56  N        -29.1700   13.6010   29.5580 N.am  205  ASN205     -0.1972
     57  CA       -30.3280   12.7270   29.3410 C.3   205  ASN205      0.1688
     58  C        -30.4270   11.6610   30.4300 C.2   205  ASN205      0.2292
     59  O        -29.4520   10.9660   30.6600 O.2   205  ASN205     -0.2864
     60  CB       -30.2120   11.9920   28.0000 C.3   205  ASN205      0.1181
     61  CG       -30.3740   12.9010   26.8110 C.2   205  ASN205      0.2629
     62  OD1      -29.7180   12.7370   25.7790 O.2   205  ASN205     -0.2716
     63  ND2      -31.2430   13.8570   26.9500 N.am  205  ASN205     -0.0877
     64  N        -31.8690    5.7940   26.6690 N.3   220  VAL220     -0.1231
     65  CA       -31.3330    7.1310   26.8800 C.3   220  VAL220      0.1692
     66  C        -31.4800    7.9040   25.5790 C.2   220  VAL220      0.2593
     67  O        -30.9690    7.4940   24.5340 O.2   220  VAL220     -0.2718
     68  CB       -29.8750    7.1290   27.3890 C.3   220  VAL220      0.0266
     69  CG1      -28.9470    6.3570   26.4610 C.3   220  VAL220      0.0020
     70  CG2      -29.3860    8.5600   27.5720 C.3   220  VAL220      0.0020
     71  N        -32.2140    9.0100   25.6450 N.am  221  GLY221     -0.1942
     72  CA       -32.4100    9.8690   24.4790 C.3   221  GLY221      0.2014
     73  C        -32.8890    9.1000   23.2700 C.2   221  GLY221      0.2639
     74  O        -33.9420    8.4700   23.3080 O.2   221  GLY221     -0.2714
     75  N        -32.0860    9.1280   22.2120 N.am  222  ASP222     -0.1957
     76  CA       -32.4500    8.5370   20.9200 C.3   222  ASP222      0.1840
     77  C        -32.0820    7.0630   20.8120 C.2   222  ASP222      0.2622
     78  O        -32.1640    6.4910   19.7220 O.2   222  ASP222     -0.2715
     79  CB       -31.7380    9.2870   19.7880 C.3   222  ASP222      0.1450
     80  CG       -32.3340   10.6460   19.5020 C.2   222  ASP222      0.3671
     81  OD1      -33.5630   10.8150   19.6200 O.co2 222  ASP222     -0.2456
     82  OD2      -31.5520   11.5390   19.1160 O.co2 222  ASP222     -0.2456
     83  N        -31.6880    6.4420   21.9210 N.am  223  PHE223     -0.1974
     84  CA       -31.1400    5.0860   21.8840 C.3   223  PHE223      0.1639
     85  C        -31.8600    4.1430   22.8180 C.2   223  PHE223      0.2290
     86  O        -32.1440    4.4990   23.9570 O.2   223  PHE223     -0.2864
     87  CB       -29.6620    5.1400   22.2330 C.3   223  PHE223      0.0560
     88  CG       -28.8790    5.9580   21.2650 C.ar  223  PHE223     -0.0200
     89  CD1      -28.7860    7.3300   21.4140 C.ar  223  PHE223     -0.0042
     90  CD2      -28.3230    5.3680   20.1440 C.ar  223  PHE223     -0.0042
     91  CE1      -28.0920    8.0920   20.4910 C.ar  223  PHE223     -0.0003
     92  CE2      -27.6280    6.1180   19.2210 C.ar  223  PHE223     -0.0003
     93  CZ       -27.5060    7.4800   19.3950 C.ar  223  PHE223     -0.0000
@<TRIPOS>BOND
     1     1     2    1
     2     3     2    1
     3     3     4    2
     4     2     5    1
     5     9     8    1
     6     8     7    1
     7    10    11    1
     8     5     6    1
     9     6     7    1
    10    12    11    1
    11    12    13    2
    12    11    14    1
    13    82    80   ar
    14    14    15    1
    15    92    93   ar
    16    92    90   ar
    17    93    91   ar
    18    80    81   ar
    19    80    79    1
    20    78    77    2
    21    79    76    1
    22    15    16    1
    23    90    88   ar
    24    91    89   ar
    25    77    76    1
    26    77    83   am
    27    76    75    1
    28    16    18   am
    29    16    17    2
    30    88    89   ar
    31    88    87    1
    32    84    83    1
    33    84    87    1
    34    84    85    1
    35    75    73   am
    36    85    86    2
    37    73    74    2
    38    73    72    1
    39    72    71    1
    40    33    34    1
    41    33    32    2
    42    67    66    2
    43    34    35    1
    44    29    32    1
    45    29    28    1
    46    29    30    1
    47    43    41   ar
    48    31    30    2
    49    66    71   am
    50    66    65    1
    51    62    61    2
    52    40    41    1
    53    40    37    1
    54    69    68    1
    55    41    42   ar
    56    64    65    1
    57    61    63   am
    58    61    60    1
    59    65    68    1
    60    68    70    1
    61    37    36    1
    62    37    38    1
    63    60    57    1
    64    38    39    2
    65    26    25    2
    66    27    25   am
    67    57    56    1
    68    57    58    1
    69    56    50   am
    70    25    24    1
    71    45    44    1
    72    45    46    1
    73    48    46   am
    74    48    49    1
    75    58    59    2
    76    46    47    2
    77    52    49    1
    78    52    53    1
    79    50    49    1
    80    50    51    2
    81    55    53   ar
    82    24    23    1
    83    53    54   ar
    84    23    20    1
    85    20    19    1
    86    20    21    1
    87    22    21    2
