@<TRIPOS>MOLECULE
tmp/4k3mA00.pdb
 117 111 0 0 0
SMALL
GASTEIGER

@<TRIPOS>ATOM
      1  N         12.4580  -13.7800   -2.5830 N.3   145  ARG145     -0.1245
      2  CA        13.6210  -12.9760   -2.9410 C.3   145  ARG145      0.1563
      3  C         13.9600  -12.1180   -1.7360 C.2   145  ARG145      0.2260
      4  O         13.3930  -11.0320   -1.5650 O.2   145  ARG145     -0.2867
      5  CB        13.3560  -12.1190   -4.1820 C.3   145  ARG145      0.0307
      6  CG        12.7860  -12.8910   -5.3560 C.3   145  ARG145      0.0489
      7  CD        11.3420  -12.4850   -5.5800 C.3   145  ARG145      0.2205
      8  NE        11.2100  -11.6600   -6.7640 N.pl3 145  ARG145     -0.0865
      9  CZ        10.1340  -10.9470   -7.0830 C.cat 145  ARG145      0.5346
     10  NH1        9.0650  -10.9120   -6.2890 N.pl3 145  ARG145      0.1354
     11  NH2       10.1480  -10.2440   -8.2020 N.pl3 145  ARG145      0.1354
     12  N         16.2920  -10.2070   -0.7150 N.3   147  TYR147     -0.1227
     13  CA        16.8250   -8.8570   -0.8810 C.3   147  TYR147      0.1736
     14  C         15.7120   -7.8090   -1.0110 C.2   147  TYR147      0.2595
     15  O         15.9300   -6.6400   -0.6840 O.2   147  TYR147     -0.2718
     16  CB        17.8040   -8.7900   -2.0680 C.3   147  TYR147      0.0548
     17  CG        17.2600   -9.3680   -3.3550 C.ar  147  TYR147     -0.0200
     18  CD1       16.5060   -8.5850   -4.2250 C.ar  147  TYR147     -0.0009
     19  CD2       17.5010  -10.7040   -3.7090 C.ar  147  TYR147     -0.0009
     20  CE1       15.9930   -9.1060   -5.3930 C.ar  147  TYR147      0.0417
     21  CE2       16.9960  -11.2320   -4.8860 C.ar  147  TYR147      0.0417
     22  CZ        16.2410  -10.4260   -5.7220 C.ar  147  TYR147      0.1957
     23  OH        15.7170  -10.9130   -6.8960 O.3   147  TYR147     -0.2866
     24  N         14.5330   -8.2360   -1.4710 N.am  148  LEU148     -0.1980
     25  CA        13.3660   -7.3460   -1.5970 C.3   148  LEU148      0.1596
     26  C         12.7190   -7.0520   -0.2530 C.2   148  LEU148      0.2287
     27  O         11.9260   -6.1180   -0.1270 O.2   148  LEU148     -0.2864
     28  CB        12.3160   -7.9290   -2.5580 C.3   148  LEU148      0.0297
     29  CG        12.7170   -8.0270   -4.0310 C.3   148  LEU148      0.0022
     30  CD1       11.5160   -8.4320   -4.8750 C.3   148  LEU148      0.0001
     31  CD2       13.3120   -6.7130   -4.5340 C.3   148  LEU148      0.0001
     32  N         11.0000   -2.0420   -3.0090 N.3   165  THR165     -0.1218
     33  CA        10.0530   -2.5880   -3.9730 C.3   165  THR165      0.1862
     34  C          9.6940   -4.0270   -3.6060 C.2   165  THR165      0.2287
     35  O         10.5030   -4.7460   -3.0050 O.2   165  THR165     -0.2866
     36  CB        10.6010   -2.4880   -5.4240 C.3   165  THR165      0.1770
     37  OG1        9.6040   -2.9150   -6.3630 O.3   165  THR165     -0.2211
     38  CG2       11.8590   -3.3360   -5.5970 C.3   165  THR165      0.0375
     39  N          8.2100   -5.8580   -6.1820 N.3   167  GLY167     -0.1210
     40  CA         7.8860   -6.3310   -7.5370 C.3   167  GLY167      0.1956
     41  C          6.6360   -5.7330   -8.1700 C.2   167  GLY167      0.2612
     42  O          6.5430   -5.6410   -9.3980 O.2   167  GLY167     -0.2717
     43  N          5.6660   -5.3320   -7.3480 N.am  168  HIS168     -0.1961
     44  CA         4.4140   -4.7830   -7.8710 C.3   168  HIS168      0.1787
     45  C          4.4150   -3.2610   -7.8580 C.2   168  HIS168      0.2620
     46  O          3.8350   -2.6150   -8.7440 O.2   168  HIS168     -0.2715
     47  CB         3.2210   -5.3020   -7.0760 C.3   168  HIS168      0.0785
     48  CG         3.2130   -6.7890   -6.8960 C.ar  168  HIS168      0.0821
     49  ND1        3.0400   -7.6630   -7.9470 N.ar  168  HIS168     -0.2267
     50  CD2        3.3640   -7.5530   -5.7890 C.ar  168  HIS168      0.1154
     51  CE1        3.0740   -8.9040   -7.4930 C.ar  168  HIS168      0.1986
     52  NE2        3.2780   -8.8640   -6.1870 N.ar  168  HIS168     -0.2212
     53  N          5.0510   -2.7030   -6.8360 N.am  169  ARG169     -0.1963
     54  CA         5.1840   -1.2650   -6.7050 C.3   169  ARG169      0.1729
     55  C          6.5890   -0.9480   -6.2240 C.2   169  ARG169      0.2616
     56  O          7.2410   -1.7830   -5.5920 O.2   169  ARG169     -0.2715
     57  CB         4.1190   -0.6980   -5.7550 C.3   169  ARG169      0.0348
     58  CG         3.7380   -1.5900   -4.5810 C.3   169  ARG169      0.0492
     59  CD         4.6190   -1.3600   -3.3580 C.3   169  ARG169      0.2205
     60  NE         4.1190   -2.1090   -2.2030 N.pl3 169  ARG169     -0.0865
     61  CZ         3.1680   -1.6760   -1.3740 C.cat 169  ARG169      0.5346
     62  NH1        2.6130   -0.4760   -1.5440 N.pl3 169  ARG169      0.1354
     63  NH2        2.7930   -2.4370   -0.3540 N.pl3 169  ARG169      0.1354
     64  N          7.0470    0.2560   -6.5200 N.am  170  LEU170     -0.1977
     65  CA         8.3840    0.6850   -6.1250 C.3   170  LEU170      0.1596
     66  C          8.3490    2.1090   -5.5920 C.2   170  LEU170      0.2287
     67  O          7.5540    2.9170   -6.0530 O.2   170  LEU170     -0.2864
     68  CB         9.3470    0.5830   -7.3200 C.3   170  LEU170      0.0297
     69  CG        10.7820    1.1100   -7.2010 C.3   170  LEU170      0.0022
     70  CD1       11.7440    0.2670   -8.0170 C.3   170  LEU170      0.0001
     71  CD2       10.9050    2.5880   -7.5920 C.3   170  LEU170      0.0001
     72  N         16.8780   -4.9130   -7.8030 N.3   235  PRO235     -0.2116
     73  CA        16.4860   -4.3170   -9.0970 C.3   235  PRO235      0.1372
     74  C         16.9010   -2.8540   -9.2570 C.2   235  PRO235      0.2244
     75  O         17.0440   -2.1310   -8.2660 O.2   235  PRO235     -0.2868
     76  CB        14.9530   -4.4340   -9.0980 C.3   235  PRO235      0.0268
     77  CG        14.5820   -4.7170   -7.6820 C.3   235  PRO235      0.0207
     78  CD        15.7200   -5.4970   -7.1070 C.3   235  PRO235      0.0892
     79  N         15.3620    1.2780  -14.5110 N.3   239  ARG239     -0.1231
     80  CA        14.7090    0.4080  -15.4900 C.3   239  ARG239      0.1694
     81  C         13.2100    0.2670  -15.2110 C.2   239  ARG239      0.2591
     82  O         12.4720   -0.3210  -15.9990 O.2   239  ARG239     -0.2718
     83  CB        15.3760   -0.9710  -15.5160 C.3   239  ARG239      0.0321
     84  CG        16.8980   -0.9390  -15.6470 C.3   239  ARG239      0.0489
     85  CD        17.3700   -0.3390  -16.9650 C.3   239  ARG239      0.2205
     86  NE        16.8660   -1.0700  -18.1290 N.pl3 239  ARG239     -0.0865
     87  CZ        17.0460   -0.6840  -19.3940 C.cat 239  ARG239      0.5346
     88  NH1       17.7170    0.4240  -19.6710 N.pl3 239  ARG239      0.1354
     89  NH2       16.5500   -1.4050  -20.3860 N.pl3 239  ARG239      0.1354
     90  N         12.7610    0.8160  -14.0880 N.am  240  VAL240     -0.1980
     91  CA        11.3660    0.6850  -13.6730 C.3   240  VAL240      0.1595
     92  C         10.5880    1.9890  -13.9020 C.2   240  VAL240      0.2287
     93  O          9.3880    1.9580  -14.1860 O.2   240  VAL240     -0.2864
     94  CB        11.2740    0.2080  -12.2040 C.3   240  VAL240      0.0276
     95  CG1        9.8390    0.2290  -11.6940 C.3   240  VAL240      0.0022
     96  CG2       11.8840   -1.1860  -12.0660 C.3   240  VAL240      0.0022
     97  N          2.9140    0.7880  -16.3480 N.3   339  SER339     -0.1217
     98  CA         2.9340    1.3310  -14.9860 C.3   339  SER339      0.1889
     99  C          2.6730    2.8500  -14.9590 C.2   339  SER339      0.2288
    100  O          2.7960    3.5240  -15.9910 O.2   339  SER339     -0.2866
    101  CB         4.2550    0.9740  -14.2950 C.3   339  SER339      0.2089
    102  OG         5.3510    1.6170  -14.9310 O.3   339  SER339     -0.2183
    103  N          6.2780    4.0530   -8.3870 N.3   353  VAL353     -0.1245
    104  CA         5.8550    3.3730   -9.6090 C.3   353  VAL353      0.1561
    105  C          4.9290    2.2250   -9.2300 C.2   353  VAL353      0.2260
    106  O          5.2580    1.4170   -8.3590 O.2   353  VAL353     -0.2867
    107  CB         7.0510    2.8840  -10.4640 C.3   353  VAL353      0.0252
    108  CG1        6.5730    2.3580  -11.8170 C.3   353  VAL353      0.0019
    109  CG2        8.0550    4.0060  -10.6840 C.3   353  VAL353      0.0019
    110  N          2.4610   -0.8760  -10.8860 N.3   355  MET355     -0.1245
    111  CA         2.0460   -1.6710  -12.0460 C.3   355  MET355      0.1570
    112  C          0.5280   -1.6640  -12.2120 C.2   355  MET355      0.2261
    113  O         -0.2020   -1.6570  -11.2170 O.2   355  MET355     -0.2867
    114  CB         2.5510   -3.1190  -11.9360 C.3   355  MET355      0.0387
    115  CG         3.8980   -3.3590  -12.6060 C.3   355  MET355      0.0595
    116  SD         3.8060   -3.6170  -14.3950 S.3   355  MET355     -0.1393
    117  CE         5.1290   -2.5860  -15.0190 C.3   355  MET355      0.0692
@<TRIPOS>BOND
     1    89    87    1
     2    88    87    1
     3    87    86    2
     4    86    85    1
     5    85    84    1
     6    97    98    1
     7    82    81    2
     8   100    99    2
     9    84    83    1
    10    83    80    1
    11    80    81    1
    12    80    79    1
    13    81    90   am
    14   117   116    1
    15    98    99    1
    16    98   101    1
    17   102   101    1
    18   116   115    1
    19    93    92    2
    20    90    91    1
    21    92    91    1
    22    91    94    1
    23   115   114    1
    24   112   111    1
    25   112   113    2
    26    94    96    1
    27    94    95    1
    28   111   114    1
    29   111   110    1
    30   108   107    1
    31   109   107    1
    32   107   104    1
    33   104   105    1
    34   104   103    1
    35    42    41    2
    36    74    73    1
    37    74    75    2
    38   105   106    2
    39    76    73    1
    40    76    77    1
    41    73    72    1
    42    46    45    2
    43    11     9    1
    44    41    40    1
    45    41    43   am
    46    70    69    1
    47    49    51   ar
    48    49    48   ar
    49    44    45    1
    50    44    43    1
    51    44    47    1
    52    45    53   am
    53    72    78    1
    54    77    78    1
    55    71    69    1
    56    40    39    1
    57    51    52   ar
    58    68    69    1
    59    68    65    1
    60     9     8    2
    61     9    10    1
    62    47    48    1
    63    23    22    1
    64    48    50   ar
    65    53    54    1
    66     8     7    1
    67    54    55    1
    68    54    57    1
    69    64    55   am
    70    64    65    1
    71    37    36    1
    72    55    56    2
    73    52    50   ar
    74    65    66    1
    75    67    66    2
    76    57    58    1
    77    22    20   ar
    78    22    21   ar
    79    38    36    1
    80     7     6    1
    81    36    33    1
    82    20    18   ar
    83     6     5    1
    84    21    19   ar
    85    30    29    1
    86    58    59    1
    87    31    29    1
    88    18    17   ar
    89     5     2    1
    90    29    28    1
    91    33    34    1
    92    33    32    1
    93    19    17   ar
    94    34    35    2
    95    59    60    1
    96    17    16    1
    97     2     1    1
    98     2     3    1
    99    28    25    1
   100    60    61    2
   101    16    13    1
   102     3     4    2
   103    25    24    1
   104    25    26    1
   105    62    61    1
   106    24    14   am
   107    61    63    1
   108    14    13    1
   109    14    15    2
   110    13    12    1
   111    26    27    2
