@<TRIPOS>MOLECULE
tmp/4k3mB01.pdb
 84 79 0 0 0
SMALL
GASTEIGER

@<TRIPOS>ATOM
      1  N        -23.3360    3.2100   17.1550 N.3    16  GLN16      -0.1231
      2  CA       -24.1190    2.5030   18.1710 C.3    16  GLN16       0.1698
      3  C        -24.7710    1.2150   17.6860 C.2    16  GLN16       0.2592
      4  O        -24.8220    0.2290   18.4250 O.2    16  GLN16      -0.2718
      5  CB       -25.1700    3.4300   18.7850 C.3    16  GLN16       0.0381
      6  CG       -24.5650    4.5930   19.5590 C.3    16  GLN16       0.0905
      7  CD       -23.8220    4.1330   20.8040 C.2    16  GLN16       0.2608
      8  OE1      -24.2750    3.2270   21.5070 O.2    16  GLN16      -0.2717
      9  NE2      -22.6790    4.7480   21.0780 N.am   16  GLN16      -0.0878
     10  N        -25.2650    1.2090   16.4480 N.am   17  VAL17      -0.1966
     11  CA       -25.9590    0.0200   15.9420 C.3    17  VAL17       0.1727
     12  C        -25.0170   -1.0510   15.3700 C.2    17  VAL17       0.2616
     13  O        -25.4300   -2.2000   15.1740 O.2    17  VAL17      -0.2715
     14  CB       -27.1130    0.3740   14.9740 C.3    17  VAL17       0.0290
     15  CG1      -28.1220    1.2640   15.6930 C.3    17  VAL17       0.0023
     16  CG2      -26.5960    1.0580   13.7200 C.3    17  VAL17       0.0023
     17  N        -23.7640   -0.6680   15.1250 N.am   18  SER18      -0.1950
     18  CA       -22.7110   -1.6010   14.6930 C.3    18  SER18       0.1924
     19  C        -22.1920   -2.4570   15.8510 C.2    18  SER18       0.2314
     20  O        -21.7380   -3.5890   15.6350 O.2    18  SER18      -0.2863
     21  CB       -21.5500   -0.8390   14.0560 C.3    18  SER18       0.2116
     22  OG       -22.0010   -0.0990   12.9320 O.3    18  SER18      -0.2180
     23  N        -29.3990   -2.6620   14.6730 N.3    38  GLY38      -0.1210
     24  CA       -28.4200   -3.7360   14.6080 C.3    38  GLY38       0.1956
     25  C        -28.7530   -4.8160   15.6260 C.2    38  GLY38       0.2613
     26  O        -29.3030   -4.5240   16.7040 O.2    38  GLY38      -0.2717
     27  N        -28.4310   -6.0680   15.2960 N.am   39  THR39      -0.1938
     28  CA       -28.6850   -7.1810   16.2170 C.3    39  THR39       0.2028
     29  C        -27.7300   -8.3450   15.9830 C.2    39  THR39       0.2642
     30  O        -27.2440   -8.5420   14.8600 O.2    39  THR39      -0.2714
     31  CB       -30.1530   -7.6820   16.1440 C.3    39  THR39       0.1808
     32  OG1      -30.3840   -8.6630   17.1700 O.3    39  THR39      -0.2208
     33  CG2      -30.4600   -8.3170   14.7780 C.3    39  THR39       0.0379
     34  N        -27.4780   -9.1140   17.0440 N.am   40  ASP40      -0.1971
     35  CA       -26.7530  -10.3810   16.9360 C.3    40  ASP40       0.1709
     36  C        -27.6100  -11.5420   17.4490 C.2    40  ASP40       0.2293
     37  O        -27.1010  -12.6260   17.7270 O.2    40  ASP40      -0.2864
     38  CB       -25.4010  -10.3120   17.6630 C.3    40  ASP40       0.1436
     39  CG       -25.5320  -10.3140   19.1940 C.2    40  ASP40       0.3671
     40  OD1      -26.6550  -10.2260   19.7340 O.co2  40  ASP40      -0.2456
     41  OD2      -24.4880  -10.4100   19.8650 O.co2  40  ASP40      -0.2456
     42  N        -28.7380   -9.5260   21.5300 N.3    43  MET43      -0.1230
     43  CA       -29.0180   -8.1420   21.8720 C.3    43  MET43       0.1702
     44  C        -29.2190   -7.3130   20.6200 C.2    43  MET43       0.2592
     45  O        -28.8300   -7.7130   19.5230 O.2    43  MET43      -0.2718
     46  CB       -27.8940   -7.5490   22.7240 C.3    43  MET43       0.0401
     47  CG       -26.5500   -7.4370   22.0170 C.3    43  MET43       0.0596
     48  SD       -25.2040   -7.3310   23.2050 S.3    43  MET43      -0.1393
     49  CE       -25.4340   -8.9060   24.0450 C.3    43  MET43       0.0692
     50  N        -29.8120   -6.1400   20.8020 N.am   44  GLU44      -0.1966
     51  CA       -30.2370   -5.3190   19.6970 C.3    44  GLU44       0.1733
     52  C        -30.0690   -3.8570   20.0890 C.2    44  GLU44       0.2616
     53  O        -30.2870   -3.4960   21.2470 O.2    44  GLU44      -0.2715
     54  CB       -31.7000   -5.6440   19.3990 C.3    44  GLU44       0.0429
     55  CG       -32.4680   -4.5680   18.6590 C.3    44  GLU44       0.1163
     56  CD       -33.9540   -4.7980   18.7400 C.2    44  GLU44       0.3649
     57  OE1      -34.6210   -4.0850   19.5140 O.co2  44  GLU44      -0.2457
     58  OE2      -34.4400   -5.7020   18.0390 O.co2  44  GLU44      -0.2457
     59  N        -29.6520   -3.0320   19.1360 N.am   45  MET45      -0.1977
     60  CA       -29.6200   -1.5880   19.3350 C.3    45  MET45       0.1605
     61  C        -30.4680   -0.8900   18.2720 C.2    45  MET45       0.2287
     62  O        -30.3490   -1.1890   17.0740 O.2    45  MET45      -0.2864
     63  CB       -28.1780   -1.0680   19.3000 C.3    45  MET45       0.0413
     64  CG       -28.0500    0.4310   19.5520 C.3    45  MET45       0.0598
     65  SD       -28.3620    0.8610   21.2800 S.3    45  MET45      -0.1393
     66  CE       -26.8080    0.3230   21.9910 C.3    45  MET45       0.0692
     67  N        -21.0220   -9.1570   26.6690 N.3   190  LYS190     -0.1245
     68  CA       -21.1240   -8.3430   25.4480 C.3   190  LYS190      0.1561
     69  C        -22.1790   -7.2440   25.6100 C.2   190  LYS190      0.2260
     70  O        -22.0260   -6.1280   25.1010 O.2   190  LYS190     -0.2867
     71  CB       -21.4410   -9.2100   24.2240 C.3   190  LYS190      0.0271
     72  CG       -21.5100   -8.5100   22.8960 C.3   190  LYS190      0.0035
     73  CD       -20.1290   -8.1320   22.4650 C.3   190  LYS190      0.0206
     74  CE       -20.1200   -7.6840   21.0000 C.3   190  LYS190      0.1093
     75  NZ       -20.7170   -6.3710   20.8290 N.3   190  LYS190     -0.1314
     76  N        -21.7090   -3.2030   25.3550 N.3   194  GLU194     -0.1245
     77  CA       -22.5720   -2.4140   24.4580 C.3   194  GLU194      0.1567
     78  C        -23.3360   -1.3160   25.2150 C.2   194  GLU194      0.2260
     79  O        -23.4100   -0.1730   24.7610 O.2   194  GLU194     -0.2867
     80  CB       -23.5300   -3.3160   23.6720 C.3   194  GLU194      0.0388
     81  CG       -24.2590   -2.6010   22.5410 C.3   194  GLU194      0.1160
     82  CD       -24.8960   -3.5540   21.5380 C.2   194  GLU194      0.3649
     83  OE1      -24.2180   -4.5070   21.1050 O.co2 194  GLU194     -0.2457
     84  OE2      -26.0750   -3.3400   21.1650 O.co2 194  GLU194     -0.2457
@<TRIPOS>BOND
     1    22    21    1
     2    16    14    1
     3    21    18    1
     4    24    23    1
     5    24    25    1
     6    18    17    1
     7    18    19    1
     8    33    31    1
     9    30    29    2
    10    14    15    1
    11    14    11    1
    12    17    12   am
    13    13    12    2
    14    27    25   am
    15    27    28    1
    16    12    11    1
    17    25    26    2
    18    20    19    2
    19    11    10    1
    20    29    28    1
    21    29    34   am
    22    31    28    1
    23    31    32    1
    24    10     3   am
    25    35    34    1
    26    35    36    1
    27    35    38    1
    28    62    61    2
    29     1     2    1
    30    36    37    2
    31    38    39    1
    32     3     2    1
    33     3     4    2
    34    58    56   ar
    35     2     5    1
    36    61    60    1
    37    55    56    1
    38    55    54    1
    39    56    57   ar
    40     5     6    1
    41    59    60    1
    42    59    52   am
    43    39    40   ar
    44    39    41   ar
    45    63    60    1
    46    63    64    1
    47    54    51    1
    48    45    44    2
    49    64    65    1
    50     6     7    1
    51    51    52    1
    52    51    50    1
    53    52    53    2
    54    44    50   am
    55    44    43    1
    56     7     9   am
    57     7     8    2
    58    75    74    1
    59    74    73    1
    60    83    82   ar
    61    84    82   ar
    62    65    66    1
    63    42    43    1
    64    82    81    1
    65    43    46    1
    66    47    46    1
    67    47    48    1
    68    73    72    1
    69    81    80    1
    70    72    71    1
    71    48    49    1
    72    80    77    1
    73    71    68    1
    74    77    78    1
    75    77    76    1
    76    79    78    2
    77    70    69    2
    78    68    69    1
    79    68    67    1
