@<TRIPOS>MOLECULE
tmp/4k3nJ05.pdb
 83 79 0 0 0
SMALL
GASTEIGER

@<TRIPOS>ATOM
      1  N         49.4550   23.0860  128.4910 N.3   277  LYS277     -0.1245
      2  CA        50.6860   23.8520  128.2870 C.3   277  LYS277      0.1561
      3  C         51.7300   23.5240  129.3570 C.2   277  LYS277      0.2260
      4  O         51.4120   23.4330  130.5490 O.2   277  LYS277     -0.2867
      5  CB        50.4000   25.3560  128.2700 C.3   277  LYS277      0.0271
      6  CG        49.8960   25.8400  126.9390 C.3   277  LYS277      0.0035
      7  CD        49.6620   27.3430  126.9400 C.3   277  LYS277      0.0206
      8  CE        49.5370   27.9700  125.6150 C.3   277  LYS277      0.1093
      9  NZ        48.4580   27.5090  124.7550 N.3   277  LYS277     -0.1314
     10  N         56.6140   23.7940  126.3750 N.3   389  ASP389     -0.1225
     11  CA        56.1890   24.6290  125.2650 C.3   389  ASP389      0.1805
     12  C         56.9040   25.9730  125.2870 C.2   389  ASP389      0.2597
     13  O         57.2110   26.5330  124.2290 O.2   389  ASP389     -0.2718
     14  CB        54.6840   24.8670  125.3350 C.3   389  ASP389      0.1424
     15  CG        53.8800   23.5880  125.1870 C.2   389  ASP389      0.3668
     16  OD1       53.9200   22.9910  124.0950 O.co2 389  ASP389     -0.2456
     17  OD2       53.2090   23.1870  126.1620 O.co2 389  ASP389     -0.2456
     18  N         57.1370   26.4930  126.4930 N.am  390  TYR390     -0.1976
     19  CA        57.7850   27.7950  126.6720 C.3   390  TYR390      0.1639
     20  C         58.8480   27.7210  127.7540 C.2   390  TYR390      0.2290
     21  O         58.6390   27.1020  128.8020 O.2   390  TYR390     -0.2864
     22  CB        56.7800   28.8790  127.0850 C.3   390  TYR390      0.0560
     23  CG        55.6050   29.0800  126.1530 C.ar  390  TYR390     -0.0198
     24  CD1       55.7980   29.3870  124.8120 C.ar  390  TYR390     -0.0009
     25  CD2       54.3000   28.9830  126.6260 C.ar  390  TYR390     -0.0009
     26  CE1       54.7210   29.5780  123.9590 C.ar  390  TYR390      0.0417
     27  CE2       53.2110   29.1690  125.7850 C.ar  390  TYR390      0.0417
     28  CZ        53.4280   29.4680  124.4510 C.ar  390  TYR390      0.1957
     29  OH        52.3560   29.6510  123.6060 O.3   390  TYR390     -0.2866
     30  N         63.4510   34.3810  121.0000 N.3   415  ASN415     -0.1225
     31  CA        63.5900   33.7340  119.6950 C.3   415  ASN415      0.1785
     32  C         62.2250   33.4880  119.0570 C.2   415  ASN415      0.2597
     33  O         62.1310   32.8330  118.0240 O.2   415  ASN415     -0.2718
     34  CB        64.3580   32.4040  119.8140 C.3   415  ASN415      0.1169
     35  CG        63.5790   31.3270  120.5950 C.2   415  ASN415      0.2627
     36  OD1       62.4190   31.5200  120.9820 O.2   415  ASN415     -0.2716
     37  ND2       64.2240   30.1900  120.8330 N.am  415  ASN415     -0.0877
     38  N         61.1700   33.9950  119.6910 N.am  416  ASN416     -0.1974
     39  CA        59.7980   33.6790  119.2700 C.3   416  ASN416      0.1688
     40  C         58.8600   34.8590  119.5110 C.2   416  ASN416      0.2292
     41  O         58.5680   35.2060  120.6550 O.2   416  ASN416     -0.2864
     42  CB        59.3030   32.4100  120.0000 C.3   416  ASN416      0.1181
     43  CG        57.9430   31.9250  119.5040 C.2   416  ASN416      0.2629
     44  OD1       56.9020   32.4150  119.9360 O.2   416  ASN416     -0.2716
     45  ND2       57.9510   30.9320  118.6220 N.am  416  ASN416     -0.0877
     46  N         55.6410   35.3190  119.1650 N.3   418  GLU418     -0.1245
     47  CA        54.4320   34.9920  119.9120 C.3   418  GLU418      0.1567
     48  C         54.6480   35.0270  121.4270 C.2   418  GLU418      0.2260
     49  O         53.8550   35.6170  122.1620 O.2   418  GLU418     -0.2867
     50  CB        53.9130   33.6160  119.4860 C.3   418  GLU418      0.0388
     51  CG        52.6840   33.1400  120.2510 C.3   418  GLU418      0.1160
     52  CD        52.5510   31.6570  120.3500 C.2   418  GLU418      0.3649
     53  OE1       53.3490   31.0090  120.9960 O.co2 418  GLU418     -0.2457
     54  OE2       51.6060   31.1190  119.7370 O.co2 418  GLU418     -0.2457
     55  N         67.6480   24.9080  121.6730 N.3   477  GLN477     -0.1231
     56  CA        67.7200   24.4790  120.2830 C.3   477  GLN477      0.1698
     57  C         66.4170   24.6230  119.5140 C.2   477  GLN477      0.2592
     58  O         66.3990   25.1340  118.3950 O.2   477  GLN477     -0.2718
     59  CB        68.2680   23.0490  120.1570 C.3   477  GLN477      0.0381
     60  CG        69.6970   22.8580  120.6440 C.3   477  GLN477      0.0905
     61  CD        70.5950   24.0830  120.4410 C.2   477  GLN477      0.2608
     62  OE1       70.5860   24.7180  119.3790 O.2   477  GLN477     -0.2717
     63  NE2       71.3870   24.4100  121.4680 N.am  477  GLN477     -0.0878
     64  N         65.3210   24.1670  120.0990 N.am  478  ASN478     -0.1960
     65  CA        64.0710   24.1150  119.3530 C.3   478  ASN478      0.1819
     66  C         62.8420   24.3450  120.2100 C.2   478  ASN478      0.2622
     67  O         61.8560   23.6280  120.0810 O.2   478  ASN478     -0.2715
     68  CB        63.9480   22.7690  118.6310 C.3   478  ASN478      0.1195
     69  CG        63.1040   22.8560  117.3770 C.2   478  ASN478      0.2630
     70  OD1       63.0790   23.8850  116.6990 O.2   478  ASN478     -0.2716
     71  ND2       62.3990   21.7760  117.0630 N.am  478  ASN478     -0.0877
     72  N         62.8990   25.3470  121.0790 N.am  479  THR479     -0.1937
     73  CA        61.7690   25.6570  121.9530 C.3   479  THR479      0.2028
     74  C         61.5930   27.1630  122.0210 C.2   479  THR479      0.2642
     75  O         62.5820   27.8960  122.0050 O.2   479  THR479     -0.2714
     76  CB        62.0090   25.1100  123.3740 C.3   479  THR479      0.1808
     77  OG1       62.2210   23.6940  123.3000 O.3   479  THR479     -0.2208
     78  CG2       60.8190   25.4080  124.3020 C.3   479  THR479      0.0379
     79  N         60.3440   27.6280  122.0960 N.am  480  ALA480     -0.1977
     80  CA        60.0750   29.0610  122.2520 C.3   480  ALA480      0.1597
     81  C         60.6580   29.5300  123.5800 C.2   480  ALA480      0.2287
     82  O         60.3850   28.9420  124.6350 O.2   480  ALA480     -0.2864
     83  CB        58.5710   29.3450  122.2000 C.3   480  ALA480      0.0319
@<TRIPOS>BOND
     1    70    69    2
     2    71    69   am
     3    69    68    1
     4    33    32    2
     5    58    57    2
     6    45    43   am
     7    68    65    1
     8    32    38   am
     9    32    31    1
    10    46    47    1
    11    39    40    1
    12    39    38    1
    13    39    42    1
    14    65    64    1
    15    65    66    1
    16    62    61    2
    17    50    47    1
    18    50    51    1
    19    43    44    2
    20    43    42    1
    21    40    41    2
    22    57    64   am
    23    57    56    1
    24    31    34    1
    25    31    30    1
    26    54    52   ar
    27    34    35    1
    28    47    48    1
    29    67    66    2
    30    59    56    1
    31    59    60    1
    32    66    72   am
    33    51    52    1
    34    56    55    1
    35    52    53   ar
    36    61    60    1
    37    61    63   am
    38    35    37   am
    39    35    36    2
    40    72    73    1
    41    48    49    2
    42    73    74    1
    43    73    76    1
    44    75    74    2
    45    74    79   am
    46    79    80    1
    47    83    80    1
    48    80    81    1
    49    77    76    1
    50    76    78    1
    51    81    82    2
    52    29    28    1
    53    26    28   ar
    54    26    24   ar
    55    16    15   ar
    56    13    12    2
    57    28    27   ar
    58     9     8    1
    59    24    23   ar
    60    15    14    1
    61    15    17   ar
    62    11    12    1
    63    11    14    1
    64    11    10    1
    65    12    18   am
    66     8     7    1
    67    27    25   ar
    68    23    25   ar
    69    23    22    1
    70    18    19    1
    71    19    22    1
    72    19    20    1
    73     6     7    1
    74     6     5    1
    75    20    21    2
    76     5     2    1
    77     2     1    1
    78     2     3    1
    79     3     4    2
