@<TRIPOS>MOLECULE
tmp/4k3nC03.pdb
 77 68 0 0 0
SMALL
GASTEIGER

@<TRIPOS>ATOM
      1  N         83.9530   66.1600   12.2400 N.3   301  LYS301     -0.1245
      2  CA        84.0500   64.7110   12.0240 C.3   301  LYS301      0.1561
      3  C         85.4500   64.1990   12.3550 C.2   301  LYS301      0.2260
      4  O         86.2950   64.0120   11.4770 O.2   301  LYS301     -0.2867
      5  CB        83.6680   64.3600   10.5890 C.3   301  LYS301      0.0271
      6  CG        82.1790   64.5560   10.3110 C.3   301  LYS301      0.0035
      7  CD        81.8300   64.3900    8.8280 C.3   301  LYS301      0.0206
      8  CE        80.3560   64.7490    8.5690 C.3   301  LYS301      0.1093
      9  NZ        79.4700   63.8080    9.3090 N.3   301  LYS301     -0.1314
     10  N         85.8490   56.3080   12.0790 N.3   305  GLY305     -0.1210
     11  CA        84.6540   55.9020   11.3520 C.3   305  GLY305      0.1956
     12  C         83.7630   57.0390   10.8710 C.2   305  GLY305      0.2612
     13  O         82.6970   56.8040   10.2920 O.2   305  GLY305     -0.2717
     14  N         84.1790   58.2790   11.1050 N.am  306  SER306     -0.1952
     15  CA        83.3550   59.4130   10.6840 C.3   306  SER306      0.1924
     16  C         83.4950   59.6690    9.1770 C.2   306  SER306      0.2314
     17  O         82.6220   60.2890    8.5640 O.2   306  SER306     -0.2863
     18  CB        83.6550   60.6690   11.5150 C.3   306  SER306      0.2116
     19  OG        85.0410   60.9480   11.5500 O.3   306  SER306     -0.2180
     20  N         73.8580   69.8690   17.5760 N.3   372  ASN372     -0.1240
     21  CA        75.0510   69.3220   16.9150 C.3   372  ASN372      0.1653
     22  C         75.1870   69.8860   15.5040 C.2   372  ASN372      0.2266
     23  O         74.3220   69.6500   14.6570 O.2   372  ASN372     -0.2867
     24  CB        74.9620   67.7880   16.8660 C.3   372  ASN372      0.1155
     25  CG        76.2540   67.1390   16.4010 C.2   372  ASN372      0.2627
     26  OD1       76.8870   67.6070   15.4620 O.2   372  ASN372     -0.2716
     27  ND2       76.6580   66.0660   17.0680 N.am  372  ASN372     -0.0877
     28  N         76.9020   69.0410   13.1800 N.3   374  ASP374     -0.1225
     29  CA        77.0840   67.9740   12.2060 C.3   374  ASP374      0.1805
     30  C         75.7320   67.3400   11.8430 C.2   374  ASP374      0.2597
     31  O         75.6700   66.4350   11.0320 O.2   374  ASP374     -0.2718
     32  CB        78.0600   66.9250   12.7560 C.3   374  ASP374      0.1424
     33  CG        78.5670   65.9710   11.6870 C.2   374  ASP374      0.3668
     34  OD1       78.4380   66.3020   10.5000 O.co2 374  ASP374     -0.2456
     35  OD2       79.1110   64.9040   12.0340 O.co2 374  ASP374     -0.2456
     36  N         74.6410   67.8240   12.4350 N.am  375  ALA375     -0.1979
     37  CA        73.2980   67.4780   11.9450 C.3   375  ALA375      0.1597
     38  C         72.7450   68.6170   11.1030 C.2   375  ALA375      0.2287
     39  O         71.5970   69.0660   11.2820 O.2   375  ALA375     -0.2864
     40  CB        72.3410   67.1290   13.0990 C.3   375  ALA375      0.0319
     41  N         69.4770   68.4310    7.9900 N.3   378  ARG378     -0.1245
     42  CA        68.0500   68.5760    8.2820 C.3   378  ARG378      0.1563
     43  C         67.6640   70.0490    8.4760 C.2   378  ARG378      0.2260
     44  O         66.5000   70.4290    8.2850 O.2   378  ARG378     -0.2867
     45  CB        67.6650   67.7310    9.5000 C.3   378  ARG378      0.0307
     46  CG        68.3070   68.1980   10.8200 C.3   378  ARG378      0.0489
     47  CD        68.1800   67.1370   11.9130 C.3   378  ARG378      0.2205
     48  NE        69.1000   66.0100   11.7180 N.pl3 378  ARG378     -0.0865
     49  CZ        69.2050   64.9670   12.5400 C.cat 378  ARG378      0.5346
     50  NH1       68.4380   64.8850   13.6160 N.pl3 378  ARG378      0.1354
     51  NH2       70.0780   63.9980   12.2830 N.pl3 378  ARG378      0.1354
     52  N         71.3110   61.6020    4.6800 N.3   402  LEU402     -0.1245
     53  CA        70.9900   62.2770    5.9430 C.3   402  LEU402      0.1561
     54  C         71.6060   61.6920    7.2120 C.2   402  LEU402      0.2260
     55  O         72.0620   62.4470    8.0740 O.2   402  LEU402     -0.2867
     56  CB        69.4600   62.3780    6.1200 C.3   402  LEU402      0.0270
     57  CG        68.9960   63.4750    7.0880 C.3   402  LEU402      0.0019
     58  CD1       69.5480   64.8210    6.6370 C.3   402  LEU402      0.0001
     59  CD2       67.4680   63.5410    7.1700 C.3   402  LEU402      0.0001
     60  N         74.0970   58.4720    8.9450 N.3   404  GLY404     -0.1225
     61  CA        74.9640   57.3100    8.9030 C.3   404  GLY404      0.1811
     62  C         74.3040   56.0810    9.5050 C.2   404  GLY404      0.2280
     63  O         74.7080   54.9380    9.2410 O.2   404  GLY404     -0.2866
     64  N         68.3390   67.8170   17.3430 N.3   462  ILE462     -0.1245
     65  CA        68.6640   66.4100   17.5750 C.3   462  ILE462      0.1561
     66  C         68.0430   65.8830   18.8560 C.2   462  ILE462      0.2260
     67  O         67.6320   66.6570   19.7370 O.2   462  ILE462     -0.2867
     68  CB        70.1840   66.1620   17.6690 C.3   462  ILE462      0.0252
     69  CG1       70.8060   67.0470   18.7540 C.3   462  ILE462      0.0019
     70  CG2       70.8420   66.3850   16.3190 C.3   462  ILE462      0.0019
     71  CD1       72.1980   66.6060   19.1850 C.3   462  ILE462      0.0001
     72  N         68.6380   57.5860   14.8310 N.3   469  SER469     -0.1217
     73  CA        68.7450   58.9240   14.2590 C.3   469  SER469      0.1889
     74  C         68.0500   59.1190   12.9010 C.2   469  SER469      0.2288
     75  O         67.6450   60.2290   12.5780 O.2   469  SER469     -0.2866
     76  CB        70.2100   59.3700   14.2160 C.3   469  SER469      0.2089
     77  OG        71.0250   58.3130   13.7780 O.3   469  SER469     -0.2183
@<TRIPOS>BOND
     1    52    53    1
     2    53    56    1
     3    53    54    1
     4    56    57    1
     5    58    57    1
     6    57    59    1
     7    54    55    2
     8    41    42    1
     9    42    43    1
    10    42    45    1
    11    44    43    2
    12    17    16    2
    13     8     7    1
    14     8     9    1
    15     7     6    1
    16    61    60    1
    17    61    62    1
    18    16    15    1
    19    63    62    2
    20    45    46    1
    21    13    12    2
    22     6     5    1
    23    34    33   ar
    24     5     2    1
    25    15    14    1
    26    15    18    1
    27    46    47    1
    28    12    14   am
    29    12    11    1
    30    31    30    2
    31    38    39    2
    32    38    37    1
    33    11    10    1
    34     4     3    2
    35    18    19    1
    36    33    35   ar
    37    33    32    1
    38    48    47    1
    39    48    49    2
    40    30    29    1
    41    30    36   am
    42    37    36    1
    43    37    40    1
    44     2     1    1
    45     2     3    1
    46    29    32    1
    47    29    28    1
    48    51    49    1
    49    49    50    1
    50    75    74    2
    51    74    73    1
    52    77    76    1
    53    76    73    1
    54    73    72    1
    55    23    22    2
    56    26    25    2
    57    22    21    1
    58    70    68    1
    59    25    24    1
    60    25    27   am
    61    24    21    1
    62    21    20    1
    63    64    65    1
    64    65    68    1
    65    65    66    1
    66    68    69    1
    67    69    71    1
    68    66    67    2
