@<TRIPOS>MOLECULE
tmp/4k3nL00.pdb
 166 157 0 0 0
SMALL
GASTEIGER

@<TRIPOS>ATOM
      1  N         93.7810   48.8780  167.7190 N.3   282  LYS282     -0.1245
      2  CA        93.3770   48.1740  166.5180 C.3   282  LYS282      0.1561
      3  C         94.4660   47.1640  166.1390 C.2   282  LYS282      0.2260
      4  O         95.6500   47.5110  166.0310 O.2   282  LYS282     -0.2867
      5  CB        93.1290   49.1670  165.3730 C.3   282  LYS282      0.0271
      6  CG        92.7560   48.5110  164.0410 C.3   282  LYS282      0.0035
      7  CD        92.5110   49.5450  162.9270 C.3   282  LYS282      0.0206
      8  CE        92.3630   48.8510  161.5600 C.3   282  LYS282      0.1093
      9  NZ        92.0280   49.7840  160.4290 N.3   282  LYS282     -0.1314
     10  N         95.7610   44.1530  156.3780 N.3   287  ASP287     -0.1239
     11  CA        94.4710   44.6210  155.8710 C.3   287  ASP287      0.1674
     12  C         94.4790   44.6040  154.3430 C.2   287  ASP287      0.2266
     13  O         94.9010   45.5660  153.7000 O.2   287  ASP287     -0.2867
     14  CB        94.1960   46.0260  156.3970 C.3   287  ASP287      0.1410
     15  CG        92.8190   46.5360  156.0210 C.2   287  ASP287      0.3668
     16  OD1       91.9950   45.7420  155.5490 O.co2 287  ASP287     -0.2456
     17  OD2       92.5700   47.7410  156.1960 O.co2 287  ASP287     -0.2456
     18  N         91.9290   46.2780  148.2900 N.3   294  LYS294     -0.1245
     19  CA        92.6920   47.5060  148.0930 C.3   294  LYS294      0.1561
     20  C         93.3750   47.4440  146.7360 C.2   294  LYS294      0.2260
     21  O         94.5440   47.0370  146.6230 O.2   294  LYS294     -0.2867
     22  CB        93.7160   47.7100  149.2170 C.3   294  LYS294      0.0271
     23  CG        93.1000   48.1560  150.5390 C.3   294  LYS294      0.0035
     24  CD        94.1500   48.2080  151.6500 C.3   294  LYS294      0.0206
     25  CE        93.5080   48.3960  153.0260 C.3   294  LYS294      0.1093
     26  NZ        92.8160   49.7130  153.1590 N.3   294  LYS294     -0.1314
     27  N         96.7130   54.3880  144.9750 N.3   298  GLY298     -0.1210
     28  CA        96.8860   55.0900  146.2370 C.3   298  GLY298      0.1956
     29  C         96.3500   54.3800  147.4720 C.2   298  GLY298      0.2613
     30  O         96.4070   54.9270  148.5690 O.2   298  GLY298     -0.2717
     31  N         95.8330   53.1660  147.3130 N.am  299  SER299     -0.1938
     32  CA        95.3100   52.4290  148.4650 C.3   299  SER299      0.2055
     33  C         96.4400   51.7990  149.2990 C.2   299  SER299      0.2642
     34  O         96.2160   51.3340  150.4280 O.2   299  SER299     -0.2714
     35  CB        94.2820   51.3780  148.0290 C.3   299  SER299      0.2130
     36  OG        94.8150   50.5170  147.0450 O.3   299  SER299     -0.2179
     37  N         97.6490   51.7990  148.7290 N.am  300  MET300     -0.1976
     38  CA        98.8760   51.3560  149.4050 C.3   300  MET300      0.1605
     39  C         98.7940   50.0290  150.1610 C.2   300  MET300      0.2287
     40  O         99.1930   49.9380  151.3280 O.2   300  MET300     -0.2864
     41  CB        99.4060   52.4560  150.3210 C.3   300  MET300      0.0413
     42  CG        99.8790   53.6770  149.5460 C.3   300  MET300      0.0598
     43  SD       101.1210   54.6070  150.4450 S.3   300  MET300     -0.1393
     44  CE       100.1230   55.2480  151.7790 C.3   300  MET300      0.0692
     45  N        101.6690   48.6830  152.4150 N.3   303  LEU303     -0.1231
     46  CA       101.8850   49.2680  153.7440 C.3   303  LEU303      0.1693
     47  C        101.0520   48.5650  154.8330 C.2   303  LEU303      0.2591
     48  O        101.2600   48.7810  156.0320 O.2   303  LEU303     -0.2718
     49  CB       101.5150   50.7610  153.6930 C.3   303  LEU303      0.0284
     50  CG       101.2710   51.6120  154.9550 C.3   303  LEU303      0.0019
     51  CD1      102.5700   51.9000  155.7000 C.3   303  LEU303      0.0001
     52  CD2      100.5200   52.9190  154.6360 C.3   303  LEU303      0.0001
     53  N        100.1250   47.7040  154.4200 N.am  304  MET304     -0.1979
     54  CA        99.0480   47.2860  155.3210 C.3   304  MET304      0.1605
     55  C         99.4290   46.2980  156.4230 C.2   304  MET304      0.2287
     56  O         98.5930   45.9490  157.2550 O.2   304  MET304     -0.2864
     57  CB        97.8080   46.8390  154.5380 C.3   304  MET304      0.0413
     58  CG        97.1250   47.9910  153.8340 C.3   304  MET304      0.0598
     59  SD        96.5560   49.2680  154.9930 S.3   304  MET304     -0.1393
     60  CE        97.1560   50.7450  154.1900 C.3   304  MET304      0.0692
     61  N        101.0730   47.5040  158.5450 N.3   306  PHE306     -0.1227
     62  CA       101.1110   48.5170  159.6070 C.3   306  PHE306      0.1736
     63  C         99.7730   48.6780  160.3290 C.2   306  PHE306      0.2595
     64  O         99.6600   49.4620  161.2730 O.2   306  PHE306     -0.2718
     65  CB       101.6480   49.8720  159.0810 C.3   306  PHE306      0.0547
     66  CG       100.5740   50.9030  158.7670 C.ar  306  PHE306     -0.0202
     67  CD1      100.7210   52.2140  159.2110 C.ar  306  PHE306     -0.0042
     68  CD2       99.4500   50.5840  157.9980 C.ar  306  PHE306     -0.0042
     69  CE1       99.7620   53.1740  158.9330 C.ar  306  PHE306     -0.0003
     70  CE2       98.4780   51.5470  157.7180 C.ar  306  PHE306     -0.0003
     71  CZ        98.6400   52.8450  158.1860 C.ar  306  PHE306     -0.0000
     72  N         98.7660   47.9280  159.8860 N.am  307  ASP307     -0.1974
     73  CA        97.4100   48.0990  160.3940 C.3   307  ASP307      0.1709
     74  C         97.1870   47.5400  161.8010 C.2   307  ASP307      0.2293
     75  O         96.0660   47.5580  162.3170 O.2   307  ASP307     -0.2864
     76  CB        96.3910   47.5010  159.4200 C.3   307  ASP307      0.1436
     77  CG        95.0980   48.2690  159.4040 C.2   307  ASP307      0.3671
     78  OD1       95.1160   49.4580  159.7860 O.co2 307  ASP307     -0.2456
     79  OD2       94.0670   47.6850  159.0080 O.co2 307  ASP307     -0.2456
     80  N         86.4070   46.6330  153.8190 N.3   367  ASP367     -0.1225
     81  CA        87.6620   47.3450  154.0770 C.3   367  ASP367      0.1805
     82  C         87.4400   48.4020  155.1630 C.2   367  ASP367      0.2598
     83  O         88.3300   49.1780  155.4820 O.2   367  ASP367     -0.2718
     84  CB        88.1810   47.9900  152.7740 C.3   367  ASP367      0.1424
     85  CG        89.6600   48.4070  152.8580 C.2   367  ASP367      0.3668
     86  OD1       90.3550   47.9510  153.7780 O.co2 367  ASP367     -0.2456
     87  OD2       90.1380   49.1690  151.9870 O.co2 367  ASP367     -0.2456
     88  N         86.2370   48.4550  155.7280 N.am  368  ALA368     -0.1966
     89  CA        86.0610   49.2300  156.9590 C.3   368  ALA368      0.1728
     90  C         86.0240   48.2620  158.1450 C.2   368  ALA368      0.2616
     91  O         85.0980   48.2950  158.9720 O.2   368  ALA368     -0.2715
     92  CB        84.7990   50.0880  156.9030 C.3   368  ALA368      0.0334
     93  N         87.0450   47.4040  158.2280 N.am  369  GLU369     -0.1963
     94  CA        87.0260   46.2910  159.1610 C.3   369  GLU369      0.1733
     95  C         87.4780   46.6860  160.5650 C.2   369  GLU369      0.2617
     96  O         87.0860   46.0500  161.5370 O.2   369  GLU369     -0.2715
     97  CB        87.8910   45.1400  158.6370 C.3   369  GLU369      0.0429
     98  CG        89.3770   45.2600  159.0240 C.3   369  GLU369      0.1163
     99  CD        90.0350   46.4710  158.3910 C.2   369  GLU369      0.3649
    100  OE1       89.5570   46.9100  157.3270 O.co2 369  GLU369     -0.2457
    101  OE2       91.0160   46.9930  158.9600 O.co2 369  GLU369     -0.2457
    102  N         88.2960   47.7300  160.6730 N.am  370  GLY370     -0.1940
    103  CA        88.8540   48.1030  161.9600 C.3   370  GLY370      0.2014
    104  C         87.7710   48.4500  162.9660 C.2   370  GLY370      0.2638
    105  O         87.8140   48.0210  164.1250 O.2   370  GLY370     -0.2714
    106  N         86.7790   49.2130  162.5190 N.am  371  ARG371     -0.1977
    107  CA        85.7330   49.6690  163.4320 C.3   371  ARG371      0.1597
    108  C         84.8860   48.4830  163.8900 C.2   371  ARG371      0.2287
    109  O         84.3260   48.4900  164.9830 O.2   371  ARG371     -0.2864
    110  CB        84.8850   50.7870  162.7950 C.3   371  ARG371      0.0334
    111  CG        83.9480   50.3180  161.6720 C.3   371  ARG371      0.0492
    112  CD        83.4700   51.5130  160.8410 C.3   371  ARG371      0.2205
    113  NE        84.5670   52.1270  160.0890 N.pl3 371  ARG371     -0.0865
    114  CZ        84.4250   53.1630  159.2650 C.cat 371  ARG371      0.5346
    115  NH1       83.2290   53.7150  159.0870 N.pl3 371  ARG371      0.1354
    116  NH2       85.4760   53.6490  158.6220 N.pl3 371  ARG371      0.1354
    117  N         94.7790   52.8750  163.4570 N.3   394  THR394     -0.1203
    118  CA        95.0040   53.3820  162.1040 C.3   394  THR394      0.1994
    119  C         93.7080   53.2040  161.3280 C.2   394  THR394      0.2618
    120  O         93.5960   52.3480  160.4480 O.2   394  THR394     -0.2717
    121  CB        96.1400   52.6250  161.4000 C.3   394  THR394      0.1784
    122  OG1       95.9130   51.2190  161.5130 O.3   394  THR394     -0.2211
    123  CG2       97.4820   52.9650  162.0380 C.3   394  THR394      0.0376
    124  N         92.7230   54.0240  161.6640 N.am  395  LEU395     -0.1965
    125  CA        91.3580   53.7230  161.2830 C.3   395  LEU395      0.1728
    126  C         90.9420   54.2400  159.9120 C.2   395  LEU395      0.2617
    127  O         90.2880   53.5290  159.1450 O.2   395  LEU395     -0.2715
    128  CB        90.3940   54.2310  162.3530 C.3   395  LEU395      0.0311
    129  CG        89.0710   53.4700  162.3410 C.3   395  LEU395      0.0022
    130  CD1       89.3370   51.9650  162.5080 C.3   395  LEU395      0.0001
    131  CD2       88.1610   53.9930  163.4270 C.3   395  LEU395      0.0001
    132  N         91.2910   55.4830  159.6040 N.am  396  THR396     -0.1937
    133  CA        90.7660   56.0950  158.3920 C.3   396  THR396      0.2028
    134  C         91.8360   56.8540  157.6260 C.2   396  THR396      0.2642
    135  O         92.4600   57.7630  158.1690 O.2   396  THR396     -0.2714
    136  CB        89.5830   57.0550  158.7030 C.3   396  THR396      0.1808
    137  OG1       90.0440   58.1590  159.4970 O.3   396  THR396     -0.2208
    138  CG2       88.4620   56.3300  159.4440 C.3   396  THR396      0.0379
    139  N         92.0280   56.4810  156.3610 N.am  397  GLY397     -0.1954
    140  CA        92.9170   57.1990  155.4560 C.3   397  GLY397      0.1869
    141  C         92.5710   58.6760  155.3040 C.2   397  GLY397      0.2309
    142  O         93.4190   59.4950  154.9410 O.2   397  GLY397     -0.2863
    143  N         94.8640   61.7030  156.5270 N.3   400  LEU400     -0.1245
    144  CA        95.8760   62.3350  155.6830 C.3   400  LEU400      0.1561
    145  C         95.4000   63.6480  155.0670 C.2   400  LEU400      0.2260
    146  O         96.2170   64.5190  154.7710 O.2   400  LEU400     -0.2867
    147  CB        96.3080   61.3980  154.5640 C.3   400  LEU400      0.0270
    148  CG        97.1550   60.1920  154.9290 C.3   400  LEU400      0.0019
    149  CD1       97.3660   59.4130  153.6650 C.3   400  LEU400      0.0001
    150  CD2       98.4850   60.6190  155.5160 C.3   400  LEU400      0.0001
    151  N         95.9690   56.7820  161.6140 N.3   485  ALA485     -0.1245
    152  CA        96.1790   56.3000  160.2490 C.3   485  ALA485      0.1562
    153  C         97.1920   57.1550  159.4770 C.2   485  ALA485      0.2260
    154  O         97.9780   56.6440  158.6680 O.2   485  ALA485     -0.2867
    155  CB        94.8560   56.2120  159.5070 C.3   485  ALA485      0.0290
    156  N        106.8230   57.9590  156.1320 N.3   491  PHE491     -0.1241
    157  CA       106.9510   57.6640  154.7110 C.3   491  PHE491      0.1605
    158  C        108.3220   58.0330  154.1640 C.2   491  PHE491      0.2264
    159  O        108.8600   57.3450  153.3000 O.2   491  PHE491     -0.2867
    160  CB       105.8240   58.3350  153.9170 C.3   491  PHE491      0.0534
    161  CG       104.4580   57.7940  154.2480 C.ar  491  PHE491     -0.0203
    162  CD1      103.6140   58.4830  155.1040 C.ar  491  PHE491     -0.0042
    163  CD2      104.0330   56.5840  153.7240 C.ar  491  PHE491     -0.0042
    164  CE1      102.3600   57.9820  155.4220 C.ar  491  PHE491     -0.0003
    165  CE2      102.7840   56.0810  154.0330 C.ar  491  PHE491     -0.0003
    166  CZ       101.9460   56.7840  154.8850 C.ar  491  PHE491     -0.0000
@<TRIPOS>BOND
     1    27    28    1
     2    28    29    1
     3    21    20    2
     4    20    19    1
     5    36    35    1
     6    31    29   am
     7    31    32    1
     8    29    30    2
     9    35    32    1
    10    19    18    1
    11    19    22    1
    12    32    33    1
    13    37    33   am
    14    37    38    1
    15    22    23    1
    16    33    34    2
    17    38    39    1
    18    38    41    1
    19    42    41    1
    20    42    43    1
    21    39    40    2
    22    43    44    1
    23    23    24    1
    24    24    25    1
    25    87    85   ar
    26    45    46    1
    27    84    85    1
    28    84    81    1
    29    85    86   ar
    30    25    26    1
    31   159   158    2
    32   149   148    1
    33    49    46    1
    34    49    50    1
    35    13    12    2
    36   163   165   ar
    37   163   161   ar
    38    46    47    1
    39    80    81    1
    40    58    57    1
    41    58    59    1
    42   160   161    1
    43   160   157    1
    44   165   166   ar
    45    81    82    1
    46   158   157    1
    47    60    59    1
    48   161   162   ar
    49    12    11    1
    50    53    47   am
    51    53    54    1
    52    57    54    1
    53   147   148    1
    54   147   144    1
    55    52    50    1
    56   157   156    1
    57   146   145    2
    58    47    48    2
    59   166   164   ar
    60   148   150    1
    61   142   141    2
    62    50    51    1
    63   145   144    1
    64   162   164   ar
    65    82    83    2
    66    82    88   am
    67   141   140    1
    68    54    55    1
    69   140   139    1
    70    16    15   ar
    71   144   143    1
    72    88    89    1
    73    11    10    1
    74    11    14    1
    75    15    17   ar
    76    15    14    1
    77   139   134   am
    78    55    56    2
    79    92    89    1
    80    89    90    1
    81   100    99   ar
    82   134   135    2
    83   134   133    1
    84    70    68   ar
    85    70    71   ar
    86    68    66   ar
    87    90    93   am
    88    90    91    2
    89    71    69   ar
    90    93    94    1
    91    99   101   ar
    92    99    98    1
    93   133   136    1
    94   133   132    1
    95    61    62    1
    96   116   114    1
    97    97    98    1
    98    97    94    1
    99   154   153    2
   100   136   138    1
   101   136   137    1
   102    66    65    1
   103    66    67   ar
   104    69    67   ar
   105    79    77   ar
   106    65    62    1
   107   115   114    1
   108   127   126    2
   109    94    95    1
   110   114   113    2
   111    77    76    1
   112    77    78   ar
   113    76    73    1
   114   153   152    1
   115   155   152    1
   116   132   126   am
   117    62    63    1
   118    72    63   am
   119    72    73    1
   120   126   125    1
   121   113   112    1
   122   152   151    1
   123    63    64    2
   124    73    74    1
   125     9     8    1
   126   120   119    2
   127    95   102   am
   128    95    96    2
   129   102   103    1
   130   112   111    1
   131   125   124    1
   132   125   128    1
   133   119   124   am
   134   119   118    1
   135   121   122    1
   136   121   123    1
   137   121   118    1
   138     8     7    1
   139   111   110    1
   140    74    75    2
   141   103   104    1
   142   118   117    1
   143   129   128    1
   144   129   130    1
   145   129   131    1
   146   106   104   am
   147   106   107    1
   148   110   107    1
   149     7     6    1
   150   104   105    2
   151   107   108    1
   152   108   109    2
   153     6     5    1
   154     5     2    1
   155     4     3    2
   156     3     2    1
   157     2     1    1
