@<TRIPOS>MOLECULE
tmp/4k3qA02.pdb
 94 92 0 0 0
SMALL
GASTEIGER

@<TRIPOS>ATOM
      1  N         17.4030   -0.8520   -0.4290 N.3   152  LEU152     -0.1245
      2  CA        18.6260   -0.4570   -1.0900 C.3   152  LEU152      0.1561
      3  C         19.0430    0.9280   -0.6240 C.2   152  LEU152      0.2260
      4  O         18.2330    1.8490   -0.6140 O.2   152  LEU152     -0.2867
      5  CB        18.4340   -0.4350   -2.6130 C.3   152  LEU152      0.0270
      6  CG        19.7110   -0.2390   -3.4440 C.3   152  LEU152      0.0019
      7  CD1       20.5300   -1.5250   -3.4800 C.3   152  LEU152      0.0001
      8  CD2       19.3830    0.2050   -4.8690 C.3   152  LEU152      0.0001
      9  N         28.0420    3.2620   -5.2040 N.3   184  HIS184     -0.1226
     10  CA        27.9990    2.0700   -4.3880 C.3   184  HIS184      0.1752
     11  C         26.5650    1.8170   -3.9450 C.2   184  HIS184      0.2597
     12  O         25.7960    2.7620   -3.7640 O.2   184  HIS184     -0.2718
     13  CB        28.8910    2.2730   -3.1600 C.3   184  HIS184      0.0759
     14  CG        29.3560    1.0010   -2.5290 C.ar  184  HIS184      0.0818
     15  ND1       28.7040    0.4200   -1.4640 N.ar  184  HIS184     -0.2268
     16  CD2       30.4180    0.2060   -2.8000 C.ar  184  HIS184      0.1154
     17  CE1       29.3340   -0.6880   -1.1140 C.ar  184  HIS184      0.1986
     18  NE2       30.3770   -0.8420   -1.9090 N.ar  184  HIS184     -0.2212
     19  N         26.2130    0.5490   -3.7790 N.am  185  SER185     -0.1938
     20  CA        24.8800    0.1590   -3.3040 C.3   185  SER185      0.2055
     21  C         24.9690   -1.0210   -2.3440 C.2   185  SER185      0.2643
     22  O         25.7500   -1.9520   -2.5770 O.2   185  SER185     -0.2714
     23  CB        23.9820   -0.2180   -4.4830 C.3   185  SER185      0.2130
     24  OG        23.7990    0.8780   -5.3590 O.3   185  SER185     -0.2179
     25  N         24.1690   -0.9850   -1.2860 N.am  186  VAL186     -0.1963
     26  CA        24.0710   -2.0860   -0.3310 C.3   186  VAL186      0.1727
     27  C         22.6070   -2.2610    0.0330 C.2   186  VAL186      0.2616
     28  O         21.8310   -1.3290   -0.1180 O.2   186  VAL186     -0.2715
     29  CB        24.8920   -1.8250    0.9480 C.3   186  VAL186      0.0290
     30  CG1       26.3590   -1.6470    0.5990 C.3   186  VAL186      0.0023
     31  CG2       24.3790   -0.6110    1.7170 C.3   186  VAL186      0.0023
     32  N         22.2480   -3.4500    0.5150 N.am  187  ILE187     -0.1977
     33  CA        20.8730   -3.7340    0.9100 C.3   187  ILE187      0.1596
     34  C         20.8460   -3.9530    2.4160 C.2   187  ILE187      0.2287
     35  O         21.5280   -4.8480    2.9440 O.2   187  ILE187     -0.2864
     36  CB        20.3090   -4.9730    0.1800 C.3   187  ILE187      0.0276
     37  CG1       20.4820   -4.8320   -1.3390 C.3   187  ILE187      0.0022
     38  CG2       18.8370   -5.1950    0.5390 C.3   187  ILE187      0.0022
     39  CD1       20.3730   -6.1400   -2.0980 C.3   187  ILE187      0.0001
     40  N         31.9980   -4.2110    3.2500 N.3   213  SER213     -0.1217
     41  CA        31.5590   -5.1800    2.2430 C.3   213  SER213      0.1889
     42  C         30.3220   -5.9580    2.7000 C.2   213  SER213      0.2288
     43  O         29.5150   -6.4040    1.8820 O.2   213  SER213     -0.2866
     44  CB        32.6970   -6.1450    1.9000 C.3   213  SER213      0.2089
     45  OG        32.9680   -7.0120    2.9940 O.3   213  SER213     -0.2183
     46  N         24.5900   -6.7590    6.0750 N.3   229  LEU229     -0.1231
     47  CA        23.9160   -6.3990    4.8470 C.3   229  LEU229      0.1693
     48  C         23.2790   -7.6380    4.2440 C.2   229  LEU229      0.2592
     49  O         23.5430   -8.7520    4.6940 O.2   229  LEU229     -0.2718
     50  CB        24.9050   -5.7560    3.8700 C.3   229  LEU229      0.0284
     51  CG        25.4900   -4.4100    4.3040 C.3   229  LEU229      0.0019
     52  CD1       26.5720   -3.9500    3.3460 C.3   229  LEU229      0.0001
     53  CD2       24.3970   -3.3590    4.4210 C.3   229  LEU229      0.0001
     54  N         22.4360   -7.4380    3.2350 N.am  230  VAL230     -0.1966
     55  CA        21.7800   -8.5380    2.5230 C.3   230  VAL230      0.1727
     56  C         22.4470   -8.7320    1.1620 C.2   230  VAL230      0.2616
     57  O         22.6730   -7.7650    0.4320 O.2   230  VAL230     -0.2715
     58  CB        20.2640   -8.2790    2.3290 C.3   230  VAL230      0.0290
     59  CG1       19.5780   -9.4670    1.6660 C.3   230  VAL230      0.0023
     60  CG2       19.5890   -7.9880    3.6610 C.3   230  VAL230      0.0023
     61  N         22.7550   -9.9850    0.8290 N.am  231  ASP231     -0.1957
     62  CA        23.3480  -10.3380   -0.4630 C.3   231  ASP231      0.1840
     63  C         22.2500  -10.4490   -1.5190 C.2   231  ASP231      0.2623
     64  O         21.0860  -10.6980   -1.1900 O.2   231  ASP231     -0.2715
     65  CB        24.1020  -11.6760   -0.3680 C.3   231  ASP231      0.1450
     66  CG        25.3010  -11.6200    0.5680 C.2   231  ASP231      0.3671
     67  OD1       26.0480  -10.6150    0.5570 O.co2 231  ASP231     -0.2456
     68  OD2       25.5040  -12.6020    1.3110 O.co2 231  ASP231     -0.2456
     69  N         22.6160  -10.2540   -2.7840 N.am  232  GLY232     -0.1940
     70  CA        21.6620  -10.3670   -3.8770 C.3   232  GLY232      0.2014
     71  C         21.6390   -9.1710   -4.8140 C.2   232  GLY232      0.2639
     72  O         22.2760   -8.1490   -4.5530 O.2   232  GLY232     -0.2714
     73  N         20.8790   -9.3060   -5.8950 N.am  233  ARG233     -0.1963
     74  CA        20.8620   -8.3280   -6.9800 C.3   233  ARG233      0.1729
     75  C         19.5560   -7.5280   -7.0020 C.2   233  ARG233      0.2616
     76  O         18.5570   -7.9520   -7.5840 O.2   233  ARG233     -0.2715
     77  CB        21.1030   -9.0390   -8.3160 C.3   233  ARG233      0.0348
     78  CG        22.5800   -9.2490   -8.6380 C.3   233  ARG233      0.0492
     79  CD        22.8860  -10.5260   -9.4220 C.3   233  ARG233      0.2205
     80  NE        21.8430  -10.9620  -10.3580 N.pl3 233  ARG233     -0.0865
     81  CZ        21.5840  -10.3850  -11.5280 C.cat 233  ARG233      0.5346
     82  NH1       22.2770   -9.3190  -11.9120 N.pl3 233  ARG233      0.1354
     83  NH2       20.6190  -10.8660  -12.3090 N.pl3 233  ARG233      0.1354
     84  N         19.5740   -6.3670   -6.3560 N.am  234  PHE234     -0.1974
     85  CA        18.3870   -5.5210   -6.2670 C.3   234  PHE234      0.1639
     86  C         18.0370   -4.9730   -7.6490 C.2   234  PHE234      0.2290
     87  O         18.9250   -4.5750   -8.4030 O.2   234  PHE234     -0.2864
     88  CB        18.6460   -4.3880   -5.2700 C.3   234  PHE234      0.0560
     89  CG        17.4040   -3.8330   -4.6350 C.ar  234  PHE234     -0.0200
     90  CD1       16.9100   -4.3750   -3.4460 C.ar  234  PHE234     -0.0042
     91  CD2       16.7410   -2.7460   -5.2040 C.ar  234  PHE234     -0.0042
     92  CE1       15.7670   -3.8480   -2.8440 C.ar  234  PHE234     -0.0003
     93  CE2       15.5940   -2.2240   -4.6110 C.ar  234  PHE234     -0.0003
     94  CZ        15.1100   -2.7720   -3.4300 C.ar  234  PHE234     -0.0000
@<TRIPOS>BOND
     1    83    81    1
     2    82    81    1
     3    81    80    2
     4    80    79    1
     5    79    78    1
     6    78    77    1
     7    87    86    2
     8    77    74    1
     9    86    85    1
    10    76    75    2
    11    75    74    1
    12    75    84   am
    13    74    73    1
    14    84    85    1
    15    85    88    1
    16    73    71   am
    17    24    23    1
    18    88    89    1
    19     9    10    1
    20    91    89   ar
    21    91    93   ar
    22     8     6    1
    23    71    72    2
    24    71    70    1
    25    89    90   ar
    26    93    94   ar
    27    23    20    1
    28    10    11    1
    29    10    13    1
    30    11    19   am
    31    11    12    2
    32    70    69    1
    33    19    20    1
    34     7     6    1
    35    90    92   ar
    36     6     5    1
    37    94    92   ar
    38    20    21    1
    39    13    14    1
    40    16    14   ar
    41    16    18   ar
    42    69    63   am
    43     5     2    1
    44    22    21    2
    45    14    15   ar
    46    21    25   am
    47    39    37    1
    48    18    17   ar
    49    63    64    2
    50    63    62    1
    51    15    17   ar
    52    37    36    1
    53    25    26    1
    54     2     3    1
    55     2     1    1
    56     3     4    2
    57    62    65    1
    58    62    61    1
    59    65    66    1
    60    26    27    1
    61    26    29    1
    62    28    27    2
    63    27    32   am
    64    36    38    1
    65    36    33    1
    66    57    56    2
    67    32    33    1
    68    67    66   ar
    69    66    68   ar
    70    30    29    1
    71    61    56   am
    72    33    34    1
    73    29    31    1
    74    56    55    1
    75    59    58    1
    76    43    42    2
    77    44    41    1
    78    44    45    1
    79    41    42    1
    80    41    40    1
    81    58    55    1
    82    58    60    1
    83    34    35    2
    84    55    54    1
    85    54    48   am
    86    52    51    1
    87    50    51    1
    88    50    47    1
    89    48    49    2
    90    48    47    1
    91    51    53    1
    92    47    46    1
