@<TRIPOS>MOLECULE
tmp/4k3rA00.pdb
 143 136 0 0 0
SMALL
GASTEIGER

@<TRIPOS>ATOM
      1  N         12.3030  -13.5330   -3.0280 N.3   145  ARG145     -0.1245
      2  CA        13.4180  -12.7510   -3.5370 C.3   145  ARG145      0.1563
      3  C         13.8810  -11.8690   -2.3820 C.2   145  ARG145      0.2260
      4  O         13.3970  -10.7450   -2.2200 O.2   145  ARG145     -0.2867
      5  CB        12.9910  -11.9070   -4.7490 C.3   145  ARG145      0.0307
      6  CG        12.6300  -12.7200   -5.9870 C.3   145  ARG145      0.0489
      7  CD        11.8020  -11.9310   -6.9930 C.3   145  ARG145      0.2205
      8  NE        10.4970  -11.5440   -6.4540 N.pl3 145  ARG145     -0.0865
      9  CZ         9.6070  -10.7790   -7.0840 C.cat 145  ARG145      0.5346
     10  NH1        9.8560  -10.3010   -8.3000 N.pl3 145  ARG145      0.1354
     11  NH2        8.4560  -10.4820   -6.4880 N.pl3 145  ARG145      0.1354
     12  N         11.2690   -1.6850   -3.3480 N.3   165  THR165     -0.1218
     13  CA        10.3460   -2.2310   -4.3260 C.3   165  THR165      0.1862
     14  C          9.9960   -3.6720   -3.9900 C.2   165  THR165      0.2287
     15  O         10.8140   -4.4090   -3.4260 O.2   165  THR165     -0.2866
     16  CB        10.9260   -2.1520   -5.7630 C.3   165  THR165      0.1770
     17  OG1        9.9330   -2.5470   -6.7230 O.3   165  THR165     -0.2211
     18  CG2       12.1620   -3.0270   -5.9240 C.3   165  THR165      0.0375
     19  N          8.3610   -5.6050   -6.5520 N.3   167  GLY167     -0.1210
     20  CA         8.0610   -6.1930   -7.8600 C.3   167  GLY167      0.1956
     21  C          6.8070   -5.6640   -8.5440 C.2   167  GLY167      0.2612
     22  O          6.6060   -5.9140   -9.7370 O.2   167  GLY167     -0.2717
     23  N          5.9690   -4.9460   -7.7940 N.am  168  HIS168     -0.1961
     24  CA         4.7500   -4.3300   -8.3210 C.3   168  HIS168      0.1787
     25  C          4.8070   -2.8040   -8.2650 C.2   168  HIS168      0.2620
     26  O          4.3640   -2.1210   -9.1930 O.2   168  HIS168     -0.2715
     27  CB         3.5260   -4.8100   -7.5390 C.3   168  HIS168      0.0785
     28  CG         3.3490   -6.2980   -7.5490 C.ar  168  HIS168      0.0821
     29  ND1        3.3330   -7.0370   -8.7140 N.ar  168  HIS168     -0.2267
     30  CD2        3.1820   -7.1830   -6.5390 C.ar  168  HIS168      0.1154
     31  CE1        3.1610   -8.3140   -8.4200 C.ar  168  HIS168      0.1986
     32  NE2        3.0720   -8.4300   -7.1070 N.ar  168  HIS168     -0.2212
     33  N          5.3320   -2.2750   -7.1650 N.am  169  ARG169     -0.1963
     34  CA         5.4860   -0.8360   -6.9950 C.3   169  ARG169      0.1729
     35  C          6.8650   -0.5130   -6.4390 C.2   169  ARG169      0.2616
     36  O          7.5540   -1.3770   -5.9090 O.2   169  ARG169     -0.2715
     37  CB         4.3650   -0.2580   -6.1050 C.3   169  ARG169      0.0348
     38  CG         3.9780   -1.0740   -4.8800 C.3   169  ARG169      0.0492
     39  CD         4.9060   -0.8480   -3.7000 C.3   169  ARG169      0.2205
     40  NE         4.4600   -1.5820   -2.5180 N.pl3 169  ARG169     -0.0865
     41  CZ         3.4980   -1.1880   -1.6760 C.cat 169  ARG169      0.5346
     42  NH1        2.8330   -0.0490   -1.8500 N.pl3 169  ARG169      0.1354
     43  NH2        3.1970   -1.9460   -0.6390 N.pl3 169  ARG169      0.1354
     44  N          7.2700    0.7390   -6.5760 N.am  170  LEU170     -0.1977
     45  CA         8.6270    1.1360   -6.2610 C.3   170  LEU170      0.1596
     46  C          8.6380    2.5550   -5.7360 C.2   170  LEU170      0.2287
     47  O          7.8390    3.3830   -6.1740 O.2   170  LEU170     -0.2864
     48  CB         9.5160    1.0300   -7.5050 C.3   170  LEU170      0.0297
     49  CG        10.9900    1.4690   -7.3980 C.3   170  LEU170      0.0022
     50  CD1       11.8740    0.6010   -8.2810 C.3   170  LEU170      0.0001
     51  CD2       11.1970    2.9440   -7.7410 C.3   170  LEU170      0.0001
     52  N         15.1360    2.0380  -14.9870 N.3   239  ARG239     -0.1231
     53  CA        14.4200    1.2490  -16.0040 C.3   239  ARG239      0.1694
     54  C         12.9310    1.5650  -16.0720 C.2   239  ARG239      0.2591
     55  O         12.3160    1.5660  -17.1410 O.2   239  ARG239     -0.2718
     56  CB        14.5370   -0.2410  -15.6810 C.3   239  ARG239      0.0321
     57  CG        15.9160   -0.8450  -15.8670 C.3   239  ARG239      0.0489
     58  CD        16.1930   -1.1510  -17.3350 C.3   239  ARG239      0.2205
     59  NE        17.0970   -0.1900  -17.9470 N.pl3 239  ARG239     -0.0865
     60  CZ        17.3800   -0.1340  -19.2470 C.cat 239  ARG239      0.5346
     61  NH1       16.8180   -0.9790  -20.1120 N.pl3 239  ARG239      0.1354
     62  NH2       18.2320    0.7780  -19.6810 N.pl3 239  ARG239      0.1354
     63  N         12.3600    1.8360  -14.9080 N.am  240  VAL240     -0.1980
     64  CA        10.9290    1.7520  -14.7120 C.3   240  VAL240      0.1595
     65  C         10.2570    3.1330  -14.6600 C.2   240  VAL240      0.2287
     66  O          9.0290    3.2400  -14.6870 O.2   240  VAL240     -0.2864
     67  CB        10.6770    0.8310  -13.4900 C.3   240  VAL240      0.0276
     68  CG1        9.8320    1.4840  -12.4120 C.3   240  VAL240      0.0022
     69  CG2       10.0950   -0.4960  -13.9560 C.3   240  VAL240      0.0022
     70  N         -4.1330   -1.4310   -8.3090 N.3   313  ASN313     -0.1240
     71  CA        -4.3750   -1.8480   -6.9390 C.3   313  ASN313      0.1653
     72  C         -4.4920   -0.5650   -6.1110 C.2   313  ASN313      0.2266
     73  O         -3.5390    0.2100   -5.9980 O.2   313  ASN313     -0.2867
     74  CB        -3.2230   -2.7420   -6.4800 C.3   313  ASN313      0.1155
     75  CG        -3.3440   -3.1880   -5.0280 C.2   313  ASN313      0.2627
     76  OD1       -3.8390   -2.4610   -4.1840 O.2   313  ASN313     -0.2716
     77  ND2       -2.8400   -4.3840   -4.7330 N.am  313  ASN313     -0.0877
     78  N         -1.9040    0.2520   -3.3450 N.3   316  TYR316     -0.1241
     79  CA        -0.6120    0.7750   -3.7840 C.3   316  TYR316      0.1605
     80  C         -0.6980    2.2750   -4.0120 C.2   316  TYR316      0.2264
     81  O          0.2150    3.0170   -3.6550 O.2   316  TYR316     -0.2867
     82  CB        -0.1240    0.0890   -5.0650 C.3   316  TYR316      0.0534
     83  CG         0.1930   -1.3890   -4.9480 C.ar  316  TYR316     -0.0201
     84  CD1        0.4960   -1.9780   -3.7170 C.ar  316  TYR316     -0.0009
     85  CD2        0.2280   -2.1990   -6.0830 C.ar  316  TYR316     -0.0009
     86  CE1        0.8060   -3.3190   -3.6220 C.ar  316  TYR316      0.0417
     87  CE2        0.5340   -3.5520   -5.9920 C.ar  316  TYR316      0.0417
     88  CZ         0.8290   -4.0980   -4.7630 C.ar  316  TYR316      0.1957
     89  OH         1.1260   -5.4340   -4.6530 O.3   316  TYR316     -0.2866
     90  N         -0.9910   -0.2110  -20.1260 N.3   337  VAL337     -0.1245
     91  CA        -0.2280   -1.4030  -19.7300 C.3   337  VAL337      0.1561
     92  C          1.1780   -1.0440  -19.2420 C.2   337  VAL337      0.2260
     93  O          2.0360   -1.9060  -19.1400 O.2   337  VAL337     -0.2867
     94  CB        -0.1700   -2.4590  -20.8710 C.3   337  VAL337      0.0252
     95  CG1       -1.5780   -2.9250  -21.2270 C.3   337  VAL337      0.0019
     96  CG2        0.5450   -1.9230  -22.1060 C.3   337  VAL337      0.0019
     97  N          3.7540    1.5160  -16.4760 N.3   339  SER339     -0.1217
     98  CA         3.8230    2.0750  -15.1270 C.3   339  SER339      0.1889
     99  C          3.4300    3.5550  -15.0890 C.2   339  SER339      0.2288
    100  O          3.5390    4.2720  -16.0920 O.2   339  SER339     -0.2866
    101  CB         5.2320    1.9060  -14.5640 C.3   339  SER339      0.2089
    102  OG         6.1670    2.7310  -15.2410 O.3   339  SER339     -0.2183
    103  N          6.6630    4.6910   -8.3470 N.3   353  VAL353     -0.1245
    104  CA         6.2910    4.0410   -9.5840 C.3   353  VAL353      0.1561
    105  C          5.4220    2.8330   -9.2740 C.2   353  VAL353      0.2260
    106  O          5.8250    1.9490   -8.5020 O.2   353  VAL353     -0.2867
    107  CB         7.5190    3.5970  -10.3880 C.3   353  VAL353      0.0252
    108  CG1        7.0730    3.0490  -11.7390 C.3   353  VAL353      0.0019
    109  CG2        8.4990    4.7480  -10.5630 C.3   353  VAL353      0.0019
    110  N          2.9720   -0.1970  -11.0960 N.3   355  MET355     -0.1231
    111  CA         2.6180   -0.9120  -12.3110 C.3   355  MET355      0.1687
    112  C          1.1280   -1.2250  -12.2630 C.2   355  MET355      0.2434
    113  O          0.6370   -1.6530  -11.2210 O.2   355  MET355     -0.2733
    114  CB         3.4050   -2.2220  -12.3970 C.3   355  MET355      0.0400
    115  CG         3.4420   -2.8060  -13.7940 C.3   355  MET355      0.0596
    116  SD         4.4350   -1.8010  -14.9050 S.3   355  MET355     -0.1393
    117  CE         4.2100   -2.7070  -16.4400 C.3   355  MET355      0.0692
    118  N          0.4050   -1.0290  -13.3910 N.am  356  PRO356     -0.2718
    119  CA        -1.0460   -1.2170  -13.4000 C.3   356  PRO356      0.1535
    120  C         -1.5210   -2.6650  -13.3800 C.2   356  PRO356      0.2598
    121  O         -0.7270   -3.5950  -13.4870 O.2   356  PRO356     -0.2715
    122  CB        -1.4780   -0.5530  -14.7220 C.3   356  PRO356      0.0310
    123  CG        -0.2900   -0.6490  -15.5980 C.3   356  PRO356      0.0237
    124  CD         0.8830   -0.4700  -14.6670 C.3   356  PRO356      0.0939
    125  N         -2.8310   -2.8250  -13.2260 N.am  357  MET357     -0.1964
    126  CA        -3.4950   -4.1100  -13.3890 C.3   357  MET357      0.1736
    127  C         -4.1740   -4.1220  -14.7540 C.2   357  MET357      0.2616
    128  O         -4.7330   -3.1130  -15.1760 O.2   357  MET357     -0.2715
    129  CB        -4.5480   -4.3070  -12.3040 C.3   357  MET357      0.0427
    130  CG        -3.9940   -4.3680  -10.8920 C.3   357  MET357      0.0599
    131  SD        -5.3090   -4.2540   -9.6670 S.3   357  MET357     -0.1393
    132  CE        -6.1990   -5.7830   -9.9270 C.3   357  MET357      0.0692
    133  N         -4.1040   -5.2610  -15.4370 N.am  358  ARG358     -0.1977
    134  CA        -4.8050   -5.4630  -16.6970 C.3   358  ARG358      0.1597
    135  C         -6.2960   -5.6740  -16.4400 C.2   358  ARG358      0.2287
    136  O         -7.1190   -4.8190  -16.7800 O.2   358  ARG358     -0.2864
    137  CB        -4.2270   -6.6790  -17.4290 C.3   358  ARG358      0.0334
    138  CG        -2.6960   -6.6460  -17.5580 C.3   358  ARG358      0.0492
    139  CD        -2.2850   -5.7440  -18.6920 C.3   358  ARG358      0.2205
    140  NE        -0.8390   -5.8900  -18.9890 N.pl3 358  ARG358     -0.0865
    141  CZ         0.0660   -5.1440  -18.3110 C.cat 358  ARG358      0.5346
    142  NH1       -0.3600   -4.2810  -17.4250 N.pl3 358  ARG358      0.1354
    143  NH2        1.3600   -5.2690  -18.5970 N.pl3 358  ARG358      0.1354
@<TRIPOS>BOND
     1    96    94    1
     2    95    94    1
     3    94    91    1
     4    90    91    1
     5    61    60    1
     6    91    92    1
     7    62    60    1
     8    60    59    2
     9    92    93    2
    10   140   139    1
    11   140   141    2
    12   139   138    1
    13   143   141    1
    14   141   142    1
    15    59    58    1
    16   138   137    1
    17   137   134    1
    18    58    57    1
    19    55    54    2
    20   136   135    2
    21   134   135    1
    22   134   133    1
    23    97    98    1
    24   117   116    1
    25   100    99    2
    26    54    53    1
    27    54    63   am
    28    53    56    1
    29    53    52    1
    30    57    56    1
    31   123   122    1
    32   123   124    1
    33   133   127   am
    34   102   101    1
    35   128   127    2
    36    98    99    1
    37    98   101    1
    38    63    64    1
    39   116   115    1
    40   127   126    1
    41   122   119    1
    42    64    65    1
    43    64    67    1
    44    66    65    2
    45   124   118    1
    46    69    67    1
    47   115   114    1
    48    67    68    1
    49   121   120    2
    50   119   118    1
    51   119   120    1
    52   118   112   am
    53   126   125    1
    54   126   129    1
    55   120   125   am
    56   114   111    1
    57   111   112    1
    58   111   110    1
    59   129   130    1
    60   112   113    2
    61   108   107    1
    62   130   131    1
    63   109   107    1
    64   107   104    1
    65   132   131    1
    66    22    21    2
    67   104   105    1
    68   104   103    1
    69   105   106    2
    70    26    25    2
    71    29    31   ar
    72    29    28   ar
    73    21    20    1
    74    21    23   am
    75    31    32   ar
    76    24    25    1
    77    24    23    1
    78    24    27    1
    79    70    71    1
    80    10     9    1
    81    50    49    1
    82    25    33   am
    83    20    19    1
    84    51    49    1
    85    28    27    1
    86    28    30   ar
    87    48    49    1
    88    48    45    1
    89    33    34    1
    90    32    30   ar
    91     9    11    1
    92     9     8    2
    93    34    35    1
    94    34    37    1
    95     7     8    1
    96     7     6    1
    97    71    74    1
    98    71    72    1
    99    17    16    1
   100    44    35   am
   101    44    45    1
   102    74    75    1
   103    35    36    2
   104    45    46    1
   105    47    46    2
   106    72    73    2
   107    37    38    1
   108    85    87   ar
   109    85    83   ar
   110    87    88   ar
   111     6     5    1
   112    18    16    1
   113    16    13    1
   114    82    83    1
   115    82    79    1
   116    75    77   am
   117    75    76    2
   118    83    84   ar
   119    38    39    1
   120    88    89    1
   121    88    86   ar
   122     5     2    1
   123    13    14    1
   124    13    12    1
   125    80    79    1
   126    80    81    2
   127    14    15    2
   128    79    78    1
   129    84    86   ar
   130    39    40    1
   131     2     1    1
   132     2     3    1
   133    40    41    2
   134     3     4    2
   135    42    41    1
   136    41    43    1
