@<TRIPOS>MOLECULE
tmp/4k3sB01.pdb
 104 101 0 0 0
SMALL
GASTEIGER

@<TRIPOS>ATOM
      1  N         16.3450   13.3440  -18.1230 N.3     7  ARG7       -0.1231
      2  CA        15.2630   12.9430  -17.2130 C.3     7  ARG7        0.1694
      3  C         15.7490   12.4140  -15.8650 C.2     7  ARG7        0.2591
      4  O         15.2610   12.8350  -14.7970 O.2     7  ARG7       -0.2718
      5  CB        14.4010   11.8750  -17.8980 C.3     7  ARG7        0.0321
      6  CG        13.3490   11.2150  -17.0170 C.3     7  ARG7        0.0489
      7  CD        12.5300   10.2090  -17.7910 C.3     7  ARG7        0.2205
      8  NE        11.5900    9.4450  -16.9620 N.pl3   7  ARG7       -0.0865
      9  CZ        11.8750    8.3320  -16.2820 C.cat   7  ARG7        0.5346
     10  NH1       13.1110    7.8280  -16.2560 N.pl3   7  ARG7        0.1354
     11  NH2       10.9120    7.7280  -15.5830 N.pl3   7  ARG7        0.1354
     12  N         16.6850   11.4650  -15.9040 N.am    8  GLU8       -0.1979
     13  CA        17.1040   10.7920  -14.6710 C.3     8  GLU8        0.1602
     14  C         17.9810   11.6560  -13.7650 C.2     8  GLU8        0.2287
     15  O         18.1110   11.3700  -12.5750 O.2     8  GLU8       -0.2864
     16  CB        17.7720    9.4420  -14.9670 C.3     8  GLU8        0.0415
     17  CG        16.8380    8.4370  -15.6200 C.3     8  GLU8        0.1163
     18  CD        16.5500    8.7420  -17.0730 C.2     8  GLU8        0.3649
     19  OE1       17.4170    9.2990  -17.7760 O.co2   8  GLU8       -0.2457
     20  OE2       15.4590    8.4170  -17.5410 O.co2   8  GLU8       -0.2457
     21  N         14.9680   13.5120  -11.7920 N.3    11  LEU11      -0.1231
     22  CA        13.9040   12.7630  -11.1260 C.3    11  LEU11       0.1693
     23  C         14.1150   12.6040   -9.6130 C.2    11  LEU11       0.2591
     24  O         13.2300   12.9100   -8.8320 O.2    11  LEU11      -0.2718
     25  CB        13.7220   11.3980  -11.8040 C.3    11  LEU11       0.0284
     26  CG        12.2900   10.8890  -11.9250 C.3    11  LEU11       0.0019
     27  CD1       11.3420   11.9990  -12.3680 C.3    11  LEU11       0.0001
     28  CD2       12.2530    9.7230  -12.9040 C.3    11  LEU11       0.0001
     29  N         15.2820   12.1210   -9.1920 N.am   12  LYS12      -0.1980
     30  CA        15.5300   11.9900   -7.7620 C.3    12  LYS12       0.1596
     31  C         15.5380   13.3380   -7.0400 C.2    12  LYS12       0.2287
     32  O         14.9240   13.4620   -5.9800 O.2    12  LYS12      -0.2864
     33  CB        16.8020   11.1970   -7.4550 C.3    12  LYS12       0.0298
     34  CG        16.9190   10.8670   -5.9770 C.3    12  LYS12       0.0038
     35  CD        17.4310    9.4560   -5.7350 C.3    12  LYS12       0.0206
     36  CE        16.8080    8.8530   -4.4840 C.3    12  LYS12       0.1093
     37  NZ        16.9430    9.7460   -3.3000 N.3    12  LYS12      -0.1314
     38  N         11.9360   14.4170   -6.5730 N.3    15  GLN15      -0.1245
     39  CA        11.2840   13.5940   -5.5710 C.3    15  GLN15       0.1566
     40  C         11.7060   14.0600   -4.1780 C.2    15  GLN15       0.2260
     41  O         10.8630   14.2490   -3.3160 O.2    15  GLN15      -0.2867
     42  CB        11.6070   12.1080   -5.7970 C.3    15  GLN15       0.0367
     43  CG        10.8280   11.1520   -4.9010 C.3    15  GLN15       0.0905
     44  CD        11.0110    9.6860   -5.2710 C.2    15  GLN15       0.2608
     45  OE1       11.3480    9.3420   -6.4070 O.2    15  GLN15      -0.2717
     46  NE2       10.7700    8.8080   -4.3050 N.am   15  GLN15      -0.0878
     47  N          6.8250   17.0560  -11.5510 N.3    76  PHE76      -0.1227
     48  CA         7.4020   15.7290  -11.2930 C.3    76  PHE76       0.1736
     49  C          6.7640   14.6160  -12.1410 C.2    76  PHE76       0.2595
     50  O          7.4750   13.7820  -12.7110 O.2    76  PHE76      -0.2718
     51  CB         7.3150   15.3710   -9.8180 C.3    76  PHE76       0.0547
     52  CG         7.7530   13.9600   -9.5260 C.ar   76  PHE76      -0.0202
     53  CD1        9.1010   13.6310   -9.5200 C.ar   76  PHE76      -0.0042
     54  CD2        6.8130   12.9590   -9.3100 C.ar   76  PHE76      -0.0042
     55  CE1        9.5140   12.3300   -9.2600 C.ar   76  PHE76      -0.0003
     56  CE2        7.2120   11.6550   -9.0490 C.ar   76  PHE76      -0.0003
     57  CZ         8.5660   11.3420   -9.0240 C.ar   76  PHE76      -0.0000
     58  N          5.4380   14.5850  -12.1930 N.am   77  ASP77      -0.1974
     59  CA         4.7100   13.5610  -12.9530 C.3    77  ASP77       0.1709
     60  C          5.0430   13.6340  -14.4510 C.2    77  ASP77       0.2293
     61  O          5.1660   12.5990  -15.1210 O.2    77  ASP77      -0.2864
     62  CB         3.2020   13.6940  -12.7480 C.3    77  ASP77       0.1436
     63  CG         2.7240   13.1420  -11.4090 C.2    77  ASP77       0.3671
     64  OD1        3.5330   12.6300  -10.6020 O.co2  77  ASP77      -0.2456
     65  OD2        1.5020   13.2180  -11.1710 O.co2  77  ASP77      -0.2456
     66  N          8.6190   12.1860  -14.7550 N.3    80  ARG80      -0.1231
     67  CA         8.5240   10.7320  -14.5270 C.3    80  ARG80       0.1694
     68  C          7.8880    9.9780  -15.7070 C.2    80  ARG80       0.2593
     69  O          8.2330    8.8260  -16.0080 O.2    80  ARG80      -0.2718
     70  CB         7.7030   10.4730  -13.2630 C.3    80  ARG80       0.0321
     71  CG         7.6190    9.0100  -12.8830 C.3    80  ARG80       0.0489
     72  CD         7.0380    8.7900  -11.4940 C.3    80  ARG80       0.2205
     73  NE         5.6730    9.2910  -11.3690 N.pl3  80  ARG80      -0.0865
     74  CZ         4.9220    9.1550  -10.2780 C.cat  80  ARG80       0.5346
     75  NH1        5.3930    8.5190   -9.2050 N.pl3  80  ARG80       0.1354
     76  NH2        3.6870    9.6480  -10.2630 N.pl3  80  ARG80       0.1354
     77  N          6.9260   10.6150  -16.3540 N.am   81  GLY81      -0.1942
     78  CA         6.1610    9.9800  -17.4120 C.3    81  GLY81       0.2014
     79  C          6.8650    9.9380  -18.7510 C.2    81  GLY81       0.2639
     80  O          6.4520    9.2140  -19.6350 O.2    81  GLY81      -0.2714
     81  N          7.9000   10.7560  -18.9150 N.am   82  LEU82      -0.1963
     82  CA         8.6540   10.7760  -20.1600 C.3    82  LEU82       0.1713
     83  C          9.5230    9.5120  -20.2580 C.2    82  LEU82       0.2458
     84  O          9.8660    8.9290  -19.2360 O.2    82  LEU82      -0.2730
     85  CB         9.5030   12.0430  -20.2530 C.3    82  LEU82       0.0310
     86  CG         8.6940   13.2910  -20.6480 C.3    82  LEU82       0.0022
     87  CD1        9.4920   14.5470  -20.3350 C.3    82  LEU82       0.0001
     88  CD2        8.2340   13.2410  -22.1080 C.3    82  LEU82       0.0001
     89  N          9.8860    9.1110  -21.4860 N.am   83  PRO83      -0.2716
     90  CA        10.6840    7.8860  -21.6830 C.3    83  PRO83       0.1536
     91  C         12.0760    7.9360  -21.0590 C.2    83  PRO83       0.2598
     92  O         12.6620    9.0150  -20.9280 O.2    83  PRO83      -0.2715
     93  CB        10.7940    7.7660  -23.2160 C.3    83  PRO83       0.0310
     94  CG        10.4580    9.1020  -23.7560 C.3    83  PRO83       0.0237
     95  CD         9.5320    9.7590  -22.7650 C.3    83  PRO83       0.0939
     96  N         12.6060    6.7660  -20.6960 N.am   84  GLU84      -0.1978
     97  CA        13.9780    6.6580  -20.2020 C.3    84  GLU84       0.1602
     98  C         14.9210    7.4390  -21.1070 C.2    84  GLU84       0.2287
     99  O         14.8970    7.2790  -22.3300 O.2    84  GLU84      -0.2864
    100  CB        14.4500    5.1970  -20.1540 C.3    84  GLU84       0.0415
    101  CG        14.2430    4.5120  -18.8170 C.3    84  GLU84       0.1163
    102  CD        15.3660    4.7420  -17.8150 C.2    84  GLU84       0.3649
    103  OE1       16.5320    4.4140  -18.1300 O.co2  84  GLU84      -0.2457
    104  OE2       15.0760    5.2040  -16.6830 O.co2  84  GLU84      -0.2457
@<TRIPOS>BOND
     1    94    93    1
     2    94    95    1
     3    93    90    1
     4    95    89    1
     5    99    98    2
     6    88    86    1
     7    90    89    1
     8    90    91    1
     9    89    83   am
    10    98    97    1
    11    91    92    2
    12    91    96   am
    13    96    97    1
    14    86    87    1
    15    86    85    1
    16    83    82    1
    17    83    84    2
    18    85    82    1
    19    97   100    1
    20    82    81    1
    21   100   101    1
    22    80    79    2
    23    81    79   am
    24   101   102    1
    25    79    78    1
    26   103   102   ar
    27     1     2    1
    28     5     2    1
    29     5     6    1
    30   102   104   ar
    31     7     6    1
    32     7     8    1
    33    19    18   ar
    34    20    18   ar
    35    78    77    1
    36     2     3    1
    37    18    17    1
    38     8     9    2
    39    77    68   am
    40     9    10    1
    41     9    11    1
    42    69    68    2
    43    12     3   am
    44    12    13    1
    45     3     4    2
    46    68    67    1
    47    17    16    1
    48    61    60    2
    49    16    13    1
    50    66    67    1
    51    13    14    1
    52    67    70    1
    53    60    59    1
    54    14    15    2
    55    70    71    1
    56    59    62    1
    57    59    58    1
    58    28    26    1
    59    71    72    1
    60    62    63    1
    61    50    49    2
    62    27    26    1
    63    58    49   am
    64    49    48    1
    65    26    25    1
    66    25    22    1
    67    21    22    1
    68    47    48    1
    69    72    73    1
    70    63    65   ar
    71    63    64   ar
    72    73    74    2
    73    48    51    1
    74    22    23    1
    75    74    76    1
    76    74    75    1
    77    51    52    1
    78    23    29   am
    79    23    24    2
    80    52    53   ar
    81    52    54   ar
    82    53    55   ar
    83    54    56   ar
    84    55    57   ar
    85    29    30    1
    86    56    57   ar
    87    30    33    1
    88    30    31    1
    89    33    34    1
    90    31    32    2
    91    38    39    1
    92    45    44    2
    93    34    35    1
    94    42    39    1
    95    42    43    1
    96    35    36    1
    97    39    40    1
    98    44    43    1
    99    44    46   am
   100    36    37    1
   101    40    41    2
