@<TRIPOS>MOLECULE
tmp/4k3xA03.pdb
 109 107 0 0 0
SMALL
GASTEIGER

@<TRIPOS>ATOM
      1  N         48.9730   12.5350   41.3880 N.3    96  ASP96      -0.1225
      2  CA        48.3890   12.8230   42.7000 C.3    96  ASP96       0.1805
      3  C         49.3870   12.7570   43.8620 C.2    96  ASP96       0.2598
      4  O         50.2320   11.8620   43.9170 O.2    96  ASP96      -0.2718
      5  CB        47.2350   11.8530   42.9690 C.3    96  ASP96       0.1424
      6  CG        46.4330   12.2300   44.2040 C.2    96  ASP96       0.3668
      7  OD1       45.7440   13.2700   44.1670 O.co2  96  ASP96      -0.2456
      8  OD2       46.4820   11.4880   45.2120 O.co2  96  ASP96      -0.2456
      9  N         49.2730   13.7050   44.7910 N.am   97  SER97      -0.1952
     10  CA        50.0310   13.6800   46.0490 C.3    97  SER97       0.1924
     11  C         51.5350   13.4010   45.9160 C.2    97  SER97       0.2314
     12  O         52.0690   12.5380   46.6330 O.2    97  SER97      -0.2863
     13  CB        49.4390   12.6460   47.0280 C.3    97  SER97       0.2116
     14  OG        48.0270   12.6600   47.0240 O.3    97  SER97      -0.2180
     15  N         58.0170    9.6060   51.6690 N.3   104  LEU104     -0.1245
     16  CA        58.2180    8.1590   51.8160 C.3   104  LEU104      0.1561
     17  C         59.5030    7.6340   51.1520 C.2   104  LEU104      0.2260
     18  O         60.1350    6.7020   51.6680 O.2   104  LEU104     -0.2867
     19  CB        57.0050    7.3670   51.2840 C.3   104  LEU104      0.0270
     20  CG        55.6190    7.6310   51.9090 C.3   104  LEU104      0.0019
     21  CD1       54.5580    6.6760   51.3510 C.3   104  LEU104      0.0001
     22  CD2       55.6550    7.5370   53.4250 C.3   104  LEU104      0.0001
     23  N         49.1590    3.5970   39.6500 N.3   174  TRP174     -0.1241
     24  CA        48.2340    3.2530   38.5840 C.3   174  TRP174      0.1605
     25  C         47.7500    4.5040   37.8690 C.2   174  TRP174      0.2264
     26  O         48.0580    5.6350   38.2840 O.2   174  TRP174     -0.2867
     27  CB        47.0430    2.4530   39.1290 C.3   174  TRP174      0.0550
     28  CG        46.2430    3.1490   40.2010 C.ar  174  TRP174      0.0003
     29  CD1       45.1360    3.9350   40.0240 C.ar  174  TRP174      0.0946
     30  CD2       46.4770    3.1000   41.6190 C.ar  174  TRP174      0.0152
     31  NE1       44.6740    4.3840   41.2450 N.ar  174  TRP174     -0.2442
     32  CE2       45.4780    3.8850   42.2360 C.ar  174  TRP174      0.0810
     33  CE3       47.4320    2.4720   42.4210 C.ar  174  TRP174      0.0012
     34  CZ2       45.4150    4.0580   43.6270 C.ar  174  TRP174      0.0191
     35  CZ3       47.3650    2.6420   43.8010 C.ar  174  TRP174      0.0001
     36  CH2       46.3690    3.4310   44.3870 C.ar  174  TRP174      0.0015
     37  N         42.8500   -0.8890   48.8810 N.3   200  ILE200     -0.1245
     38  CA        44.1180   -1.1750   49.5430 C.3   200  ILE200      0.1561
     39  C         43.8490   -1.2100   51.0330 C.2   200  ILE200      0.2260
     40  O         43.4350   -0.1990   51.6210 O.2   200  ILE200     -0.2867
     41  CB        45.1590   -0.0800   49.2660 C.3   200  ILE200      0.0252
     42  CG1       45.3350    0.1190   47.7570 C.3   200  ILE200      0.0019
     43  CG2       46.4740   -0.4160   49.9560 C.3   200  ILE200      0.0019
     44  CD1       46.4070    1.1080   47.4070 C.3   200  ILE200      0.0001
     45  N         40.8990    0.6890   52.6660 N.3   203  GLU203     -0.1245
     46  CA        40.6080    1.9080   51.9270 C.3   203  GLU203      0.1567
     47  C         40.1300    1.5650   50.5200 C.2   203  GLU203      0.2260
     48  O         40.7280    0.7330   49.8330 O.2   203  GLU203     -0.2867
     49  CB        41.8460    2.8090   51.8600 C.3   203  GLU203      0.0388
     50  CG        42.4770    3.1170   53.2190 C.3   203  GLU203      0.1160
     51  CD        41.7580    4.2300   53.9740 C.2   203  GLU203      0.3649
     52  OE1       41.5240    4.0740   55.1970 O.co2 203  GLU203     -0.2457
     53  OE2       41.4430    5.2680   53.3450 O.co2 203  GLU203     -0.2457
     54  N         39.1740    3.0570   46.7090 N.3   205  ASN205     -0.1240
     55  CA        39.3310    4.1780   45.7830 C.3   205  ASN205      0.1653
     56  C         38.5460    3.9190   44.5050 C.2   205  ASN205      0.2266
     57  O         38.8340    2.9780   43.7610 O.2   205  ASN205     -0.2867
     58  CB        40.8110    4.4110   45.4660 C.3   205  ASN205      0.1155
     59  CG        41.6440    4.6790   46.7160 C.2   205  ASN205      0.2627
     60  OD1       41.6310    5.7870   47.2580 O.2   205  ASN205     -0.2716
     61  ND2       42.3800    3.6620   47.1740 N.am  205  ASN205     -0.0877
     62  N         36.9570    5.1150   40.8040 N.3   207  TYR207     -0.1241
     63  CA        37.1430    6.0130   39.6770 C.3   207  TYR207      0.1605
     64  C         36.0930    5.7650   38.5980 C.2   207  TYR207      0.2264
     65  O         36.3150    4.9790   37.6730 O.2   207  TYR207     -0.2867
     66  CB        38.5500    5.8400   39.1050 C.3   207  TYR207      0.0534
     67  CG        39.6410    5.9870   40.1400 C.ar  207  TYR207     -0.0201
     68  CD1       40.0710    7.2450   40.5520 C.ar  207  TYR207     -0.0009
     69  CD2       40.2500    4.8710   40.7010 C.ar  207  TYR207     -0.0009
     70  CE1       41.0700    7.3870   41.4970 C.ar  207  TYR207      0.0417
     71  CE2       41.2570    5.0050   41.6500 C.ar  207  TYR207      0.0417
     72  CZ        41.6620    6.2610   42.0420 C.ar  207  TYR207      0.1957
     73  OH        42.6630    6.4000   42.9820 O.3   207  TYR207     -0.2866
     74  N         47.7480    7.8840   40.2100 N.3   227  PHE227     -0.1227
     75  CA        47.5580    7.7580   41.6490 C.3   227  PHE227      0.1736
     76  C         48.4960    6.6790   42.1990 C.2   227  PHE227      0.2595
     77  O         49.0410    5.8690   41.4430 O.2   227  PHE227     -0.2718
     78  CB        46.0940    7.3830   41.9290 C.3   227  PHE227      0.0547
     79  CG        45.1130    8.3920   41.4030 C.ar  227  PHE227     -0.0202
     80  CD1       44.5990    8.2830   40.1130 C.ar  227  PHE227     -0.0042
     81  CD2       44.7210    9.4700   42.1900 C.ar  227  PHE227     -0.0042
     82  CE1       43.7020    9.2350   39.6160 C.ar  227  PHE227     -0.0003
     83  CE2       43.8240   10.4290   41.7000 C.ar  227  PHE227     -0.0003
     84  CZ        43.3120   10.3060   40.4130 C.ar  227  PHE227     -0.0000
     85  N         48.6840    6.6570   43.5130 N.am  228  TRP228     -0.1962
     86  CA        49.6030    5.6910   44.1130 C.3   228  TRP228      0.1771
     87  C         49.1060    5.3210   45.4950 C.2   228  TRP228      0.2620
     88  O         48.2450    6.0080   46.0580 O.2   228  TRP228     -0.2715
     89  CB        51.0400    6.2280   44.1900 C.3   228  TRP228      0.0590
     90  CG        51.1800    7.4850   45.0100 C.ar  228  TRP228      0.0006
     91  CD1       51.0890    8.7670   44.5590 C.ar  228  TRP228      0.0946
     92  CD2       51.4420    7.5730   46.4210 C.ar  228  TRP228      0.0152
     93  NE1       51.2800    9.6500   45.5960 N.ar  228  TRP228     -0.2442
     94  CE2       51.4890    8.9440   46.7490 C.ar  228  TRP228      0.0810
     95  CE3       51.6350    6.6280   47.4330 C.ar  228  TRP228      0.0012
     96  CZ2       51.7230    9.3940   48.0590 C.ar  228  TRP228      0.0191
     97  CZ3       51.8690    7.0780   48.7350 C.ar  228  TRP228      0.0001
     98  CH2       51.9070    8.4490   49.0340 C.ar  228  TRP228      0.0015
     99  N         49.6360    4.2270   46.0310 N.am  229  GLY229     -0.1940
    100  CA        49.2430    3.7650   47.3510 C.3   229  GLY229      0.2014
    101  C         50.2520    2.7770   47.9020 C.2   229  GLY229      0.2638
    102  O         51.1210    2.2880   47.1680 O.2   229  GLY229     -0.2714
    103  N         50.1640    2.4890   49.1970 N.am  230  VAL230     -0.1977
    104  CA        51.1390    1.6070   49.8230 C.3   230  VAL230      0.1596
    105  C         50.4500    0.3920   50.4360 C.2   230  VAL230      0.2287
    106  O         49.5010    0.5270   51.2100 O.2   230  VAL230     -0.2864
    107  CB        51.9630    2.3540   50.8850 C.3   230  VAL230      0.0276
    108  CG1       52.8510    1.3810   51.6640 C.3   230  VAL230      0.0022
    109  CG2       52.8220    3.4270   50.2190 C.3   230  VAL230      0.0022
@<TRIPOS>BOND
     1    65    64    2
     2    25    26    2
     3    25    24    1
     4    24    27    1
     5    24    23    1
     6    64    63    1
     7    66    63    1
     8    66    67    1
     9    27    28    1
    10    82    80   ar
    11    82    84   ar
    12    63    62    1
    13    29    28   ar
    14    29    31   ar
    15    80    79   ar
    16    67    68   ar
    17    67    69   ar
    18    28    30   ar
    19    74    75    1
    20    84    83   ar
    21    68    70   ar
    22    69    71   ar
    23    31    32   ar
    24     1     2    1
    25    79    78    1
    26    79    81   ar
    27    77    76    2
    28    70    72   ar
    29    30    32   ar
    30    30    33   ar
    31    75    78    1
    32    75    76    1
    33    71    72   ar
    34    83    81   ar
    35    72    73    1
    36    76    85   am
    37    32    34   ar
    38    33    35   ar
    39     2     5    1
    40     2     3    1
    41     5     6    1
    42    85    86    1
    43    34    36   ar
    44    57    56    2
    45    35    36   ar
    46     3     4    2
    47     3     9   am
    48    86    89    1
    49    86    87    1
    50     7     6   ar
    51    89    90    1
    52     6     8   ar
    53    56    55    1
    54    91    90   ar
    55    91    93   ar
    56     9    10    1
    57    90    92   ar
    58    58    55    1
    59    58    59    1
    60    87    99   am
    61    87    88    2
    62    93    94   ar
    63    55    54    1
    64    11    10    1
    65    11    12    2
    66    99   100    1
    67    10    13    1
    68    92    94   ar
    69    92    95   ar
    70    59    61   am
    71    59    60    2
    72    94    96   ar
    73    14    13    1
    74   102   101    2
    75   100   101    1
    76    44    42    1
    77    95    97   ar
    78    42    41    1
    79   101   103   am
    80    96    98   ar
    81    97    98   ar
    82    37    38    1
    83   103   104    1
    84    41    38    1
    85    41    43    1
    86    38    39    1
    87   104   105    1
    88   104   107    1
    89    48    47    2
    90   109   107    1
    91   105   106    2
    92    47    46    1
    93   107   108    1
    94    39    40    2
    95    17    18    2
    96    17    16    1
    97    19    16    1
    98    19    20    1
    99    21    20    1
   100    15    16    1
   101    49    46    1
   102    49    50    1
   103    20    22    1
   104    46    45    1
   105    50    51    1
   106    53    51   ar
   107    51    52   ar
