@<TRIPOS>MOLECULE
tmp/4k42A01.pdb
 151 145 0 0 0
SMALL
GASTEIGER

@<TRIPOS>ATOM
      1  N          2.9430   18.6010  -70.9120 N.3   119  TYR119     -0.1241
      2  CA         3.9320   18.5460  -71.9830 C.3   119  TYR119      0.1605
      3  C          3.2050   18.3280  -73.3030 C.2   119  TYR119      0.2264
      4  O          2.1220   17.7350  -73.3230 O.2   119  TYR119     -0.2867
      5  CB         4.9280   17.4110  -71.7200 C.3   119  TYR119      0.0534
      6  CG         6.1700   17.4320  -72.5940 C.ar  119  TYR119     -0.0201
      7  CD1        7.0150   18.5250  -72.5980 C.ar  119  TYR119     -0.0009
      8  CD2        6.5180   16.3460  -73.3810 C.ar  119  TYR119     -0.0009
      9  CE1        8.1600   18.5530  -73.3770 C.ar  119  TYR119      0.0417
     10  CE2        7.6580   16.3630  -74.1690 C.ar  119  TYR119      0.0417
     11  CZ         8.4790   17.4690  -74.1650 C.ar  119  TYR119      0.1957
     12  OH         9.6120   17.4880  -74.9450 O.3   119  TYR119     -0.2866
     13  N          3.8920   16.8170  -77.2120 N.3   121  ALA121     -0.1231
     14  CA         4.7920   16.0350  -78.0680 C.3   121  ALA121      0.1694
     15  C          4.2260   15.8090  -79.4750 C.2   121  ALA121      0.2591
     16  O          3.0190   15.6340  -79.6540 O.2   121  ALA121     -0.2718
     17  CB         5.1070   14.6950  -77.4080 C.3   121  ALA121      0.0304
     18  N          5.1100   15.8060  -80.4690 N.am  122  ILE122     -0.1980
     19  CA         4.7150   15.5180  -81.8430 C.3   122  ILE122      0.1595
     20  C          4.3650   14.0400  -81.9880 C.2   122  ILE122      0.2287
     21  O          5.1390   13.1690  -81.5850 O.2   122  ILE122     -0.2864
     22  CB         5.8380   15.8480  -82.8320 C.3   122  ILE122      0.0276
     23  CG1        6.2840   17.3090  -82.6730 C.3   122  ILE122      0.0022
     24  CG2        5.3850   15.5830  -84.2680 C.3   122  ILE122      0.0022
     25  CD1        7.5160   17.6710  -83.4680 C.3   122  ILE122      0.0001
     26  N          6.7830   11.5940  -83.7570 N.3   125  VAL125     -0.1245
     27  CA         7.9460   11.3530  -82.9220 C.3   125  VAL125      0.1561
     28  C          7.6670   10.2480  -81.8990 C.2   125  VAL125      0.2260
     29  O          8.4930    9.3550  -81.6860 O.2   125  VAL125     -0.2867
     30  CB         8.3840   12.6560  -82.2070 C.3   125  VAL125      0.0252
     31  CG1        9.5580   12.4090  -81.2710 C.3   125  VAL125      0.0019
     32  CG2        8.7510   13.7140  -83.2270 C.3   125  VAL125      0.0019
     33  N          9.3780    6.3780  -81.2640 N.3   129  TYR129     -0.1227
     34  CA         9.8460    5.9430  -79.9600 C.3   129  TYR129      0.1736
     35  C          9.2560    4.5720  -79.6220 C.2   129  TYR129      0.2595
     36  O          9.9430    3.7080  -79.0880 O.2   129  TYR129     -0.2718
     37  CB         9.4500    6.9520  -78.8770 C.3   129  TYR129      0.0548
     38  CG        10.1420    8.2970  -78.9520 C.ar  129  TYR129     -0.0200
     39  CD1       11.2130    8.5110  -79.8090 C.ar  129  TYR129     -0.0009
     40  CD2        9.7230    9.3520  -78.1490 C.ar  129  TYR129     -0.0009
     41  CE1       11.8480    9.7450  -79.8690 C.ar  129  TYR129      0.0417
     42  CE2       10.3450   10.5860  -78.2010 C.ar  129  TYR129      0.0417
     43  CZ        11.4120   10.7780  -79.0610 C.ar  129  TYR129      0.1957
     44  OH        12.0410   12.0020  -79.1220 O.3   129  TYR129     -0.2866
     45  N          7.9800    4.3840  -79.9430 N.am  130  ALA130     -0.1980
     46  CA         7.2900    3.1370  -79.6530 C.3   130  ALA130      0.1597
     47  C          7.8960    1.9430  -80.3920 C.2   130  ALA130      0.2287
     48  O          7.7410    0.7950  -79.9570 O.2   130  ALA130     -0.2864
     49  CB         5.8060    3.2650  -79.9890 C.3   130  ALA130      0.0319
     50  N         11.0820    1.6670  -80.7860 N.3   132  GLY132     -0.1210
     51  CA        12.4220    1.5380  -80.2350 C.3   132  GLY132      0.1956
     52  C         13.4780    2.2000  -81.0990 C.2   132  GLY132      0.2612
     53  O         14.5880    1.6940  -81.2400 O.2   132  GLY132     -0.2717
     54  N         13.1160    3.3360  -81.6820 N.am  133  ARG133     -0.1965
     55  CA        14.0120    4.0950  -82.5430 C.3   133  ARG133      0.1729
     56  C         13.9670    5.5680  -82.1760 C.2   133  ARG133      0.2616
     57  O         12.9280    6.0890  -81.7620 O.2   133  ARG133     -0.2715
     58  CB        13.5980    3.9470  -84.0070 C.3   133  ARG133      0.0348
     59  CG        13.6770    2.5280  -84.5460 C.3   133  ARG133      0.0492
     60  CD        13.1660    2.4550  -85.9640 C.3   133  ARG133      0.2205
     61  NE        13.5010    1.1800  -86.5850 N.pl3 133  ARG133     -0.0865
     62  CZ        12.8750    0.0400  -86.3260 C.cat 133  ARG133      0.5346
     63  NH1       11.8870    0.0020  -85.4470 N.pl3 133  ARG133      0.1354
     64  NH2       13.2440   -1.0690  -86.9430 N.pl3 133  ARG133      0.1354
     65  N         15.1010    6.2370  -82.3300 N.am  134  THR134     -0.1951
     66  CA        15.1430    7.6860  -82.2340 C.3   134  THR134      0.1897
     67  C         15.4650    8.2730  -83.6050 C.2   134  THR134      0.2313
     68  O         15.4240    9.4870  -83.7910 O.2   134  THR134     -0.2863
     69  CB        16.1600    8.1530  -81.1740 C.3   134  THR134      0.1794
     70  OG1       17.4220    7.5080  -81.3900 O.3   134  THR134     -0.2208
     71  CG2       15.6670    7.8230  -79.7750 C.3   134  THR134      0.0378
     72  N         18.1610   11.3100  -84.3670 N.3   153  GLU153     -0.1231
     73  CA        18.6680   11.3970  -83.0050 C.3   153  GLU153      0.1699
     74  C         17.5720   11.8430  -82.0300 C.2   153  GLU153      0.2593
     75  O         17.8560   12.4630  -81.0050 O.2   153  GLU153     -0.2718
     76  CB        19.8670   12.3540  -82.9400 C.3   153  GLU153      0.0402
     77  CG        21.0330   11.9640  -83.8400 C.3   153  GLU153      0.1161
     78  CD        21.8710   10.8530  -83.2550 C.2   153  GLU153      0.3649
     79  OE1       21.3670   10.1630  -82.3360 O.co2 153  GLU153     -0.2457
     80  OE2       23.0310   10.6840  -83.7130 O.co2 153  GLU153     -0.2457
     81  N         16.3220   11.5440  -82.3740 N.am  154  GLY154     -0.1942
     82  CA        15.2040   11.7240  -81.4610 C.3   154  GLY154      0.2014
     83  C         14.3850   12.9840  -81.6610 C.2   154  GLY154      0.2639
     84  O         13.4290   13.2230  -80.9150 O.2   154  GLY154     -0.2714
     85  N         14.7540   13.7850  -82.6590 N.am  155  TYR155     -0.1959
     86  CA        14.0410   15.0300  -82.9520 C.3   155  TYR155      0.1771
     87  C         13.5990   15.0750  -84.4060 C.2   155  TYR155      0.2619
     88  O         14.3570   14.7130  -85.2990 O.2   155  TYR155     -0.2715
     89  CB        14.9320   16.2380  -82.6720 C.3   155  TYR155      0.0574
     90  CG        15.4640   16.2850  -81.2640 C.ar  155  TYR155     -0.0198
     91  CD1       14.7360   16.8740  -80.2450 C.ar  155  TYR155     -0.0009
     92  CD2       16.7020   15.7320  -80.9540 C.ar  155  TYR155     -0.0009
     93  CE1       15.2220   16.9150  -78.9510 C.ar  155  TYR155      0.0417
     94  CE2       17.1930   15.7670  -79.6710 C.ar  155  TYR155      0.0417
     95  CZ        16.4430   16.3590  -78.6710 C.ar  155  TYR155      0.1957
     96  OH        16.9340   16.3990  -77.3910 O.3   155  TYR155     -0.2866
     97  N         12.3700   15.5310  -84.6310 N.am  156  ALA156     -0.1977
     98  CA        11.8370   15.6710  -85.9800 C.3   156  ALA156      0.1597
     99  C         12.5940   16.7650  -86.7290 C.2   156  ALA156      0.2287
    100  O         13.1100   17.7070  -86.1290 O.2   156  ALA156     -0.2864
    101  CB        10.3560   15.9900  -85.9430 C.3   156  ALA156      0.0319
    102  N          5.4430    5.6730  -73.0800 N.3   331  ILE331     -0.1231
    103  CA         6.8230    5.2610  -72.8280 C.3   331  ILE331      0.1692
    104  C          7.6670    6.4670  -72.4280 C.2   331  ILE331      0.2591
    105  O          8.4190    6.4130  -71.4560 O.2   331  ILE331     -0.2718
    106  CB         7.4470    4.6080  -74.0760 C.3   331  ILE331      0.0266
    107  CG1        6.6710    3.3470  -74.4610 C.3   331  ILE331      0.0019
    108  CG2        8.9000    4.2380  -73.8310 C.3   331  ILE331      0.0020
    109  CD1        6.8030    2.9620  -75.9250 C.3   331  ILE331      0.0001
    110  N          7.5380    7.5490  -73.1900 N.am  332  LEU332     -0.1980
    111  CA         8.2580    8.7880  -72.9190 C.3   332  LEU332      0.1596
    112  C          7.9850    9.2840  -71.5050 C.2   332  LEU332      0.2287
    113  O          8.9080    9.6500  -70.7770 O.2   332  LEU332     -0.2864
    114  CB         7.8400    9.8550  -73.9300 C.3   332  LEU332      0.0297
    115  CG         8.5320   11.2120  -73.8210 C.3   332  LEU332      0.0022
    116  CD1        9.9980   11.0870  -74.1930 C.3   332  LEU332      0.0001
    117  CD2        7.8480   12.2380  -74.7050 C.3   332  LEU332      0.0001
    118  N          9.7400    7.4670  -68.4100 N.3   335  LEU335     -0.1245
    119  CA        11.1710    7.6040  -68.1370 C.3   335  LEU335      0.1561
    120  C         11.4070    8.5120  -66.9330 C.2   335  LEU335      0.2260
    121  O         10.7110    9.5180  -66.7600 O.2   335  LEU335     -0.2867
    122  CB        11.8910    8.1740  -69.3590 C.3   335  LEU335      0.0270
    123  CG        11.8990    7.2940  -70.6060 C.3   335  LEU335      0.0019
    124  CD1       12.3310    8.1000  -71.8150 C.3   335  LEU335      0.0001
    125  CD2       12.8100    6.0900  -70.4100 C.3   335  LEU335      0.0001
    126  N         14.1350   10.1840  -66.5220 N.3   337  THR337     -0.1203
    127  CA        14.8180   11.3280  -67.1030 C.3   337  THR337      0.1994
    128  C         13.8410   12.3760  -67.6400 C.2   337  THR337      0.2617
    129  O         14.1520   13.5690  -67.6590 O.2   337  THR337     -0.2717
    130  CB        15.7850   10.8760  -68.2200 C.3   337  THR337      0.1784
    131  OG1       16.2690   12.0190  -68.9340 O.3   337  THR337     -0.2211
    132  CG2       15.1000    9.9370  -69.1920 C.3   337  THR337      0.0376
    133  N         12.6620   11.9290  -68.0560 N.am  338  PHE338     -0.1975
    134  CA        11.6510   12.8190  -68.6140 C.3   338  PHE338      0.1639
    135  C         10.9450   13.6620  -67.5480 C.2   338  PHE338      0.2290
    136  O         10.2750   14.6410  -67.8700 O.2   338  PHE338     -0.2864
    137  CB        10.6220   11.9920  -69.3930 C.3   338  PHE338      0.0560
    138  CG         9.5330   12.8110  -70.0120 C.ar  338  PHE338     -0.0200
    139  CD1        9.7560   13.4910  -71.2000 C.ar  338  PHE338     -0.0042
    140  CD2        8.2820   12.9090  -69.4070 C.ar  338  PHE338     -0.0042
    141  CE1        8.7600   14.2430  -71.7670 C.ar  338  PHE338     -0.0003
    142  CE2        7.2910   13.6690  -69.9750 C.ar  338  PHE338     -0.0003
    143  CZ         7.5300   14.3340  -71.1510 C.ar  338  PHE338     -0.0000
    144  N         11.4930   17.1990  -67.4940 N.3   341  MET341     -0.1245
    145  CA        11.1060   17.8220  -68.7560 C.3   341  MET341      0.1570
    146  C          9.6610   18.3250  -68.7690 C.2   341  MET341      0.2261
    147  O          9.2620   19.0460  -69.6900 O.2   341  MET341     -0.2867
    148  CB        11.3130   16.8500  -69.9170 C.3   341  MET341      0.0387
    149  CG        12.7260   16.3140  -70.0380 C.3   341  MET341      0.0595
    150  SD        12.9780   15.3440  -71.5310 S.3   341  MET341     -0.1393
    151  CE        12.7600   16.5970  -72.8080 C.3   341  MET341      0.0692
@<TRIPOS>BOND
     1    64    62    1
     2    99   100    2
     3    99    98    1
     4    61    62    2
     5    61    60    1
     6    62    63    1
     7    98   101    1
     8    98    97    1
     9    60    59    1
    10    88    87    2
    11    97    87   am
    12    59    58    1
    13    87    86    1
    14    72    73    1
    15    24    22    1
    16    58    55    1
    17    77    78    1
    18    77    76    1
    19    68    67    2
    20    26    27    1
    21    80    78   ar
    22    67    66    1
    23    25    23    1
    24    78    79   ar
    25    32    30    1
    26    73    76    1
    27    73    74    1
    28    86    89    1
    29    86    85    1
    30    27    30    1
    31    27    28    1
    32    22    23    1
    33    22    19    1
    34    89    90    1
    35    85    83   am
    36    55    56    1
    37    55    54    1
    38    81    74   am
    39    81    82    1
    40    65    66    1
    41    65    56   am
    42    66    69    1
    43    30    31    1
    44    56    57    2
    45    74    75    2
    46    20    19    1
    47    20    21    2
    48    28    29    2
    49    19    18    1
    50    54    52   am
    51    83    82    1
    52    83    84    2
    53    70    69    1
    54    90    92   ar
    55    90    91   ar
    56    33    34    1
    57    53    52    2
    58    69    71    1
    59    52    51    1
    60    92    94   ar
    61    50    51    1
    62    18    15   am
    63    47    48    2
    64    47    46    1
    65    91    93   ar
    66    49    46    1
    67    34    35    1
    68    34    37    1
    69    45    46    1
    70    45    35   am
    71    41    39   ar
    72    41    43   ar
    73    39    38   ar
    74    94    95   ar
    75    16    15    2
    76    35    36    2
    77    15    14    1
    78    44    43    1
    79    43    42   ar
    80    38    37    1
    81    38    40   ar
    82    93    95   ar
    83    95    96    1
    84    42    40   ar
    85    14    17    1
    86    14    13    1
    87   109   107    1
    88    12    11    1
    89   117   115    1
    90   107   106    1
    91   116   115    1
    92    10    11   ar
    93    10     8   ar
    94    11     9   ar
    95   106   108    1
    96   106   103    1
    97   114   115    1
    98   114   111    1
    99     8     6   ar
   100     9     7   ar
   101     4     3    2
   102     3     2    1
   103   110   111    1
   104   110   104   am
   105   102   103    1
   106   111   112    1
   107   103   104    1
   108   151   150    1
   109     7     6   ar
   110     6     5    1
   111   104   105    2
   112     2     5    1
   113     2     1    1
   114   124   123    1
   115   141   139   ar
   116   141   143   ar
   117   150   149    1
   118   112   113    2
   119   139   138   ar
   120   143   142   ar
   121   123   125    1
   122   123   122    1
   123   149   148    1
   124   138   140   ar
   125   138   137    1
   126   142   140   ar
   127   148   145    1
   128   147   146    2
   129   137   134    1
   130   122   119    1
   131   132   130    1
   132   131   130    1
   133   146   145    1
   134   145   144    1
   135   134   133    1
   136   134   135    1
   137   118   119    1
   138   130   127    1
   139   119   120    1
   140   133   128   am
   141   136   135    2
   142   129   128    2
   143   128   127    1
   144   127   126    1
   145   120   121    2
