@<TRIPOS>MOLECULE
tmp/4k43A01.pdb
 171 164 0 0 0
SMALL
GASTEIGER

@<TRIPOS>ATOM
      1  N        -23.7210  -19.6890    4.9180 N.3   119  TYR119     -0.1241
      2  CA       -24.6840  -19.9540    3.8590 C.3   119  TYR119      0.1605
      3  C        -23.9540  -20.0100    2.5180 C.2   119  TYR119      0.2264
      4  O        -22.9090  -19.3800    2.3550 O.2   119  TYR119     -0.2867
      5  CB       -25.7710  -18.8760    3.8460 C.3   119  TYR119      0.0534
      6  CG       -26.9080  -19.1430    2.8850 C.ar  119  TYR119     -0.0201
      7  CD1      -27.9490  -19.9920    3.2300 C.ar  119  TYR119     -0.0009
      8  CD2      -26.9480  -18.5340    1.6390 C.ar  119  TYR119     -0.0009
      9  CE1      -28.9910  -20.2350    2.3570 C.ar  119  TYR119      0.0417
     10  CE2      -27.9860  -18.7700    0.7600 C.ar  119  TYR119      0.0417
     11  CZ       -29.0050  -19.6220    1.1240 C.ar  119  TYR119      0.1957
     12  OH       -30.0420  -19.8600    0.2510 O.3   119  TYR119     -0.2866
     13  N        -24.6600  -19.3930   -1.4950 N.3   121  ALA121     -0.1231
     14  CA       -25.5680  -18.8480   -2.5010 C.3   121  ALA121      0.1694
     15  C        -25.0140  -19.0320   -3.9120 C.2   121  ALA121      0.2591
     16  O        -23.8030  -18.9940   -4.1200 O.2   121  ALA121     -0.2718
     17  CB       -25.8260  -17.3750   -2.2270 C.3   121  ALA121      0.0304
     18  N        -25.9060  -19.2250   -4.8800 N.am  122  ILE122     -0.1980
     19  CA       -25.4960  -19.3400   -6.2750 C.3   122  ILE122      0.1595
     20  C        -25.1350  -17.9610   -6.8210 C.2   122  ILE122      0.2287
     21  O        -25.9090  -17.0100   -6.7090 O.2   122  ILE122     -0.2864
     22  CB       -26.5940  -19.9840   -7.1420 C.3   122  ILE122      0.0276
     23  CG1      -26.9030  -21.3910   -6.6180 C.3   122  ILE122      0.0022
     24  CG2      -26.1510  -20.0400   -8.6050 C.3   122  ILE122      0.0022
     25  CD1      -27.9470  -22.1570   -7.4090 C.3   122  ILE122      0.0001
     26  N        -27.4090  -15.9300   -9.1520 N.3   125  VAL125     -0.1245
     27  CA       -28.6240  -15.5010   -8.4680 C.3   125  VAL125      0.1561
     28  C        -28.4060  -14.1940   -7.7140 C.2   125  VAL125      0.2260
     29  O        -29.2780  -13.3240   -7.7090 O.2   125  VAL125     -0.2867
     30  CB       -29.1270  -16.5810   -7.4850 C.3   125  VAL125      0.0252
     31  CG1      -30.4110  -16.1350   -6.8010 C.3   125  VAL125      0.0019
     32  CG2      -29.3520  -17.8950   -8.2140 C.3   125  VAL125      0.0019
     33  N        -30.1480  -10.1750   -7.8160 N.3   129  TYR129     -0.1227
     34  CA       -30.6280   -9.4140   -6.6670 C.3   129  TYR129      0.1736
     35  C        -30.0320   -8.0090   -6.6720 C.2   129  TYR129      0.2595
     36  O        -30.6810   -7.0450   -6.2650 O.2   129  TYR129     -0.2718
     37  CB       -30.2770  -10.1230   -5.3560 C.3   129  TYR129      0.0548
     38  CG       -30.9330  -11.4760   -5.1620 C.ar  129  TYR129     -0.0200
     39  CD1      -32.0130  -11.8740   -5.9420 C.ar  129  TYR129     -0.0009
     40  CD2      -30.4730  -12.3530   -4.1880 C.ar  129  TYR129     -0.0009
     41  CE1      -32.6110  -13.1100   -5.7590 C.ar  129  TYR129      0.0417
     42  CE2      -31.0630  -13.5890   -3.9990 C.ar  129  TYR129      0.0417
     43  CZ       -32.1320  -13.9620   -4.7850 C.ar  129  TYR129      0.1957
     44  OH       -32.7180  -15.1930   -4.5940 O.3   129  TYR129     -0.2866
     45  N        -28.7880   -7.9030   -7.1270 N.am  130  ALA130     -0.1966
     46  CA       -28.0930   -6.6240   -7.1610 C.3   130  ALA130      0.1728
     47  C        -28.7160   -5.6840   -8.1880 C.2   130  ALA130      0.2617
     48  O        -28.6070   -4.4650   -8.0680 O.2   130  ALA130     -0.2715
     49  CB       -26.6170   -6.8350   -7.4640 C.3   130  ALA130      0.0334
     50  N        -29.3760   -6.2550   -9.1910 N.am  131  SER131     -0.1936
     51  CA       -30.0180   -5.4560  -10.2300 C.3   131  SER131      0.2055
     52  C        -31.3930   -4.9790   -9.7770 C.2   131  SER131      0.2644
     53  O        -31.9170   -3.9920  -10.2940 O.2   131  SER131     -0.2714
     54  CB       -30.1450   -6.2580  -11.5290 C.3   131  SER131      0.2130
     55  OG       -31.0430   -7.3440  -11.3840 O.3   131  SER131     -0.2179
     56  N        -31.9690   -5.6880   -8.8100 N.am  132  GLY132     -0.1939
     57  CA       -33.2730   -5.3460   -8.2700 C.3   132  GLY132      0.2014
     58  C        -34.3650   -6.2150   -8.8570 C.2   132  GLY132      0.2639
     59  O        -35.5040   -5.7750   -9.0160 O.2   132  GLY132     -0.2714
     60  N        -34.0090   -7.4570   -9.1690 N.am  133  ARG133     -0.1963
     61  CA       -34.9270   -8.3970   -9.7980 C.3   133  ARG133      0.1729
     62  C        -34.9370   -9.7260   -9.0500 C.2   133  ARG133      0.2616
     63  O        -33.9370  -10.1160   -8.4460 O.2   133  ARG133     -0.2715
     64  CB       -34.5360   -8.6250  -11.2620 C.3   133  ARG133      0.0348
     65  CG       -34.6130   -7.3780  -12.1340 C.3   133  ARG133      0.0492
     66  CD       -33.9730   -7.6150  -13.4950 C.3   133  ARG133      0.2205
     67  NE       -34.2190   -6.5140  -14.4220 N.pl3 133  ARG133     -0.0865
     68  CZ       -33.5480   -5.3650  -14.4220 C.cat 133  ARG133      0.5346
     69  NH1      -32.5860   -5.1520  -13.5340 N.pl3 133  ARG133      0.1354
     70  NH2      -33.8440   -4.4220  -15.3060 N.pl3 133  ARG133      0.1354
     71  N        -36.0790  -10.4060   -9.0850 N.am  134  THR134     -0.1951
     72  CA       -36.1960  -11.7660   -8.5660 C.3   134  THR134      0.1897
     73  C        -36.4940  -12.7230   -9.7180 C.2   134  THR134      0.2313
     74  O        -36.4650  -13.9440   -9.5540 O.2   134  THR134     -0.2863
     75  CB       -37.3020  -11.8820   -7.4960 C.3   134  THR134      0.1794
     76  OG1      -38.5580  -11.4550   -8.0420 O.3   134  THR134     -0.2208
     77  CG2      -36.9620  -11.0320   -6.2850 C.3   134  THR134      0.0378
     78  N        -38.8930  -16.0590   -9.7730 N.3   153  GLU153     -0.1231
     79  CA       -39.3900  -15.8520   -8.4140 C.3   153  GLU153      0.1699
     80  C        -38.2780  -16.0020   -7.3770 C.2   153  GLU153      0.2593
     81  O        -38.5060  -16.4910   -6.2690 O.2   153  GLU153     -0.2718
     82  CB       -40.5320  -16.8280   -8.1050 C.3   153  GLU153      0.0402
     83  CG       -41.7760  -16.6290   -8.9610 C.3   153  GLU153      0.1161
     84  CD       -42.5760  -15.4020   -8.5620 C.2   153  GLU153      0.3649
     85  OE1      -42.2150  -14.7510   -7.5580 O.co2 153  GLU153     -0.2457
     86  OE2      -43.5740  -15.0930   -9.2480 O.co2 153  GLU153     -0.2457
     87  N        -37.0740  -15.5790   -7.7470 N.am  154  GLY154     -0.1942
     88  CA       -35.9510  -15.5610   -6.8280 C.3   154  GLY154      0.2014
     89  C        -35.1980  -16.8760   -6.7490 C.2   154  GLY154      0.2639
     90  O        -34.2690  -17.0080   -5.9520 O.2   154  GLY154     -0.2714
     91  N        -35.5920  -17.8460   -7.5710 N.am  155  TYR155     -0.1959
     92  CA       -34.9560  -19.1620   -7.5690 C.3   155  TYR155      0.1771
     93  C        -34.5260  -19.6020   -8.9680 C.2   155  TYR155      0.2619
     94  O        -35.3130  -19.5730   -9.9160 O.2   155  TYR155     -0.2715
     95  CB       -35.9020  -20.1920   -6.9520 C.3   155  TYR155      0.0574
     96  CG       -36.1040  -19.9760   -5.4720 C.ar  155  TYR155     -0.0198
     97  CD1      -35.1730  -20.4400   -4.5520 C.ar  155  TYR155     -0.0009
     98  CD2      -37.2130  -19.2910   -4.9940 C.ar  155  TYR155     -0.0009
     99  CE1      -35.3430  -20.2380   -3.1970 C.ar  155  TYR155      0.0417
    100  CE2      -37.3950  -19.0830   -3.6370 C.ar  155  TYR155      0.0417
    101  CZ       -36.4550  -19.5590   -2.7440 C.ar  155  TYR155      0.1957
    102  OH       -36.6230  -19.3590   -1.3920 O.3   155  TYR155     -0.2866
    103  N        -33.2650  -20.0110   -9.0740 N.am  156  ALA156     -0.1977
    104  CA       -32.6820  -20.4490  -10.3360 C.3   156  ALA156      0.1597
    105  C        -33.2890  -21.7680  -10.8000 C.2   156  ALA156      0.2287
    106  O        -33.6500  -22.6180   -9.9870 O.2   156  ALA156     -0.2864
    107  CB       -31.1790  -20.5820  -10.1950 C.3   156  ALA156      0.0319
    108  N        -21.9210   -7.9020   -4.3890 N.3   327  ILE327     -0.1245
    109  CA       -22.9210   -6.9220   -3.9750 C.3   327  ILE327      0.1561
    110  C        -24.2410   -7.6120   -3.6520 C.2   327  ILE327      0.2260
    111  O        -24.8820   -7.2990   -2.6530 O.2   327  ILE327     -0.2867
    112  CB       -23.1540   -5.8530   -5.0680 C.3   327  ILE327      0.0252
    113  CG1      -21.8800   -5.0350   -5.2870 C.3   327  ILE327      0.0019
    114  CG2      -24.3010   -4.9150   -4.6790 C.3   327  ILE327      0.0019
    115  CD1      -21.9140   -4.1480   -6.5170 C.3   327  ILE327      0.0001
    116  N        -26.3490   -7.5960    0.1770 N.3   331  ILE331     -0.1231
    117  CA       -27.7130   -7.1670    0.4720 C.3   331  ILE331      0.1692
    118  C        -28.5310   -8.3430    0.9920 C.2   331  ILE331      0.2591
    119  O        -29.4200   -8.1680    1.8210 O.2   331  ILE331     -0.2718
    120  CB       -28.4190   -6.5730   -0.7630 C.3   331  ILE331      0.0266
    121  CG1      -27.4860   -5.6250   -1.5230 C.3   331  ILE331      0.0019
    122  CG2      -29.6750   -5.8260   -0.3270 C.3   331  ILE331      0.0020
    123  CD1      -28.0410   -5.1310   -2.8430 C.3   331  ILE331      0.0001
    124  N        -28.2270   -9.5400    0.5000 N.am  332  LEU332     -0.1980
    125  CA       -28.8940  -10.7480    0.9700 C.3   332  LEU332      0.1596
    126  C        -28.6080  -10.9720    2.4510 C.2   332  LEU332      0.2287
    127  O        -29.5120  -11.2810    3.2270 O.2   332  LEU332     -0.2864
    128  CB       -28.4370  -11.9630    0.1600 C.3   332  LEU332      0.0297
    129  CG       -29.0970  -13.3010    0.5010 C.3   332  LEU332      0.0022
    130  CD1      -30.5620  -13.3060    0.0950 C.3   332  LEU332      0.0001
    131  CD2      -28.3550  -14.4460   -0.1640 C.3   332  LEU332      0.0001
    132  N        -30.4450   -8.6840    4.6290 N.3   335  LEU335     -0.1245
    133  CA       -31.8870   -8.7540    4.4450 C.3   335  LEU335      0.1561
    134  C        -32.5340   -9.4320    5.6490 C.2   335  LEU335      0.2260
    135  O        -32.0630  -10.4690    6.1200 O.2   335  LEU335     -0.2867
    136  CB       -32.2360   -9.5030    3.1560 C.3   335  LEU335      0.0270
    137  CG       -33.6320   -9.2410    2.5810 C.3   335  LEU335      0.0019
    138  CD1      -33.8100   -7.7800    2.1740 C.3   335  LEU335      0.0001
    139  CD2      -33.9030  -10.1560    1.3990 C.3   335  LEU335      0.0001
    140  N        -35.4520  -10.8950    5.9520 N.3   337  THR337     -0.1203
    141  CA       -36.1740  -12.1310    5.6550 C.3   337  THR337      0.1994
    142  C        -35.2120  -13.2560    5.2770 C.2   337  THR337      0.2617
    143  O        -35.6430  -14.3330    4.8650 O.2   337  THR337     -0.2717
    144  CB       -37.2230  -11.9490    4.5130 C.3   337  THR337      0.1784
    145  OG1      -37.2670  -13.1320    3.7070 O.3   337  THR337     -0.2211
    146  CG2      -36.9080  -10.7530    3.6120 C.3   337  THR337      0.0376
    147  N        -33.9140  -13.0040    5.4370 N.am  338  PHE338     -0.1975
    148  CA       -32.8800  -13.9850    5.1170 C.3   338  PHE338      0.1639
    149  C        -32.2320  -14.5630    6.3730 C.2   338  PHE338      0.2290
    150  O        -31.6550  -15.6500    6.3380 O.2   338  PHE338     -0.2864
    151  CB       -31.8120  -13.3450    4.2270 C.3   338  PHE338      0.0560
    152  CG       -30.5990  -14.2060    4.0170 C.ar  338  PHE338     -0.0200
    153  CD1      -30.6190  -15.2410    3.0990 C.ar  338  PHE338     -0.0042
    154  CD2      -29.4390  -13.9780    4.7400 C.ar  338  PHE338     -0.0042
    155  CE1      -29.5050  -16.0360    2.9050 C.ar  338  PHE338     -0.0003
    156  CE2      -28.3220  -14.7680    4.5510 C.ar  338  PHE338     -0.0003
    157  CZ       -28.3540  -15.7980    3.6330 C.ar  338  PHE338     -0.0000
    158  N        -32.4090  -18.0750    7.3040 N.3   341  MET341     -0.1245
    159  CA       -31.8610  -19.0210    6.3350 C.3   341  MET341      0.1570
    160  C        -30.3960  -19.3360    6.6060 C.2   341  MET341      0.2261
    161  O        -29.8270  -20.2230    5.9740 O.2   341  MET341     -0.2867
    162  CB       -32.0130  -18.4780    4.9150 C.3   341  MET341      0.0387
    163  CG       -33.4540  -18.2010    4.5160 C.3   341  MET341      0.0595
    164  SD       -33.6360  -17.6990    2.7950 S.3   341  MET341     -0.1393
    165  CE       -33.0080  -19.1420    1.9350 C.3   341  MET341      0.0692
    166  N        -30.0990  -24.0610    1.5660 N.3   360  CYS360     -0.1235
    167  CA       -29.4190  -23.6370    0.3440 C.3   360  CYS360      0.1677
    168  C        -30.0320  -24.2840   -0.8950 C.2   360  CYS360      0.2270
    169  O        -30.0540  -23.6850   -1.9710 O.2   360  CYS360     -0.2867
    170  CB       -27.9350  -23.9820    0.4270 C.3   360  CYS360      0.0956
    171  SG       -27.1780  -23.4910    1.9860 S.3   360  CYS360     -0.0801
@<TRIPOS>BOND
     1    70    68    1
     2    68    67    2
     3    68    69    1
     4    67    66    1
     5    66    65    1
     6    65    64    1
     7    54    55    1
     8    54    51    1
     9    64    61    1
    10   105   104    1
    11   105   106    2
    12   104   107    1
    13   104   103    1
    14    53    52    2
    15    51    52    1
    16    51    50    1
    17    94    93    2
    18    61    60    1
    19    61    62    1
    20    52    56   am
    21    78    79    1
    22    73    74    2
    23    73    72    1
    24    86    84   ar
    25    50    47   am
    26    60    58   am
    27    26    27    1
    28    71    62   am
    29    71    72    1
    30   103    93   am
    31    62    63    2
    32    59    58    2
    33    93    92    1
    34    83    84    1
    35    83    82    1
    36    58    57    1
    37    56    57    1
    38    24    22    1
    39    72    75    1
    40    84    85   ar
    41    27    28    1
    42    27    30    1
    43    79    82    1
    44    79    80    1
    45    32    30    1
    46    47    48    2
    47    47    46    1
    48    76    75    1
    49    33    34    1
    50    87    80   am
    51    87    88    1
    52    28    29    2
    53    91    92    1
    54    91    89   am
    55    92    95    1
    56    75    77    1
    57    30    31    1
    58    49    46    1
    59    25    23    1
    60    80    81    2
    61    46    45    1
    62    22    23    1
    63    22    19    1
    64    45    35   am
    65    95    96    1
    66    88    89    1
    67    20    21    2
    68    20    19    1
    69    89    90    2
    70    35    34    1
    71    35    36    2
    72    34    37    1
    73   115   113    1
    74    19    18    1
    75    39    41   ar
    76    39    38   ar
    77    41    43   ar
    78    96    98   ar
    79    96    97   ar
    80    37    38    1
    81   113   112    1
    82    38    40   ar
    83   112   114    1
    84   112   109    1
    85    98   100   ar
    86    18    15   am
    87    43    44    1
    88    43    42   ar
    89    97    99   ar
    90   108   109    1
    91    40    42   ar
    92    16    15    2
    93   109   110    1
    94    15    14    1
    95   110   111    2
    96   100   101   ar
    97    99   101   ar
    98   123   121    1
    99   101   102    1
   100    14    17    1
   101    14    13    1
   102   169   168    2
   103   121   120    1
   104   168   167    1
   105   120   122    1
   106   120   117    1
   107   131   129    1
   108   130   129    1
   109   128   129    1
   110   128   125    1
   111   116   117    1
   112    12    11    1
   113   167   170    1
   114   167   166    1
   115   170   171    1
   116   117   118    1
   117   124   125    1
   118   124   118   am
   119    10    11   ar
   120    10     8   ar
   121   125   126    1
   122   118   119    2
   123    11     9   ar
   124   139   137    1
   125     8     6   ar
   126   165   164    1
   127   138   137    1
   128     4     3    2
   129     9     7   ar
   130   126   127    2
   131     3     2    1
   132   137   136    1
   133   164   163    1
   134     6     7   ar
   135     6     5    1
   136   155   153   ar
   137   155   157   ar
   138   153   152   ar
   139   136   133    1
   140   146   144    1
   141   157   156   ar
   142   145   144    1
   143     5     2    1
   144     2     1    1
   145   152   151    1
   146   152   154   ar
   147   151   148    1
   148   133   132    1
   149   133   134    1
   150   144   141    1
   151   163   162    1
   152   156   154   ar
   153   143   142    2
   154   162   159    1
   155   148   147    1
   156   148   149    1
   157   142   147   am
   158   142   141    1
   159   134   135    2
   160   141   140    1
   161   161   160    2
   162   159   160    1
   163   159   158    1
   164   150   149    2
