@<TRIPOS>MOLECULE
tmp/4k45A00.pdb
 155 151 0 0 0
SMALL
GASTEIGER

@<TRIPOS>ATOM
      1  N         -4.5970   -0.8710   -0.0020 N.3    14  ARG14      -0.1245
      2  CA        -4.6450   -1.5850   -1.2700 C.3    14  ARG14       0.1563
      3  C         -5.0370   -3.0700   -1.0680 C.2    14  ARG14       0.2260
      4  O         -5.9220   -3.5590   -1.7680 O.2    14  ARG14      -0.2867
      5  CB        -3.2710   -1.5010   -1.9250 C.3    14  ARG14       0.0307
      6  CG        -3.1160   -2.2980   -3.2020 C.3    14  ARG14       0.0489
      7  CD        -1.6640   -2.2180   -3.6640 C.3    14  ARG14       0.2205
      8  NE        -1.3930   -2.8140   -4.9570 N.pl3  14  ARG14      -0.0865
      9  CZ        -1.2660   -2.1550   -6.1120 C.cat  14  ARG14       0.5346
     10  NH1       -1.4550   -0.8290   -6.2130 N.pl3  14  ARG14       0.1354
     11  NH2       -0.9900   -2.8560   -7.1990 N.pl3  14  ARG14       0.1354
     12  N        -10.3050    5.0990   -2.5190 N.3    33  ARG33      -0.1245
     13  CA        -9.6750    5.1730   -1.2090 C.3    33  ARG33       0.1563
     14  C         -8.6750    6.3050   -1.1380 C.2    33  ARG33       0.2260
     15  O         -7.9330    6.5830   -2.1220 O.2    33  ARG33      -0.2867
     16  CB        -9.0030    3.8310   -0.8570 C.3    33  ARG33       0.0307
     17  CG        -8.0090    3.3480   -1.9170 C.3    33  ARG33       0.0489
     18  CD        -7.6050    1.9020   -1.6030 C.3    33  ARG33       0.2205
     19  NE        -6.8440    1.3240   -2.7120 N.pl3  33  ARG33      -0.0865
     20  CZ        -5.5300    1.5090   -2.9090 C.cat  33  ARG33       0.5346
     21  NH1       -4.8010    2.2210   -2.0460 N.pl3  33  ARG33       0.1354
     22  NH2       -4.9420    0.9660   -3.9720 N.pl3  33  ARG33       0.1354
     23  N         -5.2180    7.6960   -0.1810 N.3    35  ARG35      -0.1245
     24  CA        -3.9160    7.0820    0.0380 C.3    35  ARG35       0.1563
     25  C         -3.1660    7.8330    1.1290 C.2    35  ARG35       0.2260
     26  O         -3.5110    8.9690    1.4560 O.2    35  ARG35      -0.2867
     27  CB        -3.0950    7.1190   -1.2410 C.3    35  ARG35       0.0307
     28  CG        -3.7330    6.2800   -2.3560 C.3    35  ARG35       0.0489
     29  CD        -2.9490    6.4390   -3.6480 C.3    35  ARG35       0.2205
     30  NE        -1.6560    5.7800   -3.5930 N.pl3  35  ARG35      -0.0865
     31  CZ        -0.4990    6.4230   -3.7470 C.cat  35  ARG35       0.5346
     32  NH1       -0.4870    7.7430   -3.9240 N.pl3  35  ARG35       0.1354
     33  NH2        0.6660    5.7640   -3.7010 N.pl3  35  ARG35       0.1354
     34  N         -6.6560    6.5070   -4.6120 N.3    42  ALA42      -0.1245
     35  CA        -6.6540    5.4220   -5.6090 C.3    42  ALA42       0.1562
     36  C         -8.0810    5.0310   -5.9460 C.2    42  ALA42       0.2260
     37  O         -8.9370    4.9150   -5.0470 O.2    42  ALA42      -0.2867
     38  CB        -5.8980    4.1940   -5.0990 C.3    42  ALA42       0.0290
     39  N        -10.3810   -1.0910   -8.9060 N.3    45  PHE45      -0.1241
     40  CA       -11.5160   -1.5110   -9.7290 C.3    45  PHE45       0.1605
     41  C        -11.2230   -2.8450  -10.4090 C.2    45  PHE45       0.2264
     42  O        -10.0590   -3.2990  -10.4770 O.2    45  PHE45      -0.2867
     43  CB       -11.8090   -0.4500  -10.8120 C.3    45  PHE45       0.0534
     44  CG       -10.6470   -0.1660  -11.7450 C.ar   45  PHE45      -0.0203
     45  CD1      -10.5220   -0.8580  -12.9390 C.ar   45  PHE45      -0.0042
     46  CD2       -9.6750    0.8010  -11.4160 C.ar   45  PHE45      -0.0042
     47  CE1       -9.4550   -0.5710  -13.8130 C.ar   45  PHE45      -0.0003
     48  CE2       -8.5850    1.0880  -12.2790 C.ar   45  PHE45      -0.0003
     49  CZ        -8.4930    0.3930  -13.4800 C.ar   45  PHE45      -0.0000
     50  N         -7.3010   -3.8770  -10.5610 N.3    52  LYS52      -0.1231
     51  CA        -6.3230   -2.8520  -10.9060 C.3    52  LYS52       0.1693
     52  C         -6.5350   -1.6020  -10.0810 C.2    52  LYS52       0.2592
     53  O         -7.5770   -1.4420   -9.4290 O.2    52  LYS52      -0.2718
     54  CB        -6.4580   -2.4960  -12.3840 C.3    52  LYS52       0.0285
     55  CG        -6.3550   -3.7360  -13.2530 C.3    52  LYS52       0.0035
     56  CD        -6.4900   -3.4390  -14.7430 C.3    52  LYS52       0.0206
     57  CE        -6.4270   -4.7350  -15.5640 C.3    52  LYS52       0.1093
     58  NZ        -5.0310   -5.3800  -15.5080 N.3    52  LYS52      -0.1314
     59  N         -5.5320   -0.7270  -10.0590 N.am   53  HIS53      -0.1962
     60  CA        -5.5790    0.4670   -9.2590 C.3    53  HIS53       0.1787
     61  C         -5.0100    1.6100  -10.0790 C.2    53  HIS53       0.2620
     62  O         -3.9600    1.4620  -10.7200 O.2    53  HIS53      -0.2715
     63  CB        -4.7410    0.2950   -7.9730 C.3    53  HIS53       0.0785
     64  CG        -5.0270   -0.9570   -7.2090 C.ar   53  HIS53       0.0821
     65  ND1       -5.9290   -1.0250   -6.1650 N.ar   53  HIS53      -0.2267
     66  CD2       -4.4930   -2.1980   -7.3230 C.ar   53  HIS53       0.1154
     67  CE1       -5.9630   -2.2630   -5.6980 C.ar   53  HIS53       0.1986
     68  NE2       -5.0950   -2.9990   -6.3810 N.ar   53  HIS53      -0.2212
     69  N         -5.6550    2.7650  -10.0060 N.am   54  CYS54      -0.1954
     70  CA        -5.0990    3.9950  -10.5980 C.3    54  CYS54       0.1843
     71  C         -5.0610    5.1010   -9.5900 C.2    54  CYS54       0.2625
     72  O         -5.9330    5.2310   -8.7360 O.2    54  CYS54      -0.2714
     73  CB        -5.8600    4.4890  -11.8200 C.3    54  CYS54       0.0997
     74  SG        -7.4940    4.8370  -11.6730 S.3    54  CYS54      -0.0797
     75  N         -4.0540    5.9460   -9.7040 N.am   55  ARG55      -0.1977
     76  CA        -3.9390    7.0790   -8.8350 C.3    55  ARG55       0.1597
     77  C         -4.6800    8.2970   -9.3820 C.2    55  ARG55       0.2287
     78  O         -4.6610    8.5440  -10.6200 O.2    55  ARG55      -0.2864
     79  CB        -2.4490    7.4180   -8.6280 C.3    55  ARG55       0.0334
     80  CG        -1.7360    6.3770   -7.7670 C.3    55  ARG55       0.0492
     81  CD        -0.3150    6.7780   -7.4390 C.3    55  ARG55       0.2205
     82  NE         0.5830    6.5740   -8.5610 N.pl3  55  ARG55      -0.0865
     83  CZ         1.7240    7.2350   -8.7280 C.cat  55  ARG55       0.5346
     84  NH1        2.0890    8.1670   -7.8570 N.pl3  55  ARG55       0.1354
     85  NH2        2.4860    6.9770   -9.7830 N.pl3  55  ARG55       0.1354
     86  N         -6.7230   12.9290  -13.4290 N.3    65  LEU65      -0.1231
     87  CA        -6.5100   11.5200  -13.7960 C.3    65  LEU65       0.1693
     88  C         -6.2070   11.4940  -15.2610 C.2    65  LEU65       0.2593
     89  O         -7.0700   11.8110  -16.0660 O.2    65  LEU65      -0.2718
     90  CB        -7.7820   10.7170  -13.5140 C.3    65  LEU65       0.0284
     91  CG        -7.7510    9.2260  -13.8390 C.3    65  LEU65       0.0019
     92  CD1       -6.5250    8.5790  -13.1860 C.3    65  LEU65       0.0001
     93  CD2       -9.0390    8.5960  -13.2890 C.3    65  LEU65       0.0001
     94  N         -4.9770   11.1520  -15.6440 N.am   66  GLY66      -0.1942
     95  CA        -4.5820   11.2230  -17.0450 C.3    66  GLY66       0.2014
     96  C         -4.8270   12.5870  -17.6760 C.2    66  GLY66       0.2638
     97  O         -4.3910   13.6020  -17.1080 O.2    66  GLY66      -0.2714
     98  N         -5.5980   12.5960  -18.7690 N.am   67  ASN67      -0.1972
     99  CA        -5.9220   13.7910  -19.5550 C.3    67  ASN67       0.1688
    100  C         -7.1390   14.5200  -19.0440 C.2    67  ASN67       0.2292
    101  O         -7.6340   15.4460  -19.6770 O.2    67  ASN67      -0.2864
    102  CB        -6.1320   13.4510  -21.0510 C.3    67  ASN67       0.1181
    103  CG        -7.4600   12.6800  -21.3290 C.2    67  ASN67       0.2629
    104  OD1       -8.0740   12.1080  -20.4250 O.2    67  ASN67      -0.2716
    105  ND2       -7.8840   12.6640  -22.5960 N.am   67  ASN67      -0.0877
    106  N        -16.6630    9.0550  -15.0270 N.3    80  TYR80      -0.1241
    107  CA       -16.1900    7.7420  -15.4450 C.3    80  TYR80       0.1605
    108  C        -17.2120    6.6220  -15.2090 C.2    80  TYR80       0.2264
    109  O        -16.9220    5.4660  -15.4490 O.2    80  TYR80      -0.2867
    110  CB       -14.8250    7.4470  -14.7970 C.3    80  TYR80       0.0534
    111  CG       -13.7140    8.2130  -15.4490 C.ar   80  TYR80      -0.0201
    112  CD1      -13.0850    9.2800  -14.7980 C.ar   80  TYR80      -0.0009
    113  CD2      -13.3290    7.9120  -16.7630 C.ar   80  TYR80      -0.0009
    114  CE1      -12.0670   10.0010  -15.4550 C.ar   80  TYR80       0.0417
    115  CE2      -12.3560    8.6260  -17.4080 C.ar   80  TYR80       0.0417
    116  CZ       -11.7130    9.6530  -16.7560 C.ar   80  TYR80       0.1957
    117  OH       -10.7150   10.3170  -17.4410 O.3    80  TYR80      -0.2866
    118  N        -15.6490    5.5710  -20.5330 N.3    84  PRO84      -0.2102
    119  CA       -14.7170    4.5320  -20.0740 C.3    84  PRO84       0.1504
    120  C        -13.4820    5.0640  -19.3590 C.2    84  PRO84       0.2576
    121  O        -12.8930    6.1080  -19.7010 O.2    84  PRO84      -0.2718
    122  CB       -14.3420    3.7770  -21.3540 C.3    84  PRO84       0.0282
    123  CG       -14.6310    4.7120  -22.4780 C.3    84  PRO84       0.0208
    124  CD       -15.7540    5.6440  -21.9920 C.3    84  PRO84       0.0893
    125  N        -13.1150    4.3110  -18.3280 N.am   85  LEU85      -0.1966
    126  CA       -11.9730    4.6220  -17.4840 C.3    85  LEU85       0.1728
    127  C        -10.7710    3.8140  -17.9070 C.2    85  LEU85       0.2616
    128  O         -9.6540    4.3450  -17.9800 O.2    85  LEU85      -0.2715
    129  CB       -12.2960    4.3470  -16.0100 C.3    85  LEU85       0.0311
    130  CG       -11.1170    4.4910  -15.0510 C.3    85  LEU85       0.0022
    131  CD1      -10.6860    5.9430  -14.9350 C.3    85  LEU85       0.0001
    132  CD2      -11.4800    3.9100  -13.6570 C.3    85  LEU85       0.0001
    133  N        -10.9980    2.5340  -18.2000 N.am   86  TYR86      -0.1960
    134  CA        -9.8800    1.6310  -18.5040 C.3    86  TYR86       0.1771
    135  C        -10.2760    0.7350  -19.6690 C.2    86  TYR86       0.2619
    136  O        -11.1360   -0.1390  -19.5280 O.2    86  TYR86      -0.2715
    137  CB        -9.5200    0.7860  -17.2400 C.3    86  TYR86       0.0574
    138  CG        -8.2830   -0.0640  -17.4560 C.ar   86  TYR86      -0.0198
    139  CD1       -7.0200    0.5180  -17.4260 C.ar   86  TYR86      -0.0009
    140  CD2       -8.3810   -1.4140  -17.7540 C.ar   86  TYR86      -0.0009
    141  CE1       -5.9040   -0.2200  -17.6360 C.ar   86  TYR86       0.0417
    142  CE2       -7.2570   -2.1560  -18.0060 C.ar   86  TYR86       0.0417
    143  CZ        -6.0270   -1.5450  -17.9280 C.ar   86  TYR86       0.1957
    144  OH        -4.8900   -2.2860  -18.1770 O.3    86  TYR86      -0.2866
    145  N         -9.6460    0.9510  -20.8320 N.am   87  ARG87      -0.1977
    146  CA       -10.0880    0.3160  -22.0910 C.3    87  ARG87       0.1597
    147  C        -11.5870    0.6040  -22.2640 C.2    87  ARG87       0.2287
    148  O        -11.9700    1.7710  -22.3220 O.2    87  ARG87      -0.2864
    149  CB        -9.7560   -1.1800  -22.1320 C.3    87  ARG87       0.0334
    150  CG        -8.3780   -1.5060  -21.5600 C.3    87  ARG87       0.0492
    151  CD        -7.3180   -0.6670  -22.2500 C.3    87  ARG87       0.2205
    152  NE        -5.9380   -1.1730  -22.1570 N.pl3  87  ARG87      -0.0865
    153  CZ        -4.9080   -0.4920  -21.6400 C.cat  87  ARG87       0.5346
    154  NH1       -3.6840   -1.0210  -21.6590 N.pl3  87  ARG87       0.1354
    155  NH2       -5.0950    0.7190  -21.1060 N.pl3  87  ARG87       0.1354
@<TRIPOS>BOND
     1   105   103   am
     2   123   124    1
     3   123   122    1
     4   148   147    2
     5   147   146    1
     6   151   152    1
     7   151   150    1
     8   152   153    2
     9   149   146    1
    10   149   150    1
    11   146   145    1
    12   124   118    1
    13   154   153    1
    14   153   155    1
    15   122   119    1
    16   103   102    1
    17   103   104    2
    18   102    99    1
    19   145   135   am
    20   118   119    1
    21   119   120    1
    22   121   120    2
    23   101   100    2
    24   135   136    2
    25   135   134    1
    26    99   100    1
    27    99    98    1
    28   120   125   am
    29    98    96   am
    30   134   133    1
    31   134   137    1
    32   125   126    1
    33   133   127   am
    34   144   143    1
    35   142   143   ar
    36   142   140   ar
    37   128   127    2
    38   143   141   ar
    39   127   126    1
    40   140   138   ar
    41    96    97    2
    42    96    95    1
    43   141   139   ar
    44   126   129    1
    45   138   139   ar
    46   138   137    1
    47   117   116    1
    48   115   113   ar
    49   115   116   ar
    50    95    94    1
    51   113   111   ar
    52   116   114   ar
    53    89    88    2
    54   129   130    1
    55    94    88   am
    56    57    58    1
    57    57    56    1
    58   114   112   ar
    59   111   112   ar
    60   111   110    1
    61   109   108    2
    62   107   108    1
    63   107   106    1
    64   107   110    1
    65    88    87    1
    66   130   131    1
    67   130   132    1
    68    56    55    1
    69    91    90    1
    70    91    93    1
    71    91    92    1
    72    47    49   ar
    73    47    45   ar
    74    87    90    1
    75    87    86    1
    76    49    48   ar
    77    55    54    1
    78    45    44   ar
    79    54    51    1
    80    48    46   ar
    81    73    74    1
    82    73    70    1
    83    44    46   ar
    84    44    43    1
    85    51    50    1
    86    51    52    1
    87    43    40    1
    88    62    61    2
    89    78    77    2
    90    70    69    1
    91    70    71    1
    92    42    41    2
    93    41    40    1
    94    52    59   am
    95    52    53    2
    96    61    69   am
    97    61    60    1
    98    59    60    1
    99    85    83    1
   100    40    39    1
   101    75    71   am
   102    75    76    1
   103    71    72    2
   104    77    76    1
   105    60    63    1
   106    76    79    1
   107    83    82    2
   108    83    84    1
   109    79    80    1
   110    82    81    1
   111    63    64    1
   112    80    81    1
   113    66    64   ar
   114    66    68   ar
   115    64    65   ar
   116    11     9    1
   117    68    67   ar
   118    10     9    1
   119    65    67   ar
   120     9     8    2
   121    36    35    1
   122    36    37    2
   123    35    38    1
   124    35    34    1
   125     8     7    1
   126    22    20    1
   127    32    31    1
   128    31    33    1
   129    31    30    2
   130     7     6    1
   131    29    30    1
   132    29    28    1
   133     6     5    1
   134    20    19    2
   135    20    21    1
   136    19    18    1
   137    12    13    1
   138    28    27    1
   139    15    14    2
   140     5     2    1
   141    17    18    1
   142    17    16    1
   143     4     3    2
   144     2     3    1
   145     2     1    1
   146    27    24    1
   147    13    14    1
   148    13    16    1
   149    23    24    1
   150    24    25    1
   151    25    26    2
