@<TRIPOS>MOLECULE
tmp/4k46A01.pdb
 180 168 0 0 0
SMALL
GASTEIGER

@<TRIPOS>ATOM
      1  N         -7.9100   -0.4820  -10.4870 N.3     9  PRO9       -0.2116
      2  CA        -7.1180   -0.7540  -11.6890 C.3     9  PRO9        0.1372
      3  C         -7.3470   -2.2210  -12.0640 C.2     9  PRO9        0.2244
      4  O         -7.2920   -3.0930  -11.1840 O.2     9  PRO9       -0.2868
      5  CB        -5.6680   -0.5630  -11.2160 C.3     9  PRO9        0.0268
      6  CG        -5.7660    0.2820   -9.9770 C.3     9  PRO9        0.0207
      7  CD        -7.0890   -0.0310   -9.3450 C.3     9  PRO9        0.0892
      8  N        -12.5690   -0.9790  -16.8090 N.3    13  LYS13      -0.1245
      9  CA       -12.9770    0.3470  -17.2740 C.3    13  LYS13       0.1561
     10  C        -12.6410    0.5880  -18.7470 C.2    13  LYS13       0.2260
     11  O        -13.5040    0.9780  -19.5390 O.2    13  LYS13      -0.2867
     12  CB       -12.3420    1.4470  -16.4050 C.3    13  LYS13       0.0271
     13  CG       -12.7600    1.4180  -14.9230 C.3    13  LYS13       0.0035
     14  CD       -12.1690    2.5920  -14.1370 C.3    13  LYS13       0.0206
     15  CE       -10.6300    2.6100  -14.1560 C.3    13  LYS13       0.1093
     16  NZ       -10.0110    1.3340  -13.6900 N.3    13  LYS13      -0.1314
     17  N         -8.1490    9.1670  -21.4250 N.3    30  SER30      -0.1202
     18  CA        -7.4940    8.2940  -20.4660 C.3    30  SER30       0.2020
     19  C         -6.1680    8.9020  -20.0480 C.2    30  SER30       0.2619
     20  O         -5.2470    9.0110  -20.8610 O.2    30  SER30      -0.2717
     21  CB        -7.2530    6.9150  -21.0680 C.3    30  SER30       0.2103
     22  OG        -6.3040    6.1890  -20.2870 O.3    30  SER30      -0.2182
     23  N         -6.0720    9.3030  -18.7870 N.am   31  THR31      -0.1938
     24  CA        -4.8320    9.8810  -18.2730 C.3    31  THR31       0.2028
     25  C         -3.6460    8.9040  -18.3780 C.2    31  THR31       0.2642
     26  O         -2.5320    9.3160  -18.6860 O.2    31  THR31      -0.2714
     27  CB        -5.0150   10.3880  -16.8260 C.3    31  THR31       0.1808
     28  OG1       -5.8280    9.4530  -16.1040 O.3    31  THR31      -0.2208
     29  CG2       -5.7200   11.7180  -16.8280 C.3    31  THR31       0.0379
     30  N         -3.8860    7.6150  -18.1390 N.am   32  GLY32      -0.1954
     31  CA        -2.8410    6.6140  -18.3190 C.3    32  GLY32       0.1869
     32  C         -2.3050    6.5740  -19.7450 C.2    32  GLY32       0.2309
     33  O         -1.0930    6.4670  -19.9630 O.2    32  GLY32      -0.2863
     34  N         -0.2420    9.7250  -20.4450 N.3    35  LEU35      -0.1231
     35  CA         1.0800    9.5830  -19.8330 C.3    35  LEU35       0.1693
     36  C          1.9730    8.6310  -20.6310 C.2    35  LEU35       0.2591
     37  O          3.1550    8.9090  -20.8400 O.2    35  LEU35      -0.2718
     38  CB         0.9520    9.0890  -18.3900 C.3    35  LEU35       0.0284
     39  CG         0.3030   10.1000  -17.4370 C.3    35  LEU35       0.0019
     40  CD1        0.0460    9.4460  -16.0800 C.3    35  LEU35       0.0001
     41  CD2        1.2010   11.3420  -17.2900 C.3    35  LEU35       0.0001
     42  N          1.4160    7.5060  -21.0700 N.am   36  ARG36      -0.1980
     43  CA         2.1820    6.5710  -21.8880 C.3    36  ARG36       0.1597
     44  C          2.5720    7.1670  -23.2420 C.2    36  ARG36       0.2287
     45  O          3.5910    6.7780  -23.8230 O.2    36  ARG36      -0.2864
     46  CB         1.4560    5.2200  -22.0250 C.3    36  ARG36       0.0334
     47  CG         1.5720    4.3820  -20.7480 C.3    36  ARG36       0.0492
     48  CD         0.8810    3.0270  -20.8430 C.3    36  ARG36       0.2205
     49  NE        -0.5740    3.1520  -20.8140 N.pl3  36  ARG36      -0.0865
     50  CZ        -1.3240    3.0440  -19.7190 C.cat  36  ARG36       0.5346
     51  NH1       -2.6410    3.1780  -19.8060 N.pl3  36  ARG36       0.1354
     52  NH2       -0.7650    2.8040  -18.5380 N.pl3  36  ARG36       0.1354
     53  N          4.8540    5.6050  -12.5920 N.3    53  ILE53      -0.1245
     54  CA         3.9650    4.5670  -13.1020 C.3    53  ILE53       0.1561
     55  C          4.5290    3.1750  -12.7920 C.2    53  ILE53       0.2260
     56  O          3.8030    2.2700  -12.3560 O.2    53  ILE53      -0.2867
     57  CB         3.7380    4.7350  -14.6290 C.3    53  ILE53       0.0252
     58  CG1        2.9070    5.9960  -14.9030 C.3    53  ILE53       0.0019
     59  CG2        3.0560    3.5080  -15.2230 C.3    53  ILE53       0.0019
     60  CD1        2.8100    6.3520  -16.3690 C.3    53  ILE53       0.0001
     61  N          3.9210    2.0050   -9.3860 N.3    56  GLY56      -0.1210
     62  CA         2.5160    1.8130   -9.0610 C.3    56  GLY56       0.1956
     63  C          1.9120    2.9950   -8.3130 C.2    56  GLY56       0.2612
     64  O          0.8130    2.8920   -7.7540 O.2    56  GLY56      -0.2717
     65  N          2.6200    4.1240   -8.3050 N.am   57  GLN57      -0.1965
     66  CA         2.1680    5.3160   -7.5720 C.3    57  GLN57       0.1733
     67  C          1.4170    6.2730   -8.4910 C.2    57  GLN57       0.2616
     68  O          1.3670    6.0630   -9.7100 O.2    57  GLN57      -0.2715
     69  CB         3.3590    6.0220   -6.9060 C.3    57  GLN57       0.0408
     70  CG         4.0610    5.1650   -5.8520 C.3    57  GLN57       0.0908
     71  CD         3.1530    4.8080   -4.6850 C.2    57  GLN57       0.2608
     72  OE1        2.4400    5.6670   -4.1500 O.2    57  GLN57      -0.2717
     73  NE2        3.1630    3.5330   -4.2910 N.am   57  GLN57      -0.0878
     74  N          0.8060    7.3100   -7.9170 N.am   58  LEU58      -0.1963
     75  CA         0.0370    8.2560   -8.7300 C.3    58  LEU58       0.1728
     76  C          0.8900    9.4570   -9.1360 C.2    58  LEU58       0.2616
     77  O          1.7030    9.9610   -8.3490 O.2    58  LEU58      -0.2715
     78  CB        -1.2160    8.7290   -7.9920 C.3    58  LEU58       0.0311
     79  CG        -2.2710    7.6710   -7.6770 C.3    58  LEU58       0.0022
     80  CD1       -3.4610    8.3260   -6.9970 C.3    58  LEU58       0.0001
     81  CD2       -2.7170    6.9350   -8.9420 C.3    58  LEU58       0.0001
     82  N          0.7120    9.8980  -10.3750 N.am   59  VAL59      -0.1977
     83  CA         1.3440   11.1200  -10.8560 C.3    59  VAL59       0.1596
     84  C          0.6490   12.3160  -10.1800 C.2    59  VAL59       0.2287
     85  O         -0.5250   12.2300   -9.7950 O.2    59  VAL59      -0.2864
     86  CB         1.2890   11.1640  -12.4100 C.3    59  VAL59       0.0276
     87  CG1        1.6770   12.5400  -12.9650 C.3    59  VAL59       0.0022
     88  CG2        2.1890   10.0600  -12.9860 C.3    59  VAL59       0.0022
     89  N         -1.6070   16.1130  -13.8030 N.3    64  ILE64      -0.1245
     90  CA        -2.7970   15.4710  -14.3560 C.3    64  ILE64       0.1561
     91  C         -3.8780   16.4790  -14.7700 C.2    64  ILE64       0.2260
     92  O         -4.3970   16.4140  -15.8890 O.2    64  ILE64      -0.2867
     93  CB        -3.3630   14.4330  -13.3510 C.3    64  ILE64       0.0252
     94  CG1       -2.3600   13.2780  -13.1750 C.3    64  ILE64       0.0019
     95  CG2       -4.7450   13.9380  -13.7870 C.3    64  ILE64       0.0019
     96  CD1       -2.1670   12.4050  -14.4170 C.3    64  ILE64       0.0001
     97  N        -11.5690    8.2240  -18.2550 N.3    84  ASP84      -0.1225
     98  CA       -11.2100    6.8430  -17.9650 C.3    84  ASP84       0.1805
     99  C         -9.8980    6.7810  -17.1870 C.2    84  ASP84       0.2598
    100  O         -8.8260    6.8780  -17.7810 O.2    84  ASP84      -0.2718
    101  CB       -11.0870    6.0690  -19.2890 C.3    84  ASP84       0.1424
    102  CG       -10.7180    4.6140  -19.0880 C.2    84  ASP84       0.3668
    103  OD1      -10.9140    4.0930  -17.9680 O.co2  84  ASP84      -0.2456
    104  OD2      -10.2280    3.9830  -20.0530 O.co2  84  ASP84      -0.2456
    105  N         -9.9830    6.6090  -15.8670 N.am   85  GLY85      -0.1942
    106  CA        -8.8010    6.6560  -15.0150 C.3    85  GLY85       0.2014
    107  C         -8.6000    8.0600  -14.4700 C.2    85  GLY85       0.2638
    108  O         -7.6060    8.3570  -13.8060 O.2    85  GLY85      -0.2714
    109  N         -9.5580    8.9310  -14.7750 N.am   86  PHE86      -0.1973
    110  CA        -9.6100   10.2860  -14.2330 C.3    86  PHE86       0.1639
    111  C        -11.0620   10.6190  -13.8930 C.2    86  PHE86       0.2290
    112  O        -11.9600   10.3210  -14.6720 O.2    86  PHE86      -0.2864
    113  CB        -9.0850   11.3170  -15.2430 C.3    86  PHE86       0.0560
    114  CG        -9.2350   12.7280  -14.7750 C.ar   86  PHE86      -0.0200
    115  CD1      -10.3760   13.4600  -15.0760 C.ar   86  PHE86      -0.0042
    116  CD2       -8.2540   13.3180  -13.9960 C.ar   86  PHE86      -0.0042
    117  CE1      -10.5270   14.7600  -14.6110 C.ar   86  PHE86      -0.0003
    118  CE2       -8.3980   14.6150  -13.5320 C.ar   86  PHE86      -0.0003
    119  CZ        -9.5340   15.3410  -13.8390 C.ar   86  PHE86      -0.0000
    120  N         -8.7380   10.4570  -10.2470 N.3    88  ARG88      -0.1245
    121  CA        -8.1080    9.3490   -9.5350 C.3    88  ARG88       0.1563
    122  C         -7.9490    9.6930   -8.0600 C.2    88  ARG88       0.2260
    123  O         -7.6010    8.8380   -7.2480 O.2    88  ARG88      -0.2867
    124  CB        -6.7190    9.1190  -10.1290 C.3    88  ARG88       0.0307
    125  CG        -6.2240    7.7270  -10.0270 C.3    88  ARG88       0.0489
    126  CD        -6.8060    6.8730  -11.1170 C.3    88  ARG88       0.2205
    127  NE        -6.0920    5.6020  -11.2060 N.pl3  88  ARG88      -0.0865
    128  CZ        -5.6220    5.0770  -12.3320 C.cat  88  ARG88       0.5346
    129  NH1       -5.7980    5.7050  -13.4820 N.pl3  88  ARG88       0.1354
    130  NH2       -4.9950    3.9100  -12.2950 N.pl3  88  ARG88       0.1354
    131  N         -8.3960   15.8420   -7.6920 N.3    92  GLN92      -0.1245
    132  CA        -8.7030   15.8320   -9.1310 C.3    92  GLN92       0.1566
    133  C        -10.1940   16.0270   -9.3760 C.2    92  GLN92       0.2260
    134  O        -10.5810   16.7450  -10.2990 O.2    92  GLN92      -0.2867
    135  CB        -8.2070   14.5390   -9.7910 C.3    92  GLN92       0.0367
    136  CG        -6.6840   14.4850   -9.9240 C.3    92  GLN92       0.0905
    137  CD        -6.1850   13.1520  -10.4390 C.2    92  GLN92       0.2608
    138  OE1       -6.9090   12.4310  -11.1480 O.2    92  GLN92      -0.2717
    139  NE2       -4.9400   12.8040  -10.0830 N.am   92  GLN92      -0.0878
    140  N         -3.2290   -9.7680  -18.8550 N.3   123  ARG123     -0.1245
    141  CA        -3.4710   -8.5210  -19.5790 C.3   123  ARG123      0.1563
    142  C         -2.3880   -8.2470  -20.6200 C.2   123  ARG123      0.2260
    143  O         -1.1810   -8.3440  -20.3400 O.2   123  ARG123     -0.2867
    144  CB        -3.6360   -7.3040  -18.6450 C.3   123  ARG123      0.0307
    145  CG        -3.8930   -6.0020  -19.4380 C.3   123  ARG123      0.0489
    146  CD        -4.6940   -4.9630  -18.6430 C.3   123  ARG123      0.2205
    147  NE        -3.8810   -4.2580  -17.6590 N.pl3 123  ARG123     -0.0865
    148  CZ        -4.2890   -3.1820  -16.9930 C.cat 123  ARG123      0.5346
    149  NH1       -5.5040   -2.6950  -17.2010 N.pl3 123  ARG123      0.1354
    150  NH2       -3.4870   -2.6010  -16.1180 N.pl3 123  ARG123      0.1354
    151  N          2.4500   -4.9620  -19.6830 N.3   156  ARG156     -0.1245
    152  CA         2.7630   -3.7040  -19.0270 C.3   156  ARG156      0.1563
    153  C          3.6760   -3.9460  -17.8310 C.2   156  ARG156      0.2260
    154  O          3.4860   -4.8920  -17.0740 O.2   156  ARG156     -0.2867
    155  CB         1.4810   -2.9630  -18.6250 C.3   156  ARG156      0.0307
    156  CG         0.8210   -2.2030  -19.7900 C.3   156  ARG156      0.0489
    157  CD        -0.5720   -1.7010  -19.4570 C.3   156  ARG156      0.2205
    158  NE        -0.6280   -0.9940  -18.1740 N.pl3 156  ARG156     -0.0865
    159  CZ        -1.6580   -0.2510  -17.7760 C.cat 156  ARG156      0.5346
    160  NH1       -2.7160   -0.1010  -18.5770 N.pl3 156  ARG156      0.1354
    161  NH2       -1.6310    0.3440  -16.5840 N.pl3 156  ARG156      0.1354
    162  N          3.8330   -2.2010  -15.1510 N.3   158  ASP158     -0.1239
    163  CA         3.0900   -2.0210  -13.9010 C.3   158  ASP158      0.1674
    164  C          2.0630   -3.1290  -13.6430 C.2   158  ASP158      0.2266
    165  O          1.3900   -3.1430  -12.6040 O.2   158  ASP158     -0.2867
    166  CB         2.4720   -0.6120  -13.7920 C.3   158  ASP158      0.1410
    167  CG         1.4650   -0.3050  -14.8990 C.2   158  ASP158      0.3668
    168  OD1        1.5200   -0.9510  -15.9630 O.co2 158  ASP158     -0.2456
    169  OD2        0.6240    0.6110  -14.7040 O.co2 158  ASP158     -0.2456
    170  N         -0.5280   -0.8650   -6.5250 N.3   167  ARG167     -0.1245
    171  CA        -1.6020   -0.0740   -7.1480 C.3   167  ARG167      0.1563
    172  C         -2.9570   -0.2280   -6.4590 C.2   167  ARG167      0.2260
    173  O         -3.7250    0.7370   -6.3540 O.2   167  ARG167     -0.2867
    174  CB        -1.7330   -0.4360   -8.6350 C.3   167  ARG167      0.0307
    175  CG        -0.5560    0.0370   -9.4830 C.3   167  ARG167      0.0489
    176  CD        -0.5230   -0.6560  -10.8350 C.3   167  ARG167      0.2205
    177  NE        -1.5750   -0.1760  -11.7310 N.pl3 167  ARG167     -0.0865
    178  CZ        -1.9650   -0.8240  -12.8260 C.cat 167  ARG167      0.5346
    179  NH1       -2.9160   -0.3110  -13.5880 N.pl3 167  ARG167      0.1354
    180  NH2       -1.4070   -1.9900  -13.1550 N.pl3 167  ARG167      0.1354
@<TRIPOS>BOND
     1    45    44    2
     2    44    43    1
     3    46    43    1
     4    46    47    1
     5    43    42    1
     6    17    18    1
     7    42    36   am
     8    21    18    1
     9    21    22    1
    10    20    19    2
    11    48    49    1
    12    48    47    1
    13    37    36    2
    14    49    50    2
    15    36    35    1
    16   142   143    2
    17   142   141    1
    18    18    19    1
    19    34    35    1
    20   104   102   ar
    21    19    23   am
    22    33    32    2
    23    35    38    1
    24    51    50    1
    25   156   157    1
    26   156   155    1
    27    32    31    1
    28    50    52    1
    29   151   152    1
    30   141   140    1
    31   141   144    1
    32    11    10    2
    33   157   158    1
    34   145   144    1
    35   145   146    1
    36   101   102    1
    37   101    98    1
    38   102   103   ar
    39   152   155    1
    40   152   153    1
    41    23    24    1
    42    10     9    1
    43    26    25    2
    44   146   147    1
    45   160   159    1
    46    38    39    1
    47    25    24    1
    48    25    30   am
    49    31    30    1
    50    24    27    1
    51    97    98    1
    52   158   159    2
    53    98    99    1
    54   153   154    2
    55   100    99    2
    56   159   161    1
    57   147   148    2
    58    39    41    1
    59    39    40    1
    60     9     8    1
    61     9    12    1
    62   149   148    1
    63    99   105   am
    64   148   150    1
    65    29    27    1
    66    27    28    1
    67    12    13    1
    68    60    58    1
    69   168   167   ar
    70    92    91    2
    71   105   106    1
    72   113   114    1
    73   113   110    1
    74    59    57    1
    75   162   163    1
    76   115   114   ar
    77   115   117   ar
    78   106   107    1
    79    13    14    1
    80    58    57    1
    81   167   169   ar
    82   167   166    1
    83   109   107   am
    84   109   110    1
    85   114   116   ar
    86    91    90    1
    87   112   111    2
    88    57    54    1
    89   117   119   ar
    90   107   108    2
    91    96    94    1
    92    90    89    1
    93    90    93    1
    94   110   111    1
    95    15    14    1
    96    15    16    1
    97   116   118   ar
    98   163   166    1
    99   163   164    1
   100   119   118   ar
   101    95    93    1
   102   164   165    2
   103   179   178    1
   104   129   128    1
   105    93    94    1
   106   180   178    1
   107    54    55    1
   108    54    53    1
   109    88    86    1
   110    87    86    1
   111   178   177    2
   112    55    56    2
   113    86    83    1
   114   128   130    1
   115   128   127    2
   116     3     2    1
   117     3     4    2
   118   177   176    1
   119     2     5    1
   120     2     1    1
   121     5     6    1
   122   127   126    1
   123   138   137    2
   124   126   125    1
   125    83    82    1
   126    83    84    1
   127   176   175    1
   128     1     7    1
   129   137   139   am
   130   137   136    1
   131    82    76   am
   132   134   133    2
   133   120   121    1
   134    84    85    2
   135   124   125    1
   136   124   121    1
   137     6     7    1
   138   136   135    1
   139   135   132    1
   140    68    67    2
   141   121   122    1
   142   175   174    1
   143    61    62    1
   144   133   132    1
   145    76    75    1
   146    76    77    2
   147   132   131    1
   148    62    63    1
   149    81    79    1
   150    75    78    1
   151    75    74    1
   152   174   171    1
   153    67    74   am
   154    67    66    1
   155    63    65   am
   156    63    64    2
   157    65    66    1
   158   122   123    2
   159    78    79    1
   160    79    80    1
   161    66    69    1
   162   171   170    1
   163   171   172    1
   164    69    70    1
   165   172   173    2
   166    70    71    1
   167    71    73   am
   168    71    72    2
