@<TRIPOS>MOLECULE
tmp/4k46A00.pdb
 195 190 0 0 0
SMALL
GASTEIGER

@<TRIPOS>ATOM
      1  N         -7.9100   -0.4820  -10.4870 N.3     9  PRO9       -0.2102
      2  CA        -7.1180   -0.7540  -11.6890 C.3     9  PRO9        0.1504
      3  C         -7.3470   -2.2210  -12.0640 C.2     9  PRO9        0.2576
      4  O         -7.2920   -3.0930  -11.1840 O.2     9  PRO9       -0.2718
      5  CB        -5.6680   -0.5630  -11.2160 C.3     9  PRO9        0.0282
      6  CG        -5.7660    0.2820   -9.9770 C.3     9  PRO9        0.0208
      7  CD        -7.0890   -0.0310   -9.3450 C.3     9  PRO9        0.0893
      8  N         -7.6580   -2.4870  -13.3280 N.am   10  GLY10      -0.1943
      9  CA        -7.9630   -3.8440  -13.7560 C.3    10  GLY10       0.2014
     10  C         -9.4270   -4.2500  -13.6460 C.2    10  GLY10       0.2639
     11  O         -9.7820   -5.3990  -13.9510 O.2    10  GLY10      -0.2714
     12  N        -10.2830   -3.3200  -13.2320 N.am   11  ALA11      -0.1963
     13  CA       -11.7030   -3.6240  -13.0260 C.3    11  ALA11       0.1728
     14  C        -12.4470   -3.8340  -14.3460 C.2    11  ALA11       0.2617
     15  O        -13.4680   -4.5230  -14.3830 O.2    11  ALA11      -0.2715
     16  CB       -12.3900   -2.5350  -12.1940 C.3    11  ALA11       0.0334
     17  N        -11.9370   -3.2480  -15.4270 N.am   12  GLY12      -0.1940
     18  CA       -12.5450   -3.4120  -16.7410 C.3    12  GLY12       0.2014
     19  C        -13.0440   -2.1040  -17.3420 C.2    12  GLY12       0.2639
     20  O        -13.8410   -2.1180  -18.2730 O.2    12  GLY12      -0.2714
     21  N        -12.5690   -0.9790  -16.8090 N.am   13  LYS13      -0.1963
     22  CA       -12.9770    0.3470  -17.2740 C.3    13  LYS13       0.1728
     23  C        -12.6410    0.5880  -18.7470 C.2    13  LYS13       0.2617
     24  O        -13.5040    0.9780  -19.5390 O.2    13  LYS13      -0.2715
     25  CB       -12.3420    1.4470  -16.4050 C.3    13  LYS13       0.0311
     26  CG       -12.7600    1.4180  -14.9230 C.3    13  LYS13       0.0038
     27  CD       -12.1690    2.5920  -14.1370 C.3    13  LYS13       0.0206
     28  CE       -10.6300    2.6100  -14.1560 C.3    13  LYS13       0.1093
     29  NZ       -10.0110    1.3340  -13.6900 N.3    13  LYS13      -0.1314
     30  N        -11.3830    0.3760  -19.1090 N.am   14  GLY14      -0.1940
     31  CA       -10.9450    0.5860  -20.4830 C.3    14  GLY14       0.2014
     32  C        -11.6650   -0.3310  -21.4630 C.2    14  GLY14       0.2640
     33  O        -11.9650    0.0530  -22.5970 O.2    14  GLY14      -0.2714
     34  N        -11.9560   -1.5460  -21.0210 N.am   15  THR15      -0.1936
     35  CA       -12.6800   -2.5080  -21.8490 C.3    15  THR15       0.2028
     36  C        -14.1100   -2.0170  -22.1430 C.2    15  THR15       0.2642
     37  O        -14.5790   -2.0360  -23.2940 O.2    15  THR15      -0.2714
     38  CB       -12.7030   -3.9110  -21.1690 C.3    15  THR15       0.1808
     39  OG1      -11.3560   -4.3960  -21.0280 O.3    15  THR15      -0.2208
     40  CG2      -13.4860   -4.8870  -21.9950 C.3    15  THR15       0.0379
     41  N        -14.7960   -1.5490  -21.1060 N.am   16  GLN16      -0.1976
     42  CA       -16.1670   -1.0930  -21.2740 C.3    16  GLN16       0.1601
     43  C        -16.2180    0.2870  -21.9400 C.2    16  GLN16       0.2287
     44  O        -17.2040    0.6230  -22.5930 O.2    16  GLN16      -0.2864
     45  CB       -16.9080   -1.1130  -19.9340 C.3    16  GLN16       0.0394
     46  CG       -17.0640   -2.5090  -19.3810 C.3    16  GLN16       0.0908
     47  CD       -17.8100   -3.4260  -20.3440 C.2    16  GLN16       0.2608
     48  OE1      -18.6270   -2.9700  -21.1510 O.2    16  GLN16      -0.2717
     49  NE2      -17.5360   -4.7240  -20.2580 N.am   16  GLN16      -0.0878
     50  N        -11.5690    8.2240  -18.2550 N.3    84  ASP84      -0.1239
     51  CA       -11.2100    6.8430  -17.9650 C.3    84  ASP84       0.1674
     52  C         -9.8980    6.7810  -17.1870 C.2    84  ASP84       0.2266
     53  O         -8.8260    6.8780  -17.7810 O.2    84  ASP84      -0.2867
     54  CB       -11.0870    6.0690  -19.2890 C.3    84  ASP84       0.1410
     55  CG       -10.7180    4.6140  -19.0880 C.2    84  ASP84       0.3668
     56  OD1      -10.9140    4.0930  -17.9680 O.co2  84  ASP84      -0.2456
     57  OD2      -10.2280    3.9830  -20.0530 O.co2  84  ASP84      -0.2456
     58  N         -5.7380  -11.8860   -9.9260 N.3   118  GLU118     -0.1231
     59  CA        -5.9480  -12.9190  -10.9430 C.3   118  GLU118      0.1699
     60  C         -5.8650  -12.3800  -12.3770 C.2   118  GLU118      0.2592
     61  O         -5.1580  -12.9400  -13.2190 O.2   118  GLU118     -0.2718
     62  CB        -7.3030  -13.6170  -10.7150 C.3   118  GLU118      0.0402
     63  CG        -8.1400  -13.8780  -11.9930 C.3   118  GLU118      0.1161
     64  CD        -9.5760  -13.3440  -11.8910 C.2   118  GLU118      0.3649
     65  OE1      -10.0750  -12.7450  -12.8760 O.co2 118  GLU118     -0.2457
     66  OE2      -10.2170  -13.5390  -10.8290 O.co2 118  GLU118     -0.2457
     67  N         -6.5560  -11.2710  -12.6350 N.am  119  ARG119     -0.1966
     68  CA        -6.7060  -10.7210  -13.9860 C.3   119  ARG119      0.1729
     69  C         -5.4460  -10.1570  -14.6070 C.2   119  ARG119      0.2616
     70  O         -5.2230  -10.3100  -15.8090 O.2   119  ARG119     -0.2715
     71  CB        -7.7340   -9.5930  -13.9900 C.3   119  ARG119      0.0348
     72  CG        -9.1100  -10.0010  -14.4310 C.3   119  ARG119      0.0492
     73  CD       -10.0090   -8.8020  -14.4150 C.3   119  ARG119      0.2205
     74  NE       -11.3870   -9.2000  -14.1890 N.pl3 119  ARG119     -0.0865
     75  CZ       -12.4000   -8.3560  -14.1160 C.cat 119  ARG119      0.5346
     76  NH1      -12.1770   -7.0570  -14.2630 N.pl3 119  ARG119      0.1354
     77  NH2      -13.6290   -8.8190  -13.9140 N.pl3 119  ARG119      0.1354
     78  N         -4.6460   -9.4640  -13.8060 N.am  120  MET120     -0.1977
     79  CA        -3.5020   -8.7330  -14.3430 C.3   120  MET120      0.1605
     80  C         -2.4880   -9.6220  -15.0540 C.2   120  MET120      0.2287
     81  O         -1.8170   -9.1660  -15.9810 O.2   120  MET120     -0.2864
     82  CB        -2.8270   -7.8820  -13.2590 C.3   120  MET120      0.0413
     83  CG        -3.6770   -6.7080  -12.7410 C.3   120  MET120      0.0598
     84  SD        -4.0660   -5.3980  -13.9430 S.3   120  MET120     -0.1393
     85  CE        -5.5320   -6.0580  -14.7090 C.3   120  MET120      0.0692
     86  N         -3.2290   -9.7680  -18.8550 N.3   123  ARG123     -0.1245
     87  CA        -3.4710   -8.5210  -19.5790 C.3   123  ARG123      0.1563
     88  C         -2.3880   -8.2470  -20.6200 C.2   123  ARG123      0.2260
     89  O         -1.1810   -8.3440  -20.3400 O.2   123  ARG123     -0.2867
     90  CB        -3.6360   -7.3040  -18.6450 C.3   123  ARG123      0.0307
     91  CG        -3.8930   -6.0020  -19.4380 C.3   123  ARG123      0.0489
     92  CD        -4.6940   -4.9630  -18.6430 C.3   123  ARG123      0.2205
     93  NE        -3.8810   -4.2580  -17.6590 N.pl3 123  ARG123     -0.0865
     94  CZ        -4.2890   -3.1820  -16.9930 C.cat 123  ARG123      0.5346
     95  NH1       -5.5040   -2.6950  -17.2010 N.pl3 123  ARG123      0.1354
     96  NH2       -3.4870   -2.6010  -16.1180 N.pl3 123  ARG123      0.1354
     97  N         -6.9210   -2.7910  -24.4100 N.3   132  THR132     -0.1203
     98  CA        -6.3440   -3.9090  -23.6680 C.3   132  THR132      0.1994
     99  C         -7.0890   -5.1940  -23.9730 C.2   132  THR132      0.2618
    100  O         -8.2590   -5.1730  -24.3770 O.2   132  THR132     -0.2717
    101  CB        -6.3450   -3.6760  -22.1290 C.3   132  THR132      0.1784
    102  OG1       -7.6970   -3.5800  -21.6600 O.3   132  THR132     -0.2211
    103  CG2       -5.5760   -2.4090  -21.7730 C.3   132  THR132      0.0376
    104  N         -6.3980   -6.3140  -23.7730 N.am  133  TYR133     -0.1961
    105  CA        -6.9150   -7.6340  -24.1100 C.3   133  TYR133      0.1771
    106  C         -6.5640   -8.5220  -22.9410 C.2   133  TYR133      0.2619
    107  O         -5.7740   -8.1360  -22.0750 O.2   133  TYR133     -0.2715
    108  CB        -6.2290   -8.1650  -25.3810 C.3   133  TYR133      0.0574
    109  CG        -6.4540   -7.2780  -26.5780 C.ar  133  TYR133     -0.0198
    110  CD1       -7.4840   -7.5360  -27.4810 C.ar  133  TYR133     -0.0009
    111  CD2       -5.6600   -6.1530  -26.7870 C.ar  133  TYR133     -0.0009
    112  CE1       -7.7000   -6.7030  -28.5740 C.ar  133  TYR133      0.0417
    113  CE2       -5.8670   -5.3170  -27.8720 C.ar  133  TYR133      0.0417
    114  CZ        -6.8810   -5.5930  -28.7650 C.ar  133  TYR133      0.1957
    115  OH        -7.0810   -4.7430  -29.8450 O.3   133  TYR133     -0.2866
    116  N         -7.1700   -9.6960  -22.8870 N.am  134  HIS134     -0.1973
    117  CA        -6.7920  -10.6790  -21.8840 C.3   134  HIS134      0.1656
    118  C         -6.6650  -12.0380  -22.5530 C.2   134  HIS134      0.2291
    119  O         -7.6000  -12.4870  -23.2100 O.2   134  HIS134     -0.2864
    120  CB        -7.8100  -10.7510  -20.7400 C.3   134  HIS134      0.0771
    121  CG        -7.2930  -11.5010  -19.5530 C.ar  134  HIS134      0.0820
    122  ND1       -7.2510  -12.8830  -19.5040 N.ar  134  HIS134     -0.2267
    123  CD2       -6.7340  -11.0650  -18.4000 C.ar  134  HIS134      0.1154
    124  CE1       -6.7100  -13.2610  -18.3620 C.ar  134  HIS134      0.1986
    125  NE2       -6.3950  -12.1810  -17.6650 N.ar  134  HIS134     -0.2212
    126  N         -9.6250  -14.0840  -20.8930 N.3   137  TYR137     -0.1227
    127  CA       -10.9830  -13.5480  -20.7770 C.3   137  TYR137      0.1736
    128  C        -11.4750  -12.7370  -21.9770 C.2   137  TYR137      0.2595
    129  O        -12.6820  -12.5130  -22.1230 O.2   137  TYR137     -0.2718
    130  CB       -11.1040  -12.6530  -19.5380 C.3   137  TYR137      0.0548
    131  CG       -10.9740  -13.3610  -18.2140 C.ar  137  TYR137     -0.0200
    132  CD1      -11.9560  -14.2490  -17.7730 C.ar  137  TYR137     -0.0009
    133  CD2       -9.8950  -13.1120  -17.3820 C.ar  137  TYR137     -0.0009
    134  CE1      -11.8410  -14.8870  -16.5390 C.ar  137  TYR137      0.0417
    135  CE2       -9.7700  -13.7450  -16.1520 C.ar  137  TYR137      0.0417
    136  CZ       -10.7400  -14.6300  -15.7360 C.ar  137  TYR137      0.1957
    137  OH       -10.6100  -15.2530  -14.5080 O.3   137  TYR137     -0.2866
    138  N        -10.5490  -12.2700  -22.8110 N.am  138  ASN138     -0.1974
    139  CA       -10.8970  -11.3770  -23.9140 C.3   138  ASN138      0.1688
    140  C         -9.7360  -11.2480  -24.8970 C.2   138  ASN138      0.2292
    141  O         -9.1410  -10.1650  -25.0380 O.2   138  ASN138     -0.2864
    142  CB       -11.2630   -9.9890  -23.3550 C.3   138  ASN138      0.1181
    143  CG       -12.0060   -9.1340  -24.3670 C.2   138  ASN138      0.2629
    144  OD1      -12.6340   -9.6590  -25.2910 O.2   138  ASN138     -0.2716
    145  ND2      -11.9240   -7.8120  -24.2130 N.am  138  ASN138     -0.0877
    146  N         -0.5280   -0.8650   -6.5250 N.3   167  ARG167     -0.1245
    147  CA        -1.6020   -0.0740   -7.1480 C.3   167  ARG167      0.1563
    148  C         -2.9570   -0.2280   -6.4590 C.2   167  ARG167      0.2260
    149  O         -3.7250    0.7370   -6.3540 O.2   167  ARG167     -0.2867
    150  CB        -1.7330   -0.4360   -8.6350 C.3   167  ARG167      0.0307
    151  CG        -0.5560    0.0370   -9.4830 C.3   167  ARG167      0.0489
    152  CD        -0.5230   -0.6560  -10.8350 C.3   167  ARG167      0.2205
    153  NE        -1.5750   -0.1760  -11.7310 N.pl3 167  ARG167     -0.0865
    154  CZ        -1.9650   -0.8240  -12.8260 C.cat 167  ARG167      0.5346
    155  NH1       -2.9160   -0.3110  -13.5880 N.pl3 167  ARG167      0.1354
    156  NH2       -1.4070   -1.9900  -13.1550 N.pl3 167  ARG167      0.1354
    157  N        -18.4880   -5.9050  -11.6560 N.3   198  GLY198     -0.1210
    158  CA       -17.5400   -6.0060  -12.7480 C.3   198  GLY198      0.1956
    159  C        -16.8490   -7.3510  -12.8580 C.2   198  GLY198      0.2613
    160  O        -15.9580   -7.5130  -13.6870 O.2   198  GLY198     -0.2717
    161  N        -17.2380   -8.3180  -12.0300 N.am  199  THR199     -0.1938
    162  CA       -16.6330   -9.6520  -12.1150 C.3   199  THR199      0.2028
    163  C        -17.3680  -10.5540  -13.1060 C.2   199  THR199      0.2642
    164  O        -16.8900  -11.6440  -13.4400 O.2   199  THR199     -0.2714
    165  CB       -16.5510  -10.3640  -10.7410 C.3   199  THR199      0.1808
    166  OG1      -17.8690  -10.7210  -10.3070 O.3   199  THR199     -0.2208
    167  CG2      -15.8840   -9.4670   -9.6980 C.3   199  THR199      0.0379
    168  N        -18.5290  -10.1040  -13.5750 N.am  200  LYS200     -0.1963
    169  CA       -19.2450  -10.8300  -14.6200 C.3   200  LYS200      0.1728
    170  C        -18.4110  -10.8250  -15.9070 C.2   200  LYS200      0.2616
    171  O        -17.4340  -10.0810  -16.0100 O.2   200  LYS200     -0.2715
    172  CB       -20.6280  -10.2140  -14.8440 C.3   200  LYS200      0.0311
    173  CG       -21.5810  -10.4250  -13.6770 C.3   200  LYS200      0.0038
    174  CD       -22.8600   -9.6100  -13.8350 C.3   200  LYS200      0.0206
    175  CE       -23.7840   -9.7830  -12.6350 C.3   200  LYS200      0.1093
    176  NZ       -24.9790   -8.9000  -12.7220 N.3   200  LYS200     -0.1314
    177  N        -18.7780  -11.6720  -16.8690 N.am  201  ALA201     -0.1963
    178  CA       -18.0610  -11.7580  -18.1430 C.3   201  ALA201      0.1728
    179  C        -18.1980  -10.4360  -18.8800 C.2   201  ALA201      0.2616
    180  O        -19.1830   -9.7300  -18.6810 O.2   201  ALA201     -0.2715
    181  CB       -18.6160  -12.8900  -19.0050 C.3   201  ALA201      0.0334
    182  N        -17.2180  -10.1240  -19.7340 N.am  202  VAL202     -0.1977
    183  CA       -17.1820   -8.8570  -20.4810 C.3   202  VAL202      0.1596
    184  C        -18.5160   -8.5330  -21.1600 C.2   202  VAL202      0.2287
    185  O        -19.0690   -7.4290  -20.9900 O.2   202  VAL202     -0.2864
    186  CB       -16.0540   -8.8660  -21.5530 C.3   202  VAL202      0.0276
    187  CG1      -16.1070   -7.5940  -22.4150 C.3   202  VAL202      0.0022
    188  CG2      -14.6880   -9.0190  -20.8920 C.3   202  VAL202      0.0022
    189  N        -21.2580   -7.6800  -18.6190 N.3   205  VAL205     -0.1245
    190  CA       -21.1180   -6.3140  -18.1160 C.3   205  VAL205      0.1561
    191  C        -21.6340   -5.3180  -19.1590 C.2   205  VAL205      0.2260
    192  O        -22.3820   -4.3950  -18.8290 O.2   205  VAL205     -0.2867
    193  CB       -19.6530   -5.9870  -17.7280 C.3   205  VAL205      0.0252
    194  CG1      -19.5170   -4.5230  -17.3360 C.3   205  VAL205      0.0019
    195  CG2      -19.1840   -6.8900  -16.5720 C.3   205  VAL205      0.0019
@<TRIPOS>BOND
     1   115   114    1
     2   114   112   ar
     3   114   113   ar
     4   112   110   ar
     5   113   111   ar
     6   110   109   ar
     7   111   109   ar
     8   109   108    1
     9   108   105    1
    10   144   143    2
    11   141   140    2
    12   140   139    1
    13    97    98    1
    14   100    99    2
    15   143   145   am
    16   143   142    1
    17   105   104    1
    18   105   106    1
    19    99   104   am
    20    99    98    1
    21   139   142    1
    22   139   138    1
    23    98   101    1
    24    37    36    2
    25   119   118    2
    26   106   116   am
    27   106   107    2
    28   116   117    1
    29   138   128   am
    30    33    32    2
    31    44    43    2
    32   118   117    1
    33   187   186    1
    34    36    35    1
    35    36    41   am
    36   101   103    1
    37   101   102    1
    38   129   128    2
    39    40    38    1
    40   128   127    1
    41    43    42    1
    42   117   120    1
    43    35    38    1
    44    35    34    1
    45   186   188    1
    46   186   183    1
    47    32    34   am
    48    32    31    1
    49    42    41    1
    50    42    45    1
    51    38    39    1
    52   184   185    2
    53   184   183    1
    54    48    47    2
    55   126   127    1
    56   127   130    1
    57   120   121    1
    58    88    89    2
    59    88    87    1
    60    31    30    1
    61   183   182    1
    62    47    49   am
    63    47    46    1
    64    57    55   ar
    65    45    46    1
    66   182   179   am
    67    87    86    1
    68    87    90    1
    69   121   122   ar
    70   121   123   ar
    71    24    23    2
    72   130   131    1
    73   122   124   ar
    74    91    90    1
    75    91    92    1
    76    54    55    1
    77    54    51    1
    78   191   192    2
    79   191   190    1
    80    30    23   am
    81    55    56   ar
    82   181   178    1
    83   179   180    2
    84   179   178    1
    85    23    22    1
    86    92    93    1
    87   189   190    1
    88   123   125   ar
    89   124   125   ar
    90    20    19    2
    91    50    51    1
    92   131   132   ar
    93   131   133   ar
    94   178   177    1
    95   190   193    1
    96    51    52    1
    97    53    52    2
    98   132   134   ar
    99   193   194    1
   100   193   195    1
   101    93    94    2
   102   133   135   ar
   103    19    21   am
   104    19    18    1
   105    22    21    1
   106    22    25    1
   107    95    94    1
   108    94    96    1
   109   177   170   am
   110    18    17    1
   111   134   136   ar
   112    25    26    1
   113   135   136   ar
   114   171   170    2
   115    81    80    2
   116   170   169    1
   117    70    69    2
   118   136   137    1
   119    17    14   am
   120    80    79    1
   121    26    27    1
   122   172   169    1
   123   172   173    1
   124    85    84    1
   125   169   168    1
   126    69    68    1
   127    69    78   am
   128    72    73    1
   129    72    71    1
   130    73    74    1
   131    15    14    2
   132    14    13    1
   133    79    78    1
   134    79    82    1
   135    76    75    1
   136    74    75    2
   137    28    27    1
   138    28    29    1
   139    75    77    1
   140    71    68    1
   141    68    67    1
   142    11    10    2
   143    84    83    1
   144   174   173    1
   145   174   175    1
   146     9    10    1
   147     9     8    1
   148   160   159    2
   149    10    12   am
   150   155   154    1
   151   168   163   am
   152   164   163    2
   153     8     3   am
   154    82    83    1
   155    12    13    1
   156    61    60    2
   157   156   154    1
   158   163   162    1
   159    13    16    1
   160    65    64   ar
   161   159   158    1
   162   159   161   am
   163   154   153    2
   164   158   157    1
   165   176   175    1
   166    67    60   am
   167    60    59    1
   168   162   161    1
   169   162   165    1
   170     3     2    1
   171     3     4    2
   172    63    64    1
   173    63    62    1
   174    64    66   ar
   175   153   152    1
   176     2     5    1
   177     2     1    1
   178     5     6    1
   179    59    62    1
   180    59    58    1
   181   152   151    1
   182   165   166    1
   183   165   167    1
   184     1     7    1
   185     6     7    1
   186   151   150    1
   187   150   147    1
   188   147   146    1
   189   147   148    1
   190   148   149    2
