@<TRIPOS>MOLECULE
tmp/4k47A00.pdb
 140 136 0 0 0
SMALL
GASTEIGER

@<TRIPOS>ATOM
      1  N         15.1500  -26.4040    3.7910 N.3    19  PHE19      -0.1227
      2  CA        14.3990  -26.2200    5.0240 C.3    19  PHE19       0.1736
      3  C         14.4530  -24.7570    5.4430 C.2    19  PHE19       0.2596
      4  O         15.5390  -24.1710    5.5540 O.2    19  PHE19      -0.2718
      5  CB        14.9250  -27.1130    6.1480 C.3    19  PHE19       0.0547
      6  CG        14.2250  -26.8950    7.4660 C.ar   19  PHE19      -0.0202
      7  CD1       12.8710  -27.1820    7.6050 C.ar   19  PHE19      -0.0042
      8  CD2       14.9180  -26.3900    8.5600 C.ar   19  PHE19      -0.0042
      9  CE1       12.2160  -26.9830    8.8190 C.ar   19  PHE19      -0.0003
     10  CE2       14.2720  -26.1800    9.7830 C.ar   19  PHE19      -0.0003
     11  CZ        12.9160  -26.4780    9.9090 C.ar   19  PHE19      -0.0000
     12  N         13.2770  -24.1720    5.6630 N.am   20  THR20      -0.1939
     13  CA        13.2010  -22.8010    6.1430 C.3    20  THR20       0.2028
     14  C         12.2640  -22.6300    7.3320 C.2    20  THR20       0.2643
     15  O         11.1900  -23.2360    7.4040 O.2    20  THR20      -0.2714
     16  CB        12.8120  -21.7890    5.0360 C.3    20  THR20       0.1808
     17  OG1       12.8930  -20.4570    5.5680 O.3    20  THR20      -0.2208
     18  CG2       11.4000  -22.0360    4.5240 C.3    20  THR20       0.0379
     19  N         12.6970  -21.7840    8.2560 N.am   21  THR21      -0.1936
     20  CA        11.8820  -21.3780    9.3820 C.3    21  THR21       0.2028
     21  C         11.0430  -20.1400    9.0240 C.2    21  THR21       0.2642
     22  O         10.1000  -19.7870    9.7370 O.2    21  THR21      -0.2714
     23  CB        12.7750  -21.1590   10.6240 C.3    21  THR21       0.1808
     24  OG1       12.8560  -22.3910   11.3550 O.3    21  THR21      -0.2208
     25  CG2       12.2070  -20.1000   11.5340 C.3    21  THR21       0.0379
     26  N         11.3610  -19.4980    7.9000 N.am   22  ARG22      -0.1977
     27  CA        10.6610  -18.2770    7.5040 C.3    22  ARG22       0.1597
     28  C         10.1990  -18.3030    6.0520 C.2    22  ARG22       0.2287
     29  O         10.6610  -17.4880    5.2430 O.2    22  ARG22      -0.2864
     30  CB        11.5460  -17.0490    7.7510 C.3    22  ARG22       0.0334
     31  CG        11.9310  -16.8050    9.2160 C.3    22  ARG22       0.0492
     32  CD        10.8050  -16.1560   10.0250 C.3    22  ARG22       0.2205
     33  NE        10.3700  -14.8890    9.4310 N.pl3  22  ARG22      -0.0865
     34  CZ        10.9480  -13.7050    9.6390 C.cat  22  ARG22       0.5346
     35  NH1       11.9920  -13.5800   10.4550 N.pl3  22  ARG22       0.1354
     36  NH2       10.4620  -12.6280    9.0390 N.pl3  22  ARG22       0.1354
     37  N         29.9540  -22.8890   11.4630 N.3    69  THR69      -0.1218
     38  CA        28.7800  -22.0950   11.8750 C.3    69  THR69       0.1862
     39  C         29.1230  -20.9100   12.7900 C.2    69  THR69       0.2287
     40  O         28.2300  -20.1930   13.2580 O.2    69  THR69      -0.2866
     41  CB        27.6890  -22.9520   12.5410 C.3    69  THR69       0.1770
     42  OG1       28.2300  -23.5930   13.6990 O.3    69  THR69      -0.2211
     43  CG2       27.1510  -24.0020   11.5770 C.3    69  THR69       0.0375
     44  N         29.1470  -22.3270    5.4850 N.3   100  TYR100     -0.1227
     45  CA        28.2620  -21.9770    6.6010 C.3   100  TYR100      0.1736
     46  C         26.9380  -22.7190    6.5360 C.2   100  TYR100      0.2595
     47  O         26.1530  -22.6810    7.4800 O.2   100  TYR100     -0.2718
     48  CB        28.0650  -20.4600    6.7380 C.3   100  TYR100      0.0548
     49  CG        27.0290  -19.8200    5.8070 C.ar  100  TYR100     -0.0200
     50  CD1       25.7030  -19.6200    6.2290 C.ar  100  TYR100     -0.0009
     51  CD2       27.3820  -19.3950    4.5210 C.ar  100  TYR100     -0.0009
     52  CE1       24.7550  -18.9970    5.3870 C.ar  100  TYR100      0.0417
     53  CE2       26.4410  -18.7790    3.6680 C.ar  100  TYR100      0.0417
     54  CZ        25.1390  -18.5870    4.1020 C.ar  100  TYR100      0.1957
     55  OH        24.2290  -17.9720    3.2670 O.3   100  TYR100     -0.2866
     56  N         26.6930  -23.4100    5.4260 N.am  101  VAL101     -0.1966
     57  CA        25.5810  -24.3400    5.3420 C.3   101  VAL101      0.1727
     58  C         26.1390  -25.7480    5.6120 C.2   101  VAL101      0.2616
     59  O         27.1470  -26.1410    5.0170 O.2   101  VAL101     -0.2715
     60  CB        24.8520  -24.2370    3.9780 C.3   101  VAL101      0.0290
     61  CG1       23.7270  -25.2720    3.8640 C.3   101  VAL101      0.0023
     62  CG2       24.2770  -22.8250    3.8070 C.3   101  VAL101      0.0023
     63  N         25.5030  -26.4680    6.5440 N.am  102  LEU102     -0.1977
     64  CA        25.9370  -27.8170    6.9650 C.3   102  LEU102      0.1596
     65  C         25.1450  -28.9050    6.2650 C.2   102  LEU102      0.2287
     66  O         23.9300  -28.8040    6.1340 O.2   102  LEU102     -0.2864
     67  CB        25.8010  -28.0000    8.4870 C.3   102  LEU102      0.0297
     68  CG        26.5510  -27.0530    9.4230 C.3   102  LEU102      0.0022
     69  CD1       26.3820  -27.4970   10.8710 C.3   102  LEU102      0.0001
     70  CD2       28.0350  -26.9340    9.0740 C.3   102  LEU102      0.0001
     71  N         22.1550  -30.8920    8.6030 N.3   105  TYR105     -0.1241
     72  CA        21.0030  -30.2180    9.1940 C.3   105  TYR105      0.1605
     73  C         19.9490  -29.9070    8.1360 C.2   105  TYR105      0.2264
     74  O         20.2860  -29.4800    7.0270 O.2   105  TYR105     -0.2867
     75  CB        21.4490  -28.9450    9.9160 C.3   105  TYR105      0.0534
     76  CG        20.3870  -28.3230   10.7890 C.ar  105  TYR105     -0.0201
     77  CD1       20.1660  -28.7860   12.0900 C.ar  105  TYR105     -0.0009
     78  CD2       19.6160  -27.2520   10.3310 C.ar  105  TYR105     -0.0009
     79  CE1       19.1880  -28.2040   12.9090 C.ar  105  TYR105      0.0417
     80  CE2       18.6370  -26.6630   11.1410 C.ar  105  TYR105      0.0417
     81  CZ        18.4340  -27.1460   12.4300 C.ar  105  TYR105      0.1957
     82  OH        17.4730  -26.5750   13.2360 O.3   105  TYR105     -0.2866
     83  N         17.7700  -30.0860    5.1210 N.3   107  THR107     -0.1203
     84  CA        18.0600  -30.7880    3.8590 C.3   107  THR107      0.1994
     85  C         19.5050  -30.6020    3.3780 C.2   107  THR107      0.2618
     86  O         19.9230  -31.1930    2.3760 O.2   107  THR107     -0.2717
     87  CB        17.1220  -30.3430    2.7330 C.3   107  THR107      0.1784
     88  OG1       17.3460  -28.9520    2.4450 O.3   107  THR107     -0.2211
     89  CG2       15.6530  -30.5670    3.1160 C.3   107  THR107      0.0376
     90  N         20.2670  -29.7710    4.0780 N.am  108  GLY108     -0.1942
     91  CA        21.6040  -29.3970    3.6180 C.3   108  GLY108      0.2014
     92  C         21.5750  -28.3150    2.5360 C.2   108  GLY108      0.2639
     93  O         22.5990  -28.0440    1.9090 O.2   108  GLY108     -0.2714
     94  N         20.4030  -27.7110    2.3180 N.am  109  ALA109     -0.1963
     95  CA        20.2570  -26.5660    1.3970 C.3   109  ALA109      0.1728
     96  C         19.3790  -25.4600    1.9990 C.2   109  ALA109      0.2616
     97  O         18.4230  -25.7530    2.7270 O.2   109  ALA109     -0.2715
     98  CB        19.6750  -27.0200    0.0760 C.3   109  ALA109      0.0334
     99  N         19.7030  -24.1960    1.6950 N.am  110  VAL110     -0.1963
    100  CA        18.9070  -23.0500    2.1660 C.3   110  VAL110      0.1727
    101  C         18.5170  -22.0800    1.0500 C.2   110  VAL110      0.2616
    102  O         19.1840  -22.0040    0.0050 O.2   110  VAL110     -0.2715
    103  CB        19.6230  -22.2340    3.2890 C.3   110  VAL110      0.0290
    104  CG1       20.0850  -23.1450    4.4420 C.3   110  VAL110      0.0023
    105  CG2       20.7950  -21.3810    2.7440 C.3   110  VAL110      0.0023
    106  N         17.4300  -21.3460    1.2770 N.am  111  MET111     -0.1977
    107  CA        17.1830  -20.1150    0.5340 C.3   111  MET111      0.1605
    108  C         17.7920  -18.9770    1.3510 C.2   111  MET111      0.2287
    109  O         17.5790  -18.8800    2.5790 O.2   111  MET111     -0.2864
    110  CB        15.6830  -19.8920    0.2490 C.3   111  MET111      0.0413
    111  CG        14.7940  -19.6600    1.4800 C.3   111  MET111      0.0598
    112  SD        13.0680  -19.3950    1.0350 S.3   111  MET111     -0.1393
    113  CE        12.4570  -18.5540    2.4950 C.3   111  MET111      0.0692
    114  N         18.3490  -12.4160    7.5790 N.3   117  ASP117     -0.1239
    115  CA        19.1620  -13.4260    8.2620 C.3   117  ASP117      0.1674
    116  C         20.6000  -12.9470    8.3140 C.2   117  ASP117      0.2266
    117  O         21.1710  -12.5480    7.3020 O.2   117  ASP117     -0.2867
    118  CB        19.1000  -14.7830    7.5580 C.3   117  ASP117      0.1410
    119  CG        19.9910  -15.8250    8.2300 C.2   117  ASP117      0.3668
    120  OD1       21.0950  -16.0860    7.7270 O.co2 117  ASP117     -0.2456
    121  OD2       19.6020  -16.3580    9.2910 O.co2 117  ASP117     -0.2456
    122  N         23.6210  -14.3990    8.8290 N.3   119  ARG119     -0.1231
    123  CA        24.6550  -15.1250    8.1070 C.3   119  ARG119      0.1694
    124  C         24.5280  -14.8700    6.5960 C.2   119  ARG119      0.2592
    125  O         25.5290  -14.6690    5.9130 O.2   119  ARG119     -0.2718
    126  CB        24.6010  -16.6270    8.4240 C.3   119  ARG119      0.0321
    127  CG        25.0970  -16.9770    9.8300 C.3   119  ARG119      0.0489
    128  CD        25.1200  -18.4850   10.0300 C.3   119  ARG119      0.2205
    129  NE        25.6950  -18.8820   11.3190 N.pl3 119  ARG119     -0.0865
    130  CZ        25.0440  -18.8280   12.4830 C.cat 119  ARG119      0.5346
    131  NH1       23.7960  -18.3740   12.5360 N.pl3 119  ARG119      0.1354
    132  NH2       25.6430  -19.2230   13.6050 N.pl3 119  ARG119      0.1354
    133  N         23.2890  -14.8620    6.1050 N.am  120  ASP120     -0.1974
    134  CA        23.0050  -14.5950    4.6870 C.3   120  ASP120      0.1709
    135  C         23.4400  -13.1680    4.3240 C.2   120  ASP120      0.2293
    136  O         23.9980  -12.9320    3.2470 O.2   120  ASP120     -0.2864
    137  CB        21.5130  -14.7670    4.3950 C.3   120  ASP120      0.1436
    138  CG        21.0360  -16.2060    4.5290 C.2   120  ASP120      0.3671
    139  OD1       21.8660  -17.1500    4.5010 O.co2 120  ASP120     -0.2456
    140  OD2       19.8030  -16.3940    4.6350 O.co2 120  ASP120     -0.2456
@<TRIPOS>BOND
     1   102   101    2
     2    98    95    1
     3   110   107    1
     4   110   111    1
     5   107   106    1
     6   107   108    1
     7   112   111    1
     8   112   113    1
     9   101   106   am
    10   101   100    1
    11   108   109    2
    12    95    96    1
    13    95    94    1
    14    99    96   am
    15    99   100    1
    16    93    92    2
    17    96    97    2
    18   100   103    1
    19    94    92   am
    20    86    85    2
    21    88    87    1
    22    92    91    1
    23    87    89    1
    24    87    84    1
    25   105   103    1
    26   136   135    2
    27    55    54    1
    28   103   104    1
    29    85    84    1
    30    85    90   am
    31    91    90    1
    32    53    54   ar
    33    53    51   ar
    34     1     2    1
    35    62    60    1
    36    84    83    1
    37    61    60    1
    38    60    57    1
    39    54    52   ar
    40   135   134    1
    41   137   138    1
    42   137   134    1
    43   139   138   ar
    44    51    49   ar
    45    18    16    1
    46   138   140   ar
    47   134   133    1
    48    59    58    2
    49     2     3    1
    50     2     5    1
    51    16    17    1
    52    16    13    1
    53    29    28    2
    54    57    56    1
    55    57    58    1
    56    52    50   ar
    57    56    46   am
    58     3     4    2
    59     3    12   am
    60    44    45    1
    61    58    63   am
    62    12    13    1
    63    49    50   ar
    64    49    48    1
    65   125   124    2
    66    28    27    1
    67   133   124   am
    68    66    65    2
    69    13    14    1
    70     5     6    1
    71    65    64    1
    72    46    45    1
    73    46    47    2
    74    63    64    1
    75   124   123    1
    76    45    48    1
    77    64    67    1
    78    74    73    2
    79   117   116    2
    80    14    15    2
    81    14    19   am
    82     6     7   ar
    83     6     8   ar
    84    27    30    1
    85    27    26    1
    86   118   119    1
    87   118   115    1
    88   114   115    1
    89     7     9   ar
    90   120   119   ar
    91    30    31    1
    92    26    21   am
    93   123   126    1
    94   123   122    1
    95    73    72    1
    96   119   121   ar
    97    19    20    1
    98   115   116    1
    99   126   127    1
   100    67    68    1
   101     8    10   ar
   102    71    72    1
   103     9    11   ar
   104    21    20    1
   105    21    22    2
   106    36    34    1
   107    70    68    1
   108    72    75    1
   109    31    32    1
   110    20    23    1
   111    68    69    1
   112    33    34    2
   113    33    32    1
   114    34    35    1
   115    10    11   ar
   116   127   128    1
   117    75    76    1
   118   128   129    1
   119    78    76   ar
   120    78    80   ar
   121    23    24    1
   122    23    25    1
   123    76    77   ar
   124    80    81   ar
   125   129   130    2
   126    37    38    1
   127    43    41    1
   128    38    41    1
   129    38    39    1
   130    77    79   ar
   131    81    79   ar
   132    81    82    1
   133   130   131    1
   134   130   132    1
   135    41    42    1
   136    39    40    2
