@<TRIPOS>MOLECULE
tmp/4k4aC02.pdb
 114 106 0 0 0
SMALL
GASTEIGER

@<TRIPOS>ATOM
      1  N         35.0760  -56.6710  -33.0430 N.3    15  MET15      -0.1245
      2  CA        35.1230  -56.0060  -31.7420 C.3    15  MET15       0.1570
      3  C         33.8920  -56.2990  -30.8940 C.2    15  MET15       0.2261
      4  O         33.9790  -56.3400  -29.6600 O.2    15  MET15      -0.2867
      5  CB        35.2560  -54.4860  -31.9070 C.3    15  MET15       0.0387
      6  CG        36.5120  -54.0300  -32.6360 C.3    15  MET15       0.0595
      7  SD        36.5670  -52.2240  -32.7440 S.3    15  MET15      -0.1393
      8  CE        36.9710  -51.7980  -31.0430 C.3    15  MET15       0.0692
      9  N         27.2830  -55.4820  -28.4380 N.3    21  VAL21      -0.1245
     10  CA        27.1670  -55.2150  -29.8670 C.3    21  VAL21       0.1561
     11  C         26.9290  -56.4960  -30.6730 C.2    21  VAL21       0.2260
     12  O         26.0680  -56.5370  -31.5520 O.2    21  VAL21      -0.2867
     13  CB        28.4070  -54.4630  -30.3790 C.3    21  VAL21       0.0252
     14  CG1       28.3970  -54.3840  -31.8860 C.3    21  VAL21       0.0019
     15  CG2       28.4430  -53.0460  -29.7670 C.3    21  VAL21       0.0019
     16  N         25.3700  -44.9490  -29.5210 N.3    63  GLU63      -0.1231
     17  CA        26.6020  -44.8960  -28.7360 C.3    63  GLU63       0.1699
     18  C         27.6460  -45.8970  -29.2420 C.2    63  GLU63       0.2592
     19  O         28.8560  -45.6630  -29.1120 O.2    63  GLU63      -0.2718
     20  CB        26.3310  -45.0800  -27.2310 C.3    63  GLU63       0.0402
     21  CG        27.5700  -44.7830  -26.3550 C.3    63  GLU63       0.1161
     22  CD        27.2420  -44.3030  -24.9450 C.2    63  GLU63       0.3649
     23  OE1       26.0740  -43.9100  -24.6720 O.co2  63  GLU63      -0.2457
     24  OE2       28.1650  -44.3190  -24.0970 O.co2  63  GLU63      -0.2457
     25  N         27.1890  -47.0110  -29.8130 N.am   64  SER64      -0.1952
     26  CA        28.1220  -47.9920  -30.3770 C.3    64  SER64       0.1924
     27  C         28.8950  -47.4170  -31.5640 C.2    64  SER64       0.2314
     28  O         30.1230  -47.5300  -31.6440 O.2    64  SER64      -0.2863
     29  CB        27.3920  -49.2630  -30.8280 C.3    64  SER64       0.2116
     30  OG        26.8820  -50.0010  -29.7320 O.3    64  SER64      -0.2180
     31  N         31.1430  -44.2060  -30.5170 N.3    67  SER67      -0.1202
     32  CA        32.3150  -44.4900  -29.6800 C.3    67  SER67       0.2020
     33  C         33.3780  -45.2030  -30.4910 C.2    67  SER67       0.2618
     34  O         34.5810  -44.9390  -30.3460 O.2    67  SER67      -0.2717
     35  CB        31.9370  -45.3500  -28.4800 C.3    67  SER67       0.2103
     36  OG        31.0000  -44.6990  -27.6440 O.3    67  SER67      -0.2182
     37  N         32.9300  -46.1270  -31.3320 N.am   68  VAL68      -0.1979
     38  CA        33.8430  -46.8440  -32.2140 C.3    68  VAL68       0.1595
     39  C         34.4780  -45.8710  -33.1880 C.2    68  VAL68       0.2287
     40  O         35.6890  -45.9120  -33.4040 O.2    68  VAL68      -0.2864
     41  CB        33.1430  -47.9880  -32.9560 C.3    68  VAL68       0.0276
     42  CG1       34.0210  -48.5170  -34.0810 C.3    68  VAL68       0.0022
     43  CG2       32.8220  -49.1080  -31.9880 C.3    68  VAL68       0.0022
     44  N         37.0220  -43.9030  -31.2750 N.3    71  TYR71      -0.1241
     45  CA        38.2200  -44.7120  -31.0490 C.3    71  TYR71       0.1605
     46  C         39.1060  -44.7190  -32.2940 C.2    71  TYR71       0.2264
     47  O         40.3330  -44.6180  -32.2090 O.2    71  TYR71      -0.2867
     48  CB        37.7950  -46.1440  -30.6890 C.3    71  TYR71       0.0534
     49  CG        38.9280  -47.1550  -30.6570 C.ar   71  TYR71      -0.0201
     50  CD1       39.8430  -47.1620  -29.6110 C.ar   71  TYR71      -0.0009
     51  CD2       39.0700  -48.1070  -31.6640 C.ar   71  TYR71      -0.0009
     52  CE1       40.8740  -48.0840  -29.5660 C.ar   71  TYR71       0.0417
     53  CE2       40.1110  -49.0310  -31.6310 C.ar   71  TYR71       0.0417
     54  CZ        41.0010  -49.0120  -30.5740 C.ar   71  TYR71       0.1957
     55  OH        42.0300  -49.9240  -30.5200 O.3    71  TYR71      -0.2866
     56  N         42.1330  -44.3930  -25.2680 N.3    79  LYS79      -0.1231
     57  CA        40.7910  -44.9630  -25.1640 C.3    79  LYS79       0.1693
     58  C         39.7390  -43.8690  -25.3020 C.2    79  LYS79       0.2592
     59  O         40.0100  -42.6950  -25.0320 O.2    79  LYS79      -0.2718
     60  CB        40.6180  -45.6620  -23.8140 C.3    79  LYS79       0.0285
     61  CG        41.4990  -46.8850  -23.6610 C.3    79  LYS79       0.0035
     62  CD        41.3470  -47.5200  -22.2930 C.3    79  LYS79       0.0206
     63  CE        42.1960  -46.8140  -21.2470 C.3    79  LYS79       0.1093
     64  NZ        42.5020  -47.7340  -20.1160 N.3    79  LYS79      -0.1314
     65  N         38.5420  -44.2640  -25.7250 N.am   80  VAL80      -0.1966
     66  CA        37.4250  -43.3400  -25.8600 C.3    80  VAL80       0.1727
     67  C         36.2240  -43.9020  -25.1060 C.2    80  VAL80       0.2616
     68  O         35.8290  -45.0480  -25.3340 O.2    80  VAL80      -0.2715
     69  CB        37.0500  -43.1540  -27.3430 C.3    80  VAL80       0.0290
     70  CG1       35.7050  -42.5060  -27.4730 C.3    80  VAL80       0.0023
     71  CG2       38.1070  -42.3160  -28.0550 C.3    80  VAL80       0.0023
     72  N         35.6450  -43.1000  -24.2140 N.am   81  VAL81      -0.1963
     73  CA        34.4250  -43.4890  -23.5080 C.3    81  VAL81       0.1727
     74  C         33.3240  -42.4580  -23.7530 C.2    81  VAL81       0.2617
     75  O         33.6030  -41.2770  -23.9960 O.2    81  VAL81      -0.2715
     76  CB        34.6490  -43.6320  -21.9780 C.3    81  VAL81       0.0290
     77  CG1       35.6910  -44.7150  -21.6670 C.3    81  VAL81       0.0023
     78  CG2       35.0600  -42.3150  -21.3690 C.3    81  VAL81       0.0023
     79  N         32.0720  -42.8990  -23.6880 N.am   82  GLY82      -0.1940
     80  CA        30.9640  -41.9740  -23.8570 C.3    82  GLY82       0.2014
     81  C         30.8200  -41.1590  -22.5910 C.2    82  GLY82       0.2638
     82  O         30.8990  -41.7090  -21.4830 O.2    82  GLY82      -0.2714
     83  N         30.6060  -39.8550  -22.7390 N.am   83  LEU83      -0.1977
     84  CA        30.4850  -38.9600  -21.5880 C.3    83  LEU83       0.1596
     85  C         29.0440  -38.4800  -21.4200 C.2    83  LEU83       0.2287
     86  O         28.5050  -38.4120  -20.3000 O.2    83  LEU83      -0.2864
     87  CB        31.4000  -37.7530  -21.7850 C.3    83  LEU83       0.0297
     88  CG        31.2730  -36.6050  -20.7900 C.3    83  LEU83       0.0022
     89  CD1       31.7640  -37.0400  -19.4340 C.3    83  LEU83       0.0001
     90  CD2       32.0780  -35.4280  -21.2810 C.3    83  LEU83       0.0001
     91  N         40.7720  -33.7240  -26.3640 N.3   110  ARG110     -0.1245
     92  CA        40.3200  -34.4350  -25.1610 C.3   110  ARG110      0.1563
     93  C         38.8610  -34.8820  -25.2470 C.2   110  ARG110      0.2260
     94  O         38.4500  -35.8010  -24.5390 O.2   110  ARG110     -0.2867
     95  CB        40.5610  -33.5880  -23.8930 C.3   110  ARG110      0.0307
     96  CG        42.0440  -33.4760  -23.4880 C.3   110  ARG110      0.0489
     97  CD        42.2770  -32.4760  -22.3580 C.3   110  ARG110      0.2205
     98  NE        41.2500  -32.5640  -21.3250 N.pl3 110  ARG110     -0.0865
     99  CZ        41.1520  -33.5460  -20.4310 C.cat 110  ARG110      0.5346
    100  NH1       42.0280  -34.5480  -20.4260 N.pl3 110  ARG110      0.1354
    101  NH2       40.1680  -33.5260  -19.5380 N.pl3 110  ARG110      0.1354
    102  N         34.9430  -38.7030  -24.1580 N.3   134  ALA134     -0.1245
    103  CA        36.1460  -38.2000  -23.5230 C.3   134  ALA134      0.1562
    104  C         37.2880  -39.0830  -24.0010 C.2   134  ALA134      0.2260
    105  O         37.1530  -40.3080  -24.0460 O.2   134  ALA134     -0.2867
    106  CB        36.0050  -38.2650  -22.0100 C.3   134  ALA134      0.0290
    107  N         40.8100  -40.7150  -23.2800 N.3   136  LEU136     -0.1245
    108  CA        41.5680  -41.0530  -22.0760 C.3   136  LEU136      0.1561
    109  C         42.9450  -41.6100  -22.4230 C.2   136  LEU136      0.2260
    110  O         43.1480  -42.1740  -23.5040 O.2   136  LEU136     -0.2867
    111  CB        40.7900  -42.0470  -21.2090 C.3   136  LEU136      0.0270
    112  CG        39.3520  -41.6730  -20.8210 C.3   136  LEU136      0.0019
    113  CD1       38.7670  -42.7220  -19.9080 C.3   136  LEU136      0.0001
    114  CD2       39.2890  -40.2980  -20.1710 C.3   136  LEU136      0.0001
@<TRIPOS>BOND
     1    42    41    1
     2    40    39    2
     3    39    38    1
     4     1     2    1
     5    41    38    1
     6    41    43    1
     7     7     6    1
     8     7     8    1
     9     6     5    1
    10    46    47    2
    11    46    45    1
    12    38    37    1
    13     5     2    1
    14    14    13    1
    15     2     3    1
    16    51    53   ar
    17    51    49   ar
    18    28    27    2
    19    53    54   ar
    20    27    26    1
    21    12    11    2
    22    37    33   am
    23    44    45    1
    24    45    48    1
    25     3     4    2
    26    29    26    1
    27    29    30    1
    28    48    49    1
    29    11    10    1
    30    49    50   ar
    31    54    55    1
    32    54    52   ar
    33    31    32    1
    34    33    34    2
    35    33    32    1
    36    13    10    1
    37    13    15    1
    38    26    25    1
    39    10     9    1
    40    25    18   am
    41    32    35    1
    42    50    52   ar
    43    16    17    1
    44    18    19    2
    45    18    17    1
    46    17    20    1
    47    35    36    1
    48    71    69    1
    49    70    69    1
    50    69    66    1
    51    20    21    1
    52    91    92    1
    53    21    22    1
    54    66    65    1
    55    66    67    1
    56    65    58   am
    57    68    67    2
    58    58    57    1
    59    58    59    2
    60    56    57    1
    61    93    92    1
    62    93    94    2
    63    57    60    1
    64    92    95    1
    65    67    72   am
    66    22    23   ar
    67    22    24   ar
    68    72    73    1
    69   102   103    1
    70   105   104    2
    71   104   103    1
    72    75    74    2
    73    95    96    1
    74    80    79    1
    75    80    81    1
    76    60    61    1
    77    74    79   am
    78    74    73    1
    79    61    62    1
    80   103   106    1
    81    73    76    1
    82   110   109    2
    83    96    97    1
    84   107   108    1
    85    83    81   am
    86    83    84    1
    87    81    82    2
    88   109   108    1
    89    97    98    1
    90    62    63    1
    91   108   111    1
    92    76    77    1
    93    76    78    1
    94    87    84    1
    95    87    88    1
    96    84    85    1
    97    85    86    2
    98    98    99    2
    99    90    88    1
   100    63    64    1
   101   111   112    1
   102   112   114    1
   103   112   113    1
   104    88    89    1
   105    99   100    1
   106    99   101    1
