@<TRIPOS>MOLECULE
tmp/4k4aC00.pdb
 110 110 0 0 0
SMALL
GASTEIGER

@<TRIPOS>ATOM
      1  N         10.3990  -52.9260  -27.1950 N.3    48  GLN48      -0.1231
      2  CA         9.8150  -52.6880  -25.8770 C.3    48  GLN48       0.1683
      3  C          8.5420  -53.5480  -25.7380 C.2    48  GLN48       0.2434
      4  O          8.1350  -54.1790  -26.7140 O.2    48  GLN48      -0.2733
      5  CB         9.6150  -51.1770  -25.6060 C.3    48  GLN48       0.0380
      6  CG         9.1750  -50.3100  -26.7770 C.3    48  GLN48       0.0905
      7  CD         7.6810  -50.3240  -26.9500 C.2    48  GLN48       0.2608
      8  OE1        7.0940  -51.3760  -27.1620 O.2    48  GLN48      -0.2717
      9  NE2        7.0500  -49.1610  -26.8340 N.am   48  GLN48      -0.0878
     10  N          7.9470  -53.6350  -24.5300 N.am   49  PRO49      -0.2718
     11  CA         6.8580  -54.6130  -24.3670 C.3    49  PRO49       0.1535
     12  C          5.6440  -54.4430  -25.2830 C.2    49  PRO49       0.2598
     13  O          4.8060  -55.3440  -25.3260 O.2    49  PRO49      -0.2715
     14  CB         6.4310  -54.4030  -22.9120 C.3    49  PRO49       0.0310
     15  CG         7.6860  -54.0050  -22.2330 C.3    49  PRO49       0.0237
     16  CD         8.3740  -53.0950  -23.2270 C.3    49  PRO49       0.0939
     17  N          5.5440  -53.3300  -26.0020 N.am   50  PHE50      -0.1974
     18  CA         4.3570  -53.0840  -26.8170 C.3    50  PHE50       0.1639
     19  C          4.6330  -53.2000  -28.3160 C.2    50  PHE50       0.2290
     20  O          3.8100  -52.8050  -29.1430 O.2    50  PHE50      -0.2864
     21  CB         3.7370  -51.7260  -26.4650 C.3    50  PHE50       0.0560
     22  CG         3.4530  -51.5540  -24.9950 C.ar   50  PHE50      -0.0200
     23  CD1        2.4060  -52.2410  -24.3940 C.ar   50  PHE50      -0.0042
     24  CD2        4.2310  -50.7040  -24.2160 C.ar   50  PHE50      -0.0042
     25  CE1        2.1370  -52.0870  -23.0400 C.ar   50  PHE50      -0.0003
     26  CE2        3.9730  -50.5440  -22.8580 C.ar   50  PHE50      -0.0003
     27  CZ         2.9200  -51.2370  -22.2690 C.ar   50  PHE50      -0.0000
     28  N          7.2700  -51.9770  -30.2240 N.3    52  LEU52      -0.1231
     29  CA         8.0620  -50.9640  -30.9150 C.3    52  LEU52       0.1693
     30  C          9.5360  -51.1760  -30.6170 C.2    52  LEU52       0.2592
     31  O          9.8920  -51.8060  -29.6160 O.2    52  LEU52      -0.2718
     32  CB         7.6620  -49.5550  -30.4680 C.3    52  LEU52       0.0284
     33  CG         6.1870  -49.1620  -30.4690 C.3    52  LEU52       0.0019
     34  CD1        6.0250  -47.7470  -29.9110 C.3    52  LEU52       0.0001
     35  CD2        5.6150  -49.2640  -31.8660 C.3    52  LEU52       0.0001
     36  N         10.3930  -50.6560  -31.4910 N.am   53  LEU53      -0.1966
     37  CA        11.8180  -50.5900  -31.1970 C.3    53  LEU53       0.1728
     38  C         11.9930  -49.8290  -29.8880 C.2    53  LEU53       0.2616
     39  O         11.4420  -48.7360  -29.7110 O.2    53  LEU53      -0.2715
     40  CB        12.5590  -49.8800  -32.3370 C.3    53  LEU53       0.0311
     41  CG        14.0520  -49.6360  -32.0930 C.3    53  LEU53       0.0022
     42  CD1       14.8080  -50.9490  -32.0560 C.3    53  LEU53       0.0001
     43  CD2       14.6470  -48.6970  -33.1470 C.3    53  LEU53       0.0001
     44  N         12.7270  -50.4200  -28.9550 N.am   54  HIS54      -0.1959
     45  CA        12.9710  -49.8030  -27.6570 C.3    54  HIS54       0.1787
     46  C         13.8070  -48.5510  -27.9040 C.2    54  HIS54       0.2620
     47  O         14.7770  -48.5930  -28.6740 O.2    54  HIS54      -0.2715
     48  CB        13.7260  -50.8100  -26.7800 C.3    54  HIS54       0.0785
     49  CG        13.7480  -50.4800  -25.3120 C.ar   54  HIS54       0.0821
     50  ND1       14.3110  -49.3270  -24.8120 N.ar   54  HIS54      -0.2267
     51  CD2       13.3170  -51.1890  -24.2410 C.ar   54  HIS54       0.1154
     52  CE1       14.2090  -49.3250  -23.4900 C.ar   54  HIS54       0.1986
     53  NE2       13.6170  -50.4450  -23.1210 N.ar   54  HIS54      -0.2212
     54  N         13.4330  -47.4320  -27.2820 N.am   55  GLY55      -0.1954
     55  CA        14.1660  -46.1890  -27.4630 C.3    55  GLY55       0.1869
     56  C         15.6160  -46.3550  -27.0490 C.2    55  GLY55       0.2309
     57  O         16.5320  -45.7880  -27.6630 O.2    55  GLY55      -0.2863
     58  N         16.5880  -37.8690  -29.8820 N.3    88  ASN88      -0.1225
     59  CA        15.1660  -37.6610  -30.0900 C.3    88  ASN88       0.1785
     60  C         14.5680  -38.8090  -30.8900 C.2    88  ASN88       0.2597
     61  O         15.0460  -39.1140  -31.9880 O.2    88  ASN88      -0.2718
     62  CB        14.9170  -36.3460  -30.8160 C.3    88  ASN88       0.1169
     63  CG        13.5210  -35.8550  -30.6100 C.2    88  ASN88       0.2627
     64  OD1       12.5670  -36.4090  -31.1700 O.2    88  ASN88      -0.2716
     65  ND2       13.3720  -34.8370  -29.7750 N.am   88  ASN88      -0.0877
     66  N         13.5400  -39.4580  -30.3420 N.am   89  HIS89      -0.1961
     67  CA        12.8560  -40.5310  -31.0500 C.3    89  HIS89       0.1787
     68  C         11.7390  -39.9190  -31.8670 C.2    89  HIS89       0.2620
     69  O         10.6650  -39.6350  -31.3290 O.2    89  HIS89      -0.2715
     70  CB        12.2790  -41.5570  -30.0660 C.3    89  HIS89       0.0785
     71  CG        13.2690  -42.0380  -29.0520 C.ar   89  HIS89       0.0821
     72  ND1       14.4880  -42.5820  -29.4030 N.ar   89  HIS89      -0.2267
     73  CD2       13.2310  -42.0430  -27.6980 C.ar   89  HIS89       0.1154
     74  CE1       15.1580  -42.8970  -28.3080 C.ar   89  HIS89       0.1986
     75  NE2       14.4140  -42.5830  -27.2590 N.ar   89  HIS89      -0.2212
     76  N         11.9860  -39.7270  -33.1610 N.am   90  VAL90      -0.1963
     77  CA        11.0480  -39.0050  -34.0150 C.3    90  VAL90       0.1727
     78  C         10.0630  -39.9130  -34.7390 C.2    90  VAL90       0.2616
     79  O          9.0060  -39.4590  -35.1690 O.2    90  VAL90      -0.2715
     80  CB        11.7630  -38.1090  -35.0540 C.3    90  VAL90       0.0290
     81  CG1       12.7440  -37.1740  -34.3660 C.3    90  VAL90       0.0023
     82  CG2       12.4750  -38.9460  -36.0990 C.3    90  VAL90       0.0023
     83  N         10.4130  -41.1870  -34.8970 N.am   91  ARG91      -0.1963
     84  CA         9.5120  -42.1330  -35.5330 C.3    91  ARG91       0.1729
     85  C          9.7650  -43.5040  -34.9620 C.2    91  ARG91       0.2616
     86  O         10.9070  -43.8680  -34.6760 O.2    91  ARG91      -0.2715
     87  CB         9.7110  -42.1520  -37.0520 C.3    91  ARG91       0.0348
     88  CG         8.8730  -43.2060  -37.7920 C.3    91  ARG91       0.0492
     89  CD         9.1770  -43.2330  -39.2910 C.3    91  ARG91       0.2205
     90  NE         8.7150  -42.0110  -39.9500 N.pl3  91  ARG91      -0.0865
     91  CZ         7.4610  -41.8080  -40.3560 C.cat  91  ARG91       0.5346
     92  NH1        7.1320  -40.6630  -40.9400 N.pl3  91  ARG91       0.1354
     93  NH2        6.5340  -42.7470  -40.1800 N.pl3  91  ARG91       0.1354
     94  N          8.6990  -44.2730  -34.7840 N.am   92  SER92      -0.1950
     95  CA         8.8540  -45.6330  -34.3060 C.3    92  SER92       0.1924
     96  C          9.2160  -46.5930  -35.4460 C.2    92  SER92       0.2314
     97  O          9.0440  -46.2790  -36.6350 O.2    92  SER92      -0.2863
     98  CB         7.5630  -46.0860  -33.6260 C.3    92  SER92       0.2116
     99  OG         6.5150  -46.1750  -34.5730 O.3    92  SER92      -0.2180
    100  N          9.0570  -51.1150  -36.2220 N.3    94  ARG94      -0.1245
    101  CA         8.4810  -52.3650  -35.7200 C.3    94  ARG94       0.1563
    102  C          9.1250  -53.6260  -36.3000 C.2    94  ARG94       0.2260
    103  O          8.9360  -54.7270  -35.7710 O.2    94  ARG94      -0.2867
    104  CB         6.9760  -52.4180  -36.0090 C.3    94  ARG94       0.0307
    105  CG         6.1490  -51.4500  -35.1840 C.3    94  ARG94       0.0489
    106  CD         4.6730  -51.4780  -35.5840 C.3    94  ARG94       0.2205
    107  NE         3.8580  -50.6170  -34.7230 N.pl3  94  ARG94      -0.0865
    108  CZ         3.8000  -49.2890  -34.8280 C.cat  94  ARG94       0.5346
    109  NH1        4.5170  -48.6570  -35.7510 N.pl3  94  ARG94       0.1354
    110  NH2        3.0310  -48.5870  -34.0010 N.pl3  94  ARG94       0.1354
@<TRIPOS>BOND
     1    92    91    1
     2    91    93    1
     3    91    90    2
     4    90    89    1
     5    89    88    1
     6    88    87    1
     7    87    84    1
     8    97    96    2
     9   102   103    2
    10   102   101    1
    11   100   101    1
    12    82    80    1
    13   104   101    1
    14   104   105    1
    15   109   108    1
    16   106   105    1
    17   106   107    1
    18    84    85    1
    19    84    83    1
    20    96    95    1
    21    79    78    2
    22    80    81    1
    23    80    77    1
    24    85    94   am
    25    85    86    2
    26    83    78   am
    27   108   107    2
    28   108   110    1
    29    94    95    1
    30    78    77    1
    31    99    98    1
    32    95    98    1
    33    77    76    1
    34    76    68   am
    35    43    41    1
    36    40    41    1
    37    40    37    1
    38    41    42    1
    39    61    60    2
    40    68    69    2
    41    68    67    1
    42    35    33    1
    43    36    37    1
    44    36    30   am
    45    37    38    1
    46    64    63    2
    47    67    66    1
    48    67    70    1
    49    29    30    1
    50    29    32    1
    51    29    28    1
    52    60    66   am
    53    60    59    1
    54    62    63    1
    55    62    59    1
    56    30    31    2
    57    63    65   am
    58    33    32    1
    59    33    34    1
    60    59    58    1
    61    70    71    1
    62    38    39    2
    63    38    44   am
    64    72    71   ar
    65    72    74   ar
    66    20    19    2
    67    71    73   ar
    68    44    45    1
    69    47    46    2
    70    19    18    1
    71    74    75   ar
    72    46    45    1
    73    46    54   am
    74    73    75   ar
    75    57    56    2
    76    45    48    1
    77    55    54    1
    78    55    56    1
    79     1     2    1
    80     8     7    2
    81     7     9   am
    82     7     6    1
    83    18    21    1
    84    18    17    1
    85    48    49    1
    86     6     5    1
    87     4     3    2
    88    21    22    1
    89    17    12   am
    90     2     3    1
    91     2     5    1
    92     3    10   am
    93    13    12    2
    94    49    50   ar
    95    49    51   ar
    96    12    11    1
    97    22    23   ar
    98    22    24   ar
    99    50    52   ar
   100    10    11    1
   101    10    16    1
   102    23    25   ar
   103    11    14    1
   104    51    53   ar
   105    24    26   ar
   106    52    53   ar
   107    16    15    1
   108    25    27   ar
   109    14    15    1
   110    26    27   ar
