@<TRIPOS>MOLECULE
tmp/4k4bF01.pdb
 123 112 0 0 0
SMALL
GASTEIGER

@<TRIPOS>ATOM
      1  N         25.7260   61.7800  -37.2040 N.3    12  LEU12      -0.1245
      2  CA        25.7290   60.3240  -37.3150 C.3    12  LEU12       0.1561
      3  C         27.0730   59.7520  -36.8770 C.2    12  LEU12       0.2260
      4  O         27.1360   58.7670  -36.1310 O.2    12  LEU12      -0.2867
      5  CB        25.4340   59.9020  -38.7510 C.3    12  LEU12       0.0270
      6  CG        24.0550   60.2290  -39.3190 C.3    12  LEU12       0.0019
      7  CD1       23.9280   59.7150  -40.7540 C.3    12  LEU12       0.0001
      8  CD2       22.9430   59.6760  -38.4350 C.3    12  LEU12       0.0001
      9  N         27.7680   59.8400  -33.1660 N.3    15  MET15      -0.1230
     10  CA        27.0310   58.7980  -32.4490 C.3    15  MET15       0.1702
     11  C         27.7620   57.4510  -32.3460 C.2    15  MET15       0.2592
     12  O         27.5080   56.6750  -31.4270 O.2    15  MET15      -0.2718
     13  CB        25.6600   58.5780  -33.1050 C.3    15  MET15       0.0401
     14  CG        24.6730   59.6870  -32.8480 C.3    15  MET15       0.0596
     15  SD        24.2900   59.8200  -31.0960 S.3    15  MET15      -0.1393
     16  CE        23.5200   58.2290  -30.8110 C.3    15  MET15       0.0692
     17  N         28.6580   57.1660  -33.2850 N.am   16  GLY16      -0.1957
     18  CA        29.3640   55.8990  -33.2780 C.3    16  GLY16       0.1869
     19  C         30.4840   55.8380  -32.2610 C.2    16  GLY16       0.2309
     20  O         31.0140   54.7650  -31.9650 O.2    16  GLY16      -0.2863
     21  N         31.1950   53.0110  -29.1960 N.3    19  ASN19      -0.1240
     22  CA        30.4670   51.7540  -29.3930 C.3    19  ASN19       0.1653
     23  C         30.9940   51.0030  -30.6190 C.2    19  ASN19       0.2266
     24  O         32.0110   51.3970  -31.1920 O.2    19  ASN19      -0.2867
     25  CB        28.9540   52.0070  -29.4710 C.3    19  ASN19       0.1155
     26  CG        28.5930   53.0800  -30.4700 C.2    19  ASN19       0.2627
     27  OD1       28.4970   52.8140  -31.6640 O.2    19  ASN19      -0.2716
     28  ND2       28.3780   54.3020  -29.9870 N.am   19  ASN19      -0.0877
     29  N         30.2660   50.7250  -33.7680 N.3    21  VAL21      -0.1245
     30  CA        30.4150   51.4750  -35.0150 C.3    21  VAL21       0.1561
     31  C         31.7520   52.2260  -35.0420 C.2    21  VAL21       0.2260
     32  O         32.5110   52.1260  -36.0150 O.2    21  VAL21      -0.2867
     33  CB        29.2360   52.4440  -35.2160 C.3    21  VAL21       0.0252
     34  CG1       29.5610   53.4920  -36.2800 C.3    21  VAL21       0.0019
     35  CG2       27.9900   51.6710  -35.5890 C.3    21  VAL21       0.0019
     36  N         30.0050   57.3050  -41.8150 N.3    28  PHE28      -0.1241
     37  CA        28.9780   57.7030  -42.7800 C.3    28  PHE28       0.1605
     38  C         29.5130   58.7890  -43.7000 C.2    28  PHE28       0.2264
     39  O         30.1220   59.7530  -43.2350 O.2    28  PHE28      -0.2867
     40  CB        27.7070   58.1470  -42.0720 C.3    28  PHE28       0.0534
     41  CG        26.9870   57.0170  -41.4070 C.ar   28  PHE28      -0.0203
     42  CD1       25.9610   56.3480  -42.0620 C.ar   28  PHE28      -0.0042
     43  CD2       27.3770   56.5800  -40.1500 C.ar   28  PHE28      -0.0042
     44  CE1       25.3060   55.2830  -41.4530 C.ar   28  PHE28      -0.0003
     45  CE2       26.7340   55.5230  -39.5390 C.ar   28  PHE28      -0.0003
     46  CZ        25.6890   54.8760  -40.1910 C.ar   28  PHE28      -0.0000
     47  N         23.7710   46.3010  -41.2850 N.3    63  GLU63      -0.1231
     48  CA        22.7700   46.5760  -40.2520 C.3    63  GLU63       0.1699
     49  C         22.8860   47.9920  -39.7150 C.2    63  GLU63       0.2592
     50  O         21.8720   48.6170  -39.4220 O.2    63  GLU63      -0.2718
     51  CB        22.8370   45.5790  -39.0850 C.3    63  GLU63       0.0402
     52  CG        22.0850   44.2800  -39.3420 C.3    63  GLU63       0.1161
     53  CD        21.8360   43.4540  -38.0770 C.2    63  GLU63       0.3649
     54  OE1       21.4190   44.0270  -37.0550 O.co2  63  GLU63      -0.2457
     55  OE2       22.0520   42.2260  -38.1140 O.co2  63  GLU63      -0.2457
     56  N         24.1100   48.4920  -39.5680 N.am   64  SER64      -0.1952
     57  CA        24.3050   49.8700  -39.0960 C.3    64  SER64       0.1924
     58  C         23.7140   50.8990  -40.0560 C.2    64  SER64       0.2314
     59  O         22.9440   51.7820  -39.6490 O.2    64  SER64      -0.2863
     60  CB        25.7900   50.1580  -38.8300 C.3    64  SER64       0.2116
     61  OG        26.2990   49.2610  -37.8600 O.3    64  SER64      -0.2180
     62  N         19.7260   50.4720  -40.2840 N.3    67  SER67      -0.1202
     63  CA        19.0330   50.9450  -39.0950 C.3    67  SER67       0.2020
     64  C         18.9820   52.4720  -39.0690 C.2    67  SER67       0.2618
     65  O         17.9570   53.0650  -38.7140 O.2    67  SER67      -0.2717
     66  CB        19.7240   50.4280  -37.8390 C.3    67  SER67       0.2103
     67  OG        19.8170   49.0230  -37.8750 O.3    67  SER67      -0.2182
     68  N         20.0930   53.1060  -39.4350 N.am   68  VAL68      -0.1979
     69  CA        20.1430   54.5590  -39.4390 C.3    68  VAL68       0.1595
     70  C         19.2140   55.1210  -40.5130 C.2    68  VAL68       0.2287
     71  O         18.4630   56.0550  -40.2670 O.2    68  VAL68      -0.2864
     72  CB        21.5810   55.0850  -39.6210 C.3    68  VAL68       0.0276
     73  CG1       21.5610   56.5870  -39.8820 C.3    68  VAL68       0.0022
     74  CG2       22.4060   54.7770  -38.3880 C.3    68  VAL68       0.0022
     75  N         10.8590   54.9790  -33.2230 N.3    79  LYS79      -0.1245
     76  CA        12.1530   54.3090  -33.2920 C.3    79  LYS79       0.1561
     77  C         12.0810   53.2280  -34.3720 C.2    79  LYS79       0.2260
     78  O         10.9920   52.8670  -34.8150 O.2    79  LYS79      -0.2867
     79  CB        12.4650   53.6540  -31.9460 C.3    79  LYS79       0.0271
     80  CG        12.0760   54.4850  -30.7260 C.3    79  LYS79       0.0035
     81  CD        11.9900   53.6090  -29.4830 C.3    79  LYS79       0.0206
     82  CE        13.0180   54.0100  -28.4370 C.3    79  LYS79       0.1093
     83  NZ        14.3960   54.0630  -28.9920 N.3    79  LYS79      -0.1314
     84  N         13.7890   49.2030  -35.1440 N.3    81  VAL81      -0.1231
     85  CA        14.6020   48.1050  -34.6580 C.3    81  VAL81       0.1692
     86  C         14.6700   47.0500  -35.7570 C.2    81  VAL81       0.2593
     87  O         13.6600   46.7750  -36.4200 O.2    81  VAL81      -0.2718
     88  CB        13.9840   47.4680  -33.3940 C.3    81  VAL81       0.0266
     89  CG1       14.8870   46.3650  -32.8660 C.3    81  VAL81       0.0020
     90  CG2       13.7680   48.5110  -32.3180 C.3    81  VAL81       0.0020
     91  N         15.8500   46.4620  -35.9470 N.am   82  GLY82      -0.1942
     92  CA        16.0180   45.3660  -36.8880 C.3    82  GLY82       0.2014
     93  C         15.4220   44.0530  -36.4160 C.2    82  GLY82       0.2638
     94  O         15.7430   43.5560  -35.3370 O.2    82  GLY82      -0.2714
     95  N         14.5610   43.4790  -37.2460 N.am   83  LEU83      -0.1977
     96  CA        13.9000   42.2170  -36.9340 C.3    83  LEU83       0.1596
     97  C         14.6490   41.0680  -37.5610 C.2    83  LEU83       0.2287
     98  O         14.8430   40.0040  -36.9530 O.2    83  LEU83      -0.2864
     99  CB        12.5020   42.2300  -37.5400 C.3    83  LEU83       0.0297
    100  CG        11.2740   42.4520  -36.6740 C.3    83  LEU83       0.0022
    101  CD1       11.5900   43.3850  -35.5400 C.3    83  LEU83       0.0001
    102  CD2       10.1670   42.9970  -37.5340 C.3    83  LEU83       0.0001
    103  N         17.6100   44.2390  -44.9170 N.3   131  LEU131     -0.1245
    104  CA        17.2630   44.4070  -43.5100 C.3   131  LEU131      0.1561
    105  C         15.7880   44.7370  -43.4100 C.2   131  LEU131      0.2260
    106  O         15.3090   45.6240  -44.1170 O.2   131  LEU131     -0.2867
    107  CB        18.0770   45.5500  -42.8800 C.3   131  LEU131      0.0270
    108  CG        17.7040   45.9730  -41.4600 C.3   131  LEU131      0.0019
    109  CD1       18.2330   44.9500  -40.4360 C.3   131  LEU131      0.0001
    110  CD2       18.2160   47.3590  -41.1360 C.3   131  LEU131      0.0001
    111  N         11.2470   47.0580  -37.7570 N.3   134  ALA134     -0.1245
    112  CA         9.9240   47.3850  -37.2520 C.3   134  ALA134      0.1562
    113  C          9.9930   48.8070  -36.7500 C.2   134  ALA134      0.2260
    114  O         10.9740   49.1940  -36.1040 O.2   134  ALA134     -0.2867
    115  CB         9.5440   46.4570  -36.1170 C.3   134  ALA134      0.0290
    116  N          8.6290   51.3930  -34.1470 N.3   136  LEU136     -0.1245
    117  CA         8.0520   51.2440  -32.8170 C.3   136  LEU136      0.1561
    118  C          7.8820   52.5890  -32.1160 C.2   136  LEU136      0.2260
    119  O          8.1730   53.6440  -32.6870 O.2   136  LEU136     -0.2867
    120  CB         8.9090   50.3040  -31.9720 C.3   136  LEU136      0.0270
    121  CG         9.1710   48.9260  -32.5690 C.3   136  LEU136      0.0019
    122  CD1       10.0490   48.0880  -31.6520 C.3   136  LEU136      0.0001
    123  CD2        7.8590   48.2150  -32.8590 C.3   136  LEU136      0.0001
@<TRIPOS>BOND
     1   103   104    1
     2   106   105    2
     3    38    39    2
     4    38    37    1
     5   104   105    1
     6   104   107    1
     7   107   108    1
     8    37    40    1
     9    37    36    1
    10    40    41    1
    11    42    44   ar
    12    42    41   ar
    13   108   110    1
    14   108   109    1
    15    44    46   ar
    16    41    43   ar
    17    47    48    1
    18     7     6    1
    19    70    71    2
    20    70    69    1
    21    62    63    1
    22    48    49    1
    23    48    51    1
    24    46    45   ar
    25    43    45   ar
    26    58    59    2
    27    58    57    1
    28    73    72    1
    29    49    56   am
    30    49    50    2
    31    72    69    1
    32    72    74    1
    33    56    57    1
    34    69    68    1
    35    68    64   am
    36    52    51    1
    37    52    53    1
    38     6     5    1
    39     6     8    1
    40    57    60    1
    41    63    64    1
    42    63    66    1
    43    64    65    2
    44    60    61    1
    45     5     2    1
    46    55    53   ar
    47    53    54   ar
    48    67    66    1
    49   111   112    1
    50    97    98    2
    51    97    96    1
    52    99    96    1
    53    99   100    1
    54   102   100    1
    55     2     1    1
    56     2     3    1
    57   112   113    1
    58   112   115    1
    59    95    96    1
    60    95    93   am
    61    92    93    1
    62    92    91    1
    63     3     4    2
    64   113   114    2
    65   100   101    1
    66    87    86    2
    67    93    94    2
    68    34    33    1
    69    32    31    2
    70    91    86   am
    71    86    85    1
    72    35    33    1
    73    33    30    1
    74    84    85    1
    75    31    30    1
    76    30    29    1
    77    78    77    2
    78    85    88    1
    79    77    76    1
    80   116   117    1
    81    88    89    1
    82    88    90    1
    83    76    75    1
    84    76    79    1
    85    17    18    1
    86    17    11   am
    87    18    19    1
    88     9    10    1
    89    13    14    1
    90    13    10    1
    91   123   121    1
    92    14    15    1
    93   117   118    1
    94   117   120    1
    95   119   118    2
    96   121   120    1
    97   121   122    1
    98    10    11    1
    99    11    12    2
   100    19    20    2
   101    79    80    1
   102    27    26    2
   103    24    23    2
   104    15    16    1
   105    80    81    1
   106    23    22    1
   107    26    28   am
   108    26    25    1
   109    81    82    1
   110    25    22    1
   111    22    21    1
   112    83    82    1
