@<TRIPOS>MOLECULE
tmp/4k4bE00.pdb
 92 92 0 0 0
SMALL
GASTEIGER

@<TRIPOS>ATOM
      1  N         31.4990   38.8660  -25.3950 N.3    41  PRO41      -0.2102
      2  CA        31.0460   39.8590  -24.4240 C.3    41  PRO41       0.1504
      3  C         30.0780   40.8580  -25.0260 C.2    41  PRO41       0.2576
      4  O         30.1330   41.1480  -26.2290 O.2    41  PRO41      -0.2718
      5  CB        32.3430   40.5870  -24.0580 C.3    41  PRO41       0.0282
      6  CG        33.1960   40.4560  -25.2800 C.3    41  PRO41       0.0208
      7  CD        32.9180   39.0600  -25.7550 C.3    41  PRO41       0.0893
      8  N         29.2000   41.3820  -24.1780 N.am   42  VAL42      -0.1966
      9  CA        28.3430   42.4830  -24.5460 C.3    42  VAL42       0.1727
     10  C         28.9630   43.7170  -23.9160 C.2    42  VAL42       0.2616
     11  O         28.6820   44.0460  -22.7610 O.2    42  VAL42      -0.2715
     12  CB        26.9050   42.2800  -24.0150 C.3    42  VAL42       0.0290
     13  CG1       25.9880   43.3920  -24.4940 C.3    42  VAL42       0.0023
     14  CG2       26.3630   40.9370  -24.4660 C.3    42  VAL42       0.0023
     15  N         29.8260   44.3940  -24.6620 N.am   43  ASP43      -0.1957
     16  CA        30.4620   45.5960  -24.1380 C.3    43  ASP43       0.1840
     17  C         30.6170   46.6510  -25.2240 C.2    43  ASP43       0.2622
     18  O         29.9720   46.5630  -26.2610 O.2    43  ASP43      -0.2715
     19  CB        31.8010   45.2710  -23.4540 C.3    43  ASP43       0.1450
     20  CG        32.8040   44.5950  -24.3850 C.2    43  ASP43       0.3671
     21  OD1       33.5770   43.7450  -23.8960 O.co2  43  ASP43      -0.2456
     22  OD2       32.8560   44.9190  -25.5880 O.co2  43  ASP43      -0.2456
     23  N         31.4870   47.6280  -25.0040 N.am   44  SER44      -0.1950
     24  CA        31.5840   48.7460  -25.9330 C.3    44  SER44       0.1924
     25  C         31.9980   48.3320  -27.3500 C.2    44  SER44       0.2314
     26  O         31.6630   49.0080  -28.3230 O.2    44  SER44      -0.2863
     27  CB        32.5290   49.8110  -25.3810 C.3    44  SER44       0.2116
     28  OG        33.8560   49.3650  -25.4650 O.3    44  SER44      -0.2180
     29  N         28.4740   46.8680  -28.7530 N.3    47  LYS47      -0.1231
     30  CA        27.2000   47.5120  -28.4430 C.3    47  LYS47       0.1693
     31  C         26.7490   48.5170  -29.4830 C.2    47  LYS47       0.2592
     32  O         27.5610   49.0100  -30.2800 O.2    47  LYS47      -0.2718
     33  CB        27.2580   48.2060  -27.0820 C.3    47  LYS47       0.0285
     34  CG        26.9710   47.2850  -25.8960 C.3    47  LYS47       0.0035
     35  CD        27.1900   48.0350  -24.5750 C.3    47  LYS47       0.0206
     36  CE        26.9340   47.1530  -23.3570 C.3    47  LYS47       0.1093
     37  NZ        26.9450   47.9650  -22.1080 N.3    47  LYS47      -0.1314
     38  N         25.4420   48.7990  -29.4650 N.am   48  GLN48      -0.1966
     39  CA        24.8580   49.9280  -30.1800 C.3    48  GLN48       0.1718
     40  C         25.1230   51.1640  -29.3300 C.2    48  GLN48       0.2458
     41  O         25.5360   51.0370  -28.1760 O.2    48  GLN48      -0.2730
     42  CB        23.3430   49.7760  -30.2840 C.3    48  GLN48       0.0407
     43  CG        22.8190   48.4570  -30.7460 C.3    48  GLN48       0.0908
     44  CD        21.3200   48.4030  -30.5980 C.2    48  GLN48       0.2608
     45  OE1       20.6970   49.4020  -30.2390 O.2    48  GLN48      -0.2717
     46  NE2       20.7280   47.2410  -30.8660 N.am   48  GLN48      -0.0878
     47  N         24.8730   52.3620  -29.8820 N.am   49  PRO49      -0.2716
     48  CA        25.1670   53.5590  -29.0880 C.3    49  PRO49       0.1536
     49  C         24.4020   53.6430  -27.7590 C.2    49  PRO49       0.2599
     50  O         24.9100   54.2340  -26.8110 O.2    49  PRO49      -0.2715
     51  CB        24.7510   54.6900  -30.0200 C.3    49  PRO49       0.0310
     52  CG        25.0480   54.1420  -31.3920 C.3    49  PRO49       0.0237
     53  CD        24.6260   52.6930  -31.3000 C.3    49  PRO49       0.0939
     54  N         23.2210   53.0450  -27.6750 N.am   50  PHE50      -0.1960
     55  CA        22.4180   53.2020  -26.4660 C.3    50  PHE50       0.1771
     56  C         22.5320   52.0530  -25.4890 C.2    50  PHE50       0.2620
     57  O         21.8210   52.0240  -24.4860 O.2    50  PHE50      -0.2715
     58  CB        20.9640   53.5190  -26.8130 C.3    50  PHE50       0.0574
     59  CG        20.8030   54.8490  -27.4700 C.ar   50  PHE50      -0.0200
     60  CD1       20.9230   56.0160  -26.7300 C.ar   50  PHE50      -0.0042
     61  CD2       20.5780   54.9400  -28.8360 C.ar   50  PHE50      -0.0042
     62  CE1       20.7960   57.2540  -27.3350 C.ar   50  PHE50      -0.0003
     63  CE2       20.4490   56.1680  -29.4490 C.ar   50  PHE50      -0.0003
     64  CZ        20.5620   57.3290  -28.6950 C.ar   50  PHE50      -0.0000
     65  N         23.4380   51.1170  -25.7700 N.am   51  GLY51      -0.1954
     66  CA        23.8460   50.1550  -24.7580 C.3    51  GLY51       0.1869
     67  C         23.4600   48.6990  -24.9560 C.2    51  GLY51       0.2309
     68  O         23.8500   47.8450  -24.1640 O.2    51  GLY51      -0.2863
     69  N         22.1920   43.0540  -22.8260 N.3    94  ARG94      -0.1231
     70  CA        22.7040   44.3110  -22.2880 C.3    94  ARG94       0.1694
     71  C         24.0100   44.1690  -21.5330 C.2    94  ARG94       0.2592
     72  O         24.7070   45.1600  -21.3090 O.2    94  ARG94      -0.2718
     73  CB        21.7080   44.9380  -21.3210 C.3    94  ARG94       0.0321
     74  CG        20.2530   44.8820  -21.7200 C.3    94  ARG94       0.0489
     75  CD        19.4690   45.7580  -20.7500 C.3    94  ARG94       0.2205
     76  NE        20.2780   46.9160  -20.3840 N.pl3  94  ARG94      -0.0865
     77  CZ        20.0720   48.1530  -20.8230 C.cat  94  ARG94       0.5346
     78  NH1       19.0480   48.4230  -21.6240 N.pl3  94  ARG94       0.1354
     79  NH2       20.8840   49.1280  -20.4430 N.pl3  94  ARG94       0.1354
     80  N         24.3340   42.9550  -21.1060 N.am   95  GLU95      -0.1966
     81  CA        25.4780   42.7770  -20.2170 C.3    95  GLU95       0.1733
     82  C         25.9720   41.3420  -20.2320 C.2    95  GLU95       0.2616
     83  O         25.3120   40.4580  -20.7820 O.2    95  GLU95      -0.2715
     84  CB        25.0900   43.1800  -18.7900 C.3    95  GLU95       0.0429
     85  CG        23.9070   42.3830  -18.2350 C.3    95  GLU95       0.1163
     86  CD        23.2990   43.0170  -16.9980 C.2    95  GLU95       0.3649
     87  OE1       24.0570   43.3390  -16.0560 O.co2  95  GLU95      -0.2457
     88  OE2       22.0610   43.2000  -16.9730 O.co2  95  GLU95      -0.2457
     89  N         27.1270   41.1090  -19.6170 N.am   96  GLY96      -0.1955
     90  CA        27.6730   39.7630  -19.5410 C.3    96  GLY96       0.1869
     91  C         28.1730   39.2910  -20.8970 C.2    96  GLY96       0.2309
     92  O         28.7070   40.0700  -21.6970 O.2    96  GLY96      -0.2863
@<TRIPOS>BOND
     1    52    53    1
     2    52    51    1
     3    53    47    1
     4    46    44   am
     5    43    44    1
     6    43    42    1
     7    44    45    2
     8    42    39    1
     9    32    31    2
    10    39    38    1
    11    39    40    1
    12    51    48    1
    13    47    40   am
    14    47    48    1
    15    31    38   am
    16    31    30    1
    17    63    61   ar
    18    63    64   ar
    19    40    41    2
    20    48    49    1
    21    61    59   ar
    22    29    30    1
    23    64    62   ar
    24    30    33    1
    25    26    25    2
    26    49    54   am
    27    49    50    2
    28    54    55    1
    29    59    58    1
    30    59    60   ar
    31    25    24    1
    32    62    60   ar
    33    33    34    1
    34    58    55    1
    35    55    56    1
    36    18    17    2
    37     4     3    2
    38    24    27    1
    39    24    23    1
    40    34    35    1
    41    65    56   am
    42    65    66    1
    43     7     1    1
    44     7     6    1
    45    22    20   ar
    46    56    57    2
    47    28    27    1
    48     1     2    1
    49     6     5    1
    50    17    23   am
    51    17    16    1
    52     3     2    1
    53     3     8   am
    54    67    66    1
    55    67    68    2
    56    15    16    1
    57    15    10   am
    58    35    36    1
    59     9     8    1
    60     9    12    1
    61     9    10    1
    62    13    12    1
    63    14    12    1
    64     2     5    1
    65    20    21   ar
    66    20    19    1
    67    16    19    1
    68    10    11    2
    69    36    37    1
    70    69    70    1
    71    70    71    1
    72    70    73    1
    73    74    73    1
    74    74    75    1
    75    92    91    2
    76    78    77    1
    77    71    72    2
    78    71    80   am
    79    80    81    1
    80    91    90    1
    81    77    79    1
    82    77    76    2
    83    83    82    2
    84    75    76    1
    85    82    81    1
    86    82    89   am
    87    81    84    1
    88    89    90    1
    89    84    85    1
    90    85    86    1
    91    86    88   ar
    92    86    87   ar
