@<TRIPOS>MOLECULE
tmp/4k4bF03.pdb
 80 80 0 0 0
SMALL
GASTEIGER

@<TRIPOS>ATOM
      1  N         39.3060   38.1580  -41.2810 N.3    48  GLN48      -0.1231
      2  CA        39.4570   36.7580  -40.9140 C.3    48  GLN48       0.1683
      3  C         40.9300   36.5060  -40.5800 C.2    48  GLN48       0.2434
      4  O         41.7810   37.3390  -40.8840 O.2    48  GLN48      -0.2733
      5  CB        39.0420   35.8710  -42.0820 C.3    48  GLN48       0.0380
      6  CG        37.6540   36.1330  -42.6120 C.3    48  GLN48       0.0905
      7  CD        37.3490   35.2590  -43.7910 C.2    48  GLN48       0.2608
      8  OE1       37.7650   34.1030  -43.8310 O.2    48  GLN48      -0.2717
      9  NE2       36.6410   35.8070  -44.7750 N.am   48  GLN48      -0.0878
     10  N         41.2330   35.3720  -39.9290 N.am   49  PRO49      -0.2729
     11  CA        42.6150   35.0150  -39.5980 C.3    49  PRO49       0.1401
     12  C         43.6040   35.1990  -40.7550 C.2    49  PRO49       0.2269
     13  O         44.7290   35.6160  -40.4970 O.2    49  PRO49      -0.2865
     14  CB        42.4910   33.5450  -39.2230 C.3    49  PRO49       0.0296
     15  CG        41.1940   33.5080  -38.4960 C.3    49  PRO49       0.0237
     16  CD        40.2810   34.4380  -39.2980 C.3    49  PRO49       0.0939
     17  N         41.3260   38.1460  -45.2630 N.3    52  LEU52      -0.1231
     18  CA        40.1300   38.5260  -46.0060 C.3    52  LEU52       0.1693
     19  C         39.1310   39.2040  -45.0800 C.2    52  LEU52       0.2592
     20  O         39.1530   38.9750  -43.8680 O.2    52  LEU52      -0.2718
     21  CB        39.4900   37.3090  -46.6780 C.3    52  LEU52       0.0284
     22  CG        40.2930   36.6650  -47.8160 C.3    52  LEU52       0.0019
     23  CD1       39.5460   35.4780  -48.3830 C.3    52  LEU52       0.0001
     24  CD2       40.5930   37.6840  -48.9070 C.3    52  LEU52       0.0001
     25  N         38.2580   40.0440  -45.6390 N.am   53  LEU53      -0.1966
     26  CA        37.1900   40.6540  -44.8400 C.3    53  LEU53       0.1728
     27  C         36.2710   39.6010  -44.2120 C.2    53  LEU53       0.2616
     28  O         35.8080   38.6780  -44.8970 O.2    53  LEU53      -0.2715
     29  CB        36.3630   41.6210  -45.6970 C.3    53  LEU53       0.0311
     30  CG        35.1850   42.3480  -45.0420 C.3    53  LEU53       0.0022
     31  CD1       35.6820   43.2560  -43.9260 C.3    53  LEU53       0.0001
     32  CD2       34.4590   43.1740  -46.1030 C.3    53  LEU53       0.0001
     33  N         36.0170   39.7330  -42.9100 N.am   54  HIS54      -0.1959
     34  CA        35.1090   38.8400  -42.1870 C.3    54  HIS54       0.1787
     35  C         33.6800   39.1380  -42.6380 C.2    54  HIS54       0.2620
     36  O         33.2670   40.3040  -42.6490 O.2    54  HIS54      -0.2715
     37  CB        35.2320   39.1040  -40.6830 C.3    54  HIS54       0.0785
     38  CG        34.6260   38.0430  -39.8140 C.ar   54  HIS54       0.0821
     39  ND1       33.2880   37.7150  -39.8580 N.ar   54  HIS54      -0.2267
     40  CD2       35.1690   37.2760  -38.8380 C.ar   54  HIS54       0.1154
     41  CE1       33.0380   36.7770  -38.9630 C.ar   54  HIS54       0.1986
     42  NE2       34.1600   36.4950  -38.3250 N.ar   54  HIS54      -0.2212
     43  N         32.9260   38.1040  -43.0170 N.am   55  GLY55      -0.1954
     44  CA        31.5700   38.2930  -43.5200 C.3    55  GLY55       0.1869
     45  C         30.6690   38.9660  -42.4980 C.2    55  GLY55       0.2309
     46  O         29.7470   39.7140  -42.8440 O.2    55  GLY55      -0.2863
     47  N         27.2000   36.7950  -49.5280 N.3    89  HIS89      -0.1226
     48  CA        28.5990   37.1460  -49.7440 C.3    89  HIS89       0.1752
     49  C         29.0590   36.6450  -51.1130 C.2    89  HIS89       0.2596
     50  O         29.3080   35.4490  -51.2980 O.2    89  HIS89      -0.2718
     51  CB        29.4740   36.5470  -48.6420 C.3    89  HIS89       0.0759
     52  CG        29.0100   36.8640  -47.2510 C.ar   89  HIS89       0.0818
     53  ND1       29.0460   38.1410  -46.7260 N.ar   89  HIS89      -0.2268
     54  CD2       28.5250   36.0660  -46.2720 C.ar   89  HIS89       0.1154
     55  CE1       28.5930   38.1130  -45.4850 C.ar   89  HIS89       0.1986
     56  NE2       28.2770   36.8690  -45.1790 N.ar   89  HIS89      -0.2212
     57  N         29.1750   37.5610  -52.0730 N.am   90  VAL90      -0.1966
     58  CA        29.4210   37.1660  -53.4580 C.3    90  VAL90       0.1727
     59  C         30.8440   37.4430  -53.9290 C.2    90  VAL90       0.2616
     60  O         31.2500   36.9850  -54.9970 O.2    90  VAL90      -0.2715
     61  CB        28.4070   37.8240  -54.4260 C.3    90  VAL90       0.0290
     62  CG1       26.9800   37.5090  -53.9850 C.3    90  VAL90       0.0023
     63  CG2       28.6260   39.3430  -54.4970 C.3    90  VAL90       0.0023
     64  N         31.5950   38.1980  -53.1370 N.am   91  ARG91      -0.1963
     65  CA        32.9890   38.4750  -53.4460 C.3    91  ARG91       0.1729
     66  C         33.7380   38.8700  -52.1780 C.2    91  ARG91       0.2616
     67  O         33.2180   39.6200  -51.3470 O.2    91  ARG91      -0.2715
     68  CB        33.0990   39.5860  -54.4970 C.3    91  ARG91       0.0348
     69  CG        34.5370   39.9940  -54.7900 C.3    91  ARG91       0.0492
     70  CD        34.6240   41.1440  -55.7940 C.3    91  ARG91       0.2205
     71  NE        34.6500   40.6570  -57.1680 N.pl3  91  ARG91      -0.0865
     72  CZ        35.7350   40.1770  -57.7710 C.cat  91  ARG91       0.5346
     73  NH1       35.6600   39.7610  -59.0250 N.pl3  91  ARG91       0.1354
     74  NH2       36.8930   40.1060  -57.1230 N.pl3  91  ARG91       0.1354
     75  N         34.9570   38.3670  -52.0260 N.am   92  SER92      -0.1950
     76  CA        35.7750   38.7240  -50.8710 C.3    92  SER92       0.1924
     77  C         36.4540   40.0830  -51.0640 C.2    92  SER92       0.2314
     78  O         36.5800   40.5700  -52.1890 O.2    92  SER92      -0.2863
     79  CB        36.8320   37.6450  -50.6120 C.3    92  SER92       0.2116
     80  OG        37.7760   37.5890  -51.6750 O.3    92  SER92      -0.2180
@<TRIPOS>BOND
     1    73    72    1
     2    72    71    2
     3    72    74    1
     4    71    70    1
     5    70    69    1
     6    60    59    2
     7    69    68    1
     8    68    65    1
     9    63    61    1
    10    61    62    1
    11    61    58    1
    12    59    58    1
    13    59    64   am
    14    58    57    1
    15    65    64    1
    16    65    66    1
    17    78    77    2
    18    66    75   am
    19    66    67    2
    20    57    49   am
    21    75    76    1
    22    80    79    1
    23    50    49    2
    24    49    48    1
    25    77    76    1
    26    76    79    1
    27    48    47    1
    28    48    51    1
    29    24    22    1
    30    51    52    1
    31    23    22    1
    32    22    21    1
    33    52    53   ar
    34    52    54   ar
    35    53    55   ar
    36    21    18    1
    37    54    56   ar
    38    32    30    1
    39    18    17    1
    40    18    19    1
    41    29    30    1
    42    29    26    1
    43    25    19   am
    44    25    26    1
    45    55    56   ar
    46    19    20    2
    47    30    31    1
    48    28    27    2
    49    26    27    1
    50     9     7   am
    51    27    33   am
    52     8     7    2
    53     7     6    1
    54    44    43    1
    55    44    45    1
    56    43    35   am
    57    33    34    1
    58    46    45    2
    59    36    35    2
    60    35    34    1
    61     6     5    1
    62    34    37    1
    63     5     2    1
    64     1     2    1
    65     2     3    1
    66     4     3    2
    67    12    13    2
    68    12    11    1
    69    37    38    1
    70     3    10   am
    71    10    11    1
    72    10    16    1
    73    39    38   ar
    74    39    41   ar
    75    38    40   ar
    76    11    14    1
    77    16    15    1
    78    14    15    1
    79    41    42   ar
    80    40    42   ar
