@<TRIPOS>MOLECULE
tmp/4k4cD02.pdb
 119 121 0 0 0
SMALL
GASTEIGER

@<TRIPOS>ATOM
      1  N         22.4720   -3.7700   25.2970 N.3    48  GLN48      -0.1231
      2  CA        22.7570   -3.5820   23.8700 C.3    48  GLN48       0.1683
      3  C         24.1120   -4.2650   23.5840 C.2    48  GLN48       0.2434
      4  O         24.7850   -4.6900   24.5360 O.2    48  GLN48      -0.2733
      5  CB        22.6750   -2.0940   23.4700 C.3    48  GLN48       0.0380
      6  CG        23.3270   -1.0930   24.4130 C.3    48  GLN48       0.0905
      7  CD        24.8070   -0.9170   24.1410 C.2    48  GLN48       0.2608
      8  OE1       25.6010   -1.8230   24.3990 O.2    48  GLN48      -0.2717
      9  NE2       25.1890    0.2510   23.6030 N.am   48  GLN48      -0.0878
     10  N         24.4930   -4.4350   22.2980 N.am   49  PRO49      -0.2718
     11  CA        25.6480   -5.3040   22.0000 C.3    49  PRO49       0.1535
     12  C         26.9900   -4.9260   22.6330 C.2    49  PRO49       0.2598
     13  O         27.9210   -5.7250   22.5500 O.2    49  PRO49      -0.2715
     14  CB        25.7750   -5.2010   20.4740 C.3    49  PRO49       0.0310
     15  CG        24.3630   -4.9700   20.0110 C.3    49  PRO49       0.0237
     16  CD        23.7740   -4.0550   21.0660 C.3    49  PRO49       0.0939
     17  N         27.1010   -3.7460   23.2320 N.am   50  PHE50      -0.1974
     18  CA        28.3920   -3.2850   23.7270 C.3    50  PHE50       0.1639
     19  C         28.4090   -3.1580   25.2510 C.2    50  PHE50       0.2290
     20  O         29.2380   -2.4360   25.8120 O.2    50  PHE50      -0.2864
     21  CB        28.7780   -1.9630   23.0490 C.3    50  PHE50       0.0560
     22  CG        28.6100   -1.9850   21.5530 C.ar   50  PHE50      -0.0200
     23  CD1       29.6060   -2.5100   20.7320 C.ar   50  PHE50      -0.0042
     24  CD2       27.4470   -1.4980   20.9680 C.ar   50  PHE50      -0.0042
     25  CE1       29.4480   -2.5440   19.3470 C.ar   50  PHE50      -0.0003
     26  CE2       27.2790   -1.5260   19.5860 C.ar   50  PHE50      -0.0003
     27  CZ        28.2800   -2.0540   18.7740 C.ar   50  PHE50      -0.0000
     28  N         26.0310   -2.0250   27.4730 N.3    52  LEU52      -0.1231
     29  CA        25.2420   -1.0040   28.1640 C.3    52  LEU52       0.1693
     30  C         23.7680   -1.3820   28.1900 C.2    52  LEU52       0.2592
     31  O         23.3210   -2.2370   27.4170 O.2    52  LEU52      -0.2718
     32  CB        25.3810    0.3540   27.4730 C.3    52  LEU52       0.0284
     33  CG        26.7680    0.9200   27.1900 C.3    52  LEU52       0.0019
     34  CD1       26.6640    2.3710   26.7200 C.3    52  LEU52       0.0001
     35  CD2       27.6290    0.8080   28.4340 C.3    52  LEU52       0.0001
     36  N         23.0200   -0.7430   29.0870 N.am   53  LEU53      -0.1966
     37  CA        21.5640   -0.8070   29.0680 C.3    53  LEU53       0.1728
     38  C         21.0800   -0.2510   27.7400 C.2    53  LEU53       0.2616
     39  O         21.4410    0.8740   27.3590 O.2    53  LEU53      -0.2715
     40  CB        20.9750    0.0230   30.2160 C.3    53  LEU53       0.0311
     41  CG        19.4590    0.2670   30.2200 C.3    53  LEU53       0.0022
     42  CD1       18.6870   -1.0200   30.4360 C.3    53  LEU53       0.0001
     43  CD2       19.0720    1.3120   31.2740 C.3    53  LEU53       0.0001
     44  N         20.2820   -1.0550   27.0400 N.am   54  HIS54      -0.1959
     45  CA        19.6450   -0.6890   25.7730 C.3    54  HIS54       0.1787
     46  C         18.6990    0.4800   26.0260 C.2    54  HIS54       0.2620
     47  O         17.9020    0.4490   26.9620 O.2    54  HIS54      -0.2715
     48  CB        18.8500   -1.9010   25.2710 C.3    54  HIS54       0.0785
     49  CG        18.4730   -1.8600   23.8200 C.ar   54  HIS54       0.0821
     50  ND1       17.7300   -0.8400   23.2690 N.ar   54  HIS54      -0.2267
     51  CD2       18.6790   -2.7550   22.8210 C.ar   54  HIS54       0.1154
     52  CE1       17.5200   -1.0900   21.9870 C.ar   54  HIS54       0.1986
     53  NE2       18.0830   -2.2470   21.6890 N.ar   54  HIS54      -0.2212
     54  N         18.7730    1.5160   25.1990 N.am   55  GLY55      -0.1954
     55  CA        17.8910    2.6580   25.3850 C.3    55  GLY55       0.1869
     56  C         16.4280    2.2810   25.1910 C.2    55  GLY55       0.2309
     57  O         15.5360    2.9030   25.7630 O.2    55  GLY55      -0.2863
     58  N         18.3750    9.9620   26.8010 N.3    89  HIS89      -0.1226
     59  CA        19.3380    9.1260   27.5220 C.3    89  HIS89       0.1752
     60  C         20.5220    9.9630   27.9970 C.2    89  HIS89       0.2596
     61  O         21.4030   10.3150   27.2080 O.2    89  HIS89      -0.2718
     62  CB        19.8260    7.9900   26.6330 C.3    89  HIS89       0.0759
     63  CG        18.7190    7.1900   26.0340 C.ar   89  HIS89       0.0818
     64  ND1       17.7510    6.5780   26.7980 N.ar   89  HIS89      -0.2268
     65  CD2       18.4210    6.9070   24.7450 C.ar   89  HIS89       0.1154
     66  CE1       16.9070    5.9410   26.0060 C.ar   89  HIS89       0.1986
     67  NE2       17.2850    6.1350   24.7550 N.ar   89  HIS89      -0.2212
     68  N         20.5450   10.2540   29.2960 N.am   90  HIS90      -0.1961
     69  CA        21.5440   11.1510   29.8650 C.3    90  HIS90       0.1787
     70  C         22.8700   10.4610   30.1840 C.2    90  HIS90       0.2620
     71  O         23.9400   11.0320   29.9680 O.2    90  HIS90      -0.2715
     72  CB        21.0180   11.7680   31.1700 C.3    90  HIS90       0.0785
     73  CG        19.6810   12.4310   31.0480 C.ar   90  HIS90       0.0821
     74  ND1       19.4490   13.4950   30.2030 N.ar   90  HIS90      -0.2267
     75  CD2       18.5160   12.2190   31.7120 C.ar   90  HIS90       0.1154
     76  CE1       18.1960   13.8970   30.3340 C.ar   90  HIS90       0.1986
     77  NE2       17.6050   13.1320   31.2350 N.ar   90  HIS90      -0.2212
     78  N         22.7740    9.2480   30.7320 N.am   91  ARG91      -0.1964
     79  CA        23.8950    8.5250   31.3190 C.3    91  ARG91       0.1714
     80  C         23.7380    7.0530   30.9740 C.2    91  ARG91       0.2458
     81  O         22.6200    6.5360   30.9680 O.2    91  ARG91      -0.2730
     82  CB        23.8420    8.6130   32.8460 C.3    91  ARG91       0.0347
     83  CG        23.9870    9.9790   33.4500 C.3    91  ARG91       0.0492
     84  CD        24.1150    9.8170   34.9670 C.3    91  ARG91       0.2205
     85  NE        25.0900    8.7710   35.2770 N.pl3  91  ARG91      -0.0865
     86  CZ        26.3680    9.0080   35.5630 C.cat  91  ARG91       0.5346
     87  NH1       27.1940    8.0030   35.8160 N.pl3  91  ARG91       0.1354
     88  NH2       26.8220   10.2540   35.5990 N.pl3  91  ARG91       0.1354
     89  N         24.8540    6.3620   30.7110 N.am   92  PRO92      -0.2716
     90  CA        24.7290    4.9230   30.4670 C.3    92  PRO92       0.1536
     91  C         24.6880    4.1530   31.7810 C.2    92  PRO92       0.2598
     92  O         25.0870    4.6810   32.8230 O.2    92  PRO92      -0.2715
     93  CB        26.0120    4.5910   29.7000 C.3    92  PRO92       0.0310
     94  CG        27.0240    5.5760   30.2240 C.3    92  PRO92       0.0237
     95  CD        26.2350    6.8480   30.5220 C.3    92  PRO92       0.0939
     96  N         24.1660    2.9320   31.7360 N.am   93  VAL93      -0.1964
     97  CA        24.1950    2.0210   32.8800 C.3    93  VAL93       0.1727
     98  C         24.6840    0.6850   32.3300 C.2    93  VAL93       0.2616
     99  O         24.4280    0.3750   31.1730 O.2    93  VAL93      -0.2715
    100  CB        22.8040    1.8410   33.5190 C.3    93  VAL93       0.0290
    101  CG1       22.9310    1.1990   34.9000 C.3    93  VAL93       0.0023
    102  CG2       22.0880    3.1830   33.6320 C.3    93  VAL93       0.0023
    103  N         25.4000   -0.1010   33.1250 N.am   94  SER94      -0.1950
    104  CA        25.9390   -1.3570   32.6020 C.3    94  SER94       0.1924
    105  C         25.5990   -2.5640   33.4700 C.2    94  SER94       0.2314
    106  O         25.6540   -3.7070   33.0200 O.2    94  SER94      -0.2863
    107  CB        27.4550   -1.2480   32.4290 C.3    94  SER94       0.2116
    108  OG        28.0800   -0.9390   33.6630 O.3    94  SER94      -0.2180
    109  N         21.3330    8.4330   40.4390 N.3   124  ARG124     -0.1245
    110  CA        21.6380    9.3740   39.3740 C.3   124  ARG124      0.1563
    111  C         20.6170    9.1940   38.2480 C.2   124  ARG124      0.2260
    112  O         20.2540    8.0680   37.9010 O.2   124  ARG124     -0.2867
    113  CB        23.0750    9.1720   38.8740 C.3   124  ARG124      0.0307
    114  CG        24.1510    9.5370   39.9140 C.3   124  ARG124      0.0489
    115  CD        25.5310    9.0920   39.4680 C.3   124  ARG124      0.2205
    116  NE        25.5220    7.6760   39.1000 N.pl3 124  ARG124     -0.0865
    117  CZ        26.6080    6.9510   38.8570 C.cat 124  ARG124      0.5346
    118  NH1       26.4890    5.6720   38.5290 N.pl3 124  ARG124      0.1354
    119  NH2       27.8100    7.4980   38.9450 N.pl3 124  ARG124      0.1354
@<TRIPOS>BOND
     1    27    25   ar
     2    27    26   ar
     3    25    23   ar
     4    26    24   ar
     5    15    14    1
     6    15    16    1
     7    14    11    1
     8    23    22   ar
     9    24    22   ar
    10    16    10    1
    11    22    21    1
    12    53    52   ar
    13    53    51   ar
    14    52    50   ar
    15    11    10    1
    16    11    12    1
    17    10     3   am
    18    13    12    2
    19    12    17   am
    20    51    49   ar
    21    21    18    1
    22    17    18    1
    23    50    49   ar
    24     5     2    1
    25     5     6    1
    26     3     2    1
    27     3     4    2
    28     9     7   am
    29    18    19    1
    30    49    48    1
    31     2     1    1
    32     7     8    2
    33     7     6    1
    34    65    67   ar
    35    65    63   ar
    36    67    66   ar
    37    56    55    1
    38    56    57    2
    39    54    55    1
    40    54    46   am
    41    19    20    2
    42    48    45    1
    43    45    46    1
    44    45    44    1
    45    66    64   ar
    46    46    47    2
    47    63    62    1
    48    63    64   ar
    49    62    59    1
    50    34    33    1
    51    58    59    1
    52    44    38   am
    53    33    32    1
    54    33    35    1
    55    61    60    2
    56    39    38    2
    57    31    30    2
    58    32    29    1
    59    28    29    1
    60    59    60    1
    61    38    37    1
    62    60    68   am
    63    29    30    1
    64    30    36   am
    65    37    36    1
    66    37    40    1
    67    68    69    1
    68    93    94    1
    69    93    90    1
    70    69    70    1
    71    69    72    1
    72    71    70    2
    73    70    78   am
    74    74    76   ar
    75    74    73   ar
    76    40    41    1
    77    41    42    1
    78    41    43    1
    79    94    95    1
    80    76    77   ar
    81    90    89    1
    82    90    91    1
    83    95    89    1
    84    89    80   am
    85    78    79    1
    86    81    80    2
    87    80    79    1
    88    73    72    1
    89    73    75   ar
    90    99    98    2
    91    77    75   ar
    92    79    82    1
    93    96    91   am
    94    96    97    1
    95    91    92    2
    96    98    97    1
    97    98   103   am
    98   107   104    1
    99   107   108    1
   100   104   103    1
   101   104   105    1
   102    82    83    1
   103    97   100    1
   104   106   105    2
   105    83    84    1
   106   100   102    1
   107   100   101    1
   108    84    85    1
   109    85    86    2
   110    86    88    1
   111    86    87    1
   112   112   111    2
   113   111   110    1
   114   118   117    1
   115   117   119    1
   116   117   116    2
   117   113   110    1
   118   113   114    1
   119   116   115    1
   120   110   109    1
   121   115   114    1
