@<TRIPOS>MOLECULE
tmp/4k4cD00.pdb
 86 80 0 0 0
SMALL
GASTEIGER

@<TRIPOS>ATOM
      1  N          6.5220   -6.9810   29.8180 N.3    21  VAL21      -0.1245
      2  CA         6.8760   -6.5090   31.1560 C.3    21  VAL21       0.1561
      3  C          7.6150   -7.5720   31.9570 C.2    21  VAL21       0.2260
      4  O          8.6980   -7.3140   32.4890 O.2    21  VAL21      -0.2867
      5  CB         5.6570   -6.0340   31.9280 C.3    21  VAL21       0.0252
      6  CG1        6.1010   -5.4450   33.2560 C.3    21  VAL21       0.0019
      7  CG2        4.9170   -4.9770   31.1150 C.3    21  VAL21       0.0019
      8  N          7.1480    3.3960   28.9330 N.3    63  GLU63      -0.1231
      9  CA         5.8220    3.1890   28.3530 C.3    63  GLU63       0.1699
     10  C          4.9870    2.2420   29.2130 C.2    63  GLU63       0.2592
     11  O          3.7620    2.3890   29.2990 O.2    63  GLU63      -0.2718
     12  CB         5.9000    2.6770   26.9030 C.3    63  GLU63       0.0402
     13  CG         4.5120    2.6730   26.2260 C.3    63  GLU63       0.1161
     14  CD         4.5050    3.2570   24.8180 C.2    63  GLU63       0.3649
     15  OE1        5.5590    3.7510   24.3440 O.co2  63  GLU63      -0.2457
     16  OE2        3.4230    3.2220   24.1740 O.co2  63  GLU63      -0.2457
     17  N          5.6520    1.2670   29.8270 N.am   64  THR64      -0.1953
     18  CA         4.9870    0.3820   30.7940 C.3    64  THR64       0.1897
     19  C          4.3830    1.1960   31.9390 C.2    64  THR64       0.2313
     20  O          3.1870    1.0930   32.2250 O.2    64  THR64      -0.2863
     21  CB         5.9540   -0.6440   31.3740 C.3    64  THR64       0.1794
     22  OG1        6.3780   -1.5280   30.3290 O.3    64  THR64      -0.2208
     23  CG2        5.2680   -1.4870   32.4650 C.3    64  THR64       0.0378
     24  N          1.6010    3.9180   30.8120 N.3    67  SER67      -0.1202
     25  CA         0.3610    3.3100   30.3290 C.3    67  SER67       0.2020
     26  C         -0.4180    2.6330   31.4570 C.2    67  SER67       0.2618
     27  O         -1.6550    2.6890   31.4920 O.2    67  SER67      -0.2717
     28  CB         0.6390    2.3020   29.2100 C.3    67  SER67       0.2103
     29  OG         1.0390    2.9420   28.0060 O.3    67  SER67      -0.2182
     30  N          0.3000    1.9940   32.3760 N.am   68  MET68      -0.1979
     31  CA        -0.3570    1.3910   33.5450 C.3    68  MET68       0.1605
     32  C         -0.9130    2.4570   34.4910 C.2    68  MET68       0.2287
     33  O         -1.9680    2.2770   35.1060 O.2    68  MET68      -0.2864
     34  CB         0.5860    0.4350   34.2730 C.3    68  MET68       0.0413
     35  CG         0.8170   -0.8510   33.4900 C.3    68  MET68       0.0598
     36  SD        -0.7430   -1.6920   33.0870 S.3    68  MET68      -0.1393
     37  CE        -1.4180   -1.8790   34.7520 C.3    68  MET68       0.0692
     38  N         -3.9670    3.3740   32.6270 N.3    71  PHE71      -0.1241
     39  CA        -4.9720    2.3430   32.8390 C.3    71  PHE71       0.1605
     40  C         -5.6900    2.6020   34.1600 C.2    71  PHE71       0.2264
     41  O         -6.9170    2.4750   34.2520 O.2    71  PHE71      -0.2867
     42  CB        -4.3360    0.9530   32.8390 C.3    71  PHE71       0.0534
     43  CG        -5.2850   -0.1470   33.2390 C.ar   71  PHE71      -0.0203
     44  CD1       -6.2900   -0.5610   32.3720 C.ar   71  PHE71      -0.0042
     45  CD2       -5.1740   -0.7610   34.4830 C.ar   71  PHE71      -0.0042
     46  CE1       -7.1710   -1.5720   32.7340 C.ar   71  PHE71      -0.0003
     47  CE2       -6.0510   -1.7760   34.8550 C.ar   71  PHE71      -0.0003
     48  CZ        -7.0520   -2.1770   33.9760 C.ar   71  PHE71      -0.0000
     49  N         -6.7560    1.9770   27.8230 N.3    80  VAL80      -0.1231
     50  CA        -5.7130    2.9910   27.7230 C.3    80  VAL80       0.1692
     51  C         -4.7870    2.6260   26.5610 C.2    80  VAL80       0.2592
     52  O         -4.5260    1.4430   26.3060 O.2    80  VAL80      -0.2718
     53  CB        -4.8960    3.0900   29.0330 C.3    80  VAL80       0.0266
     54  CG1       -4.1230    1.7980   29.2910 C.3    80  VAL80       0.0020
     55  CG2       -3.9530    4.2830   28.9930 C.3    80  VAL80       0.0020
     56  N         -4.3140    3.6330   25.8310 N.am   81  VAL81      -0.1966
     57  CA        -3.2600    3.4050   24.8500 C.3    81  VAL81       0.1727
     58  C         -2.2070    4.5000   24.9660 C.2    81  VAL81       0.2617
     59  O         -2.5350    5.6440   25.2860 O.2    81  VAL81      -0.2715
     60  CB        -3.8080    3.3140   23.4010 C.3    81  VAL81       0.0290
     61  CG1       -4.7380    2.1190   23.2540 C.3    81  VAL81       0.0023
     62  CG2       -4.5280    4.5850   23.0080 C.3    81  VAL81       0.0023
     63  N         -0.9390    4.1410   24.7770 N.am   82  GLY82      -0.1940
     64  CA         0.1180    5.1380   24.7230 C.3    82  GLY82       0.2014
     65  C          0.1110    5.7110   23.3170 C.2    82  GLY82       0.2639
     66  O         -0.0140    4.9580   22.3540 O.2    82  GLY82      -0.2714
     67  N          0.2240    7.0320   23.1830 N.am   83  THR83      -0.1950
     68  CA         0.1430    7.6530   21.8600 C.3    83  THR83       0.1897
     69  C          1.4430    8.3240   21.4440 C.2    83  THR83       0.2313
     70  O          1.8270    8.2950   20.2650 O.2    83  THR83      -0.2863
     71  CB        -0.9770    8.6980   21.8050 C.3    83  THR83       0.1794
     72  OG1       -0.7490    9.6860   22.8160 O.3    83  THR83      -0.2208
     73  CG2       -2.3270    8.0360   22.0330 C.3    83  THR83       0.0378
     74  N         -3.9900    7.9660   25.8040 N.3   134  ALA134     -0.1245
     75  CA        -5.3700    8.2460   25.4380 C.3   134  ALA134      0.1562
     76  C         -6.2940    7.2640   26.1490 C.2   134  ALA134      0.2260
     77  O         -6.0510    6.0580   26.1410 O.2   134  ALA134     -0.2867
     78  CB        -5.5510    8.1360   23.9420 C.3   134  ALA134      0.0290
     79  N         -9.7880    5.4980   25.9320 N.3   136  LEU136     -0.1245
     80  CA       -10.7880    5.2110   24.9110 C.3   136  LEU136      0.1561
     81  C        -12.0260    4.5880   25.5410 C.2   136  LEU136      0.2260
     82  O        -11.9190    3.8230   26.5010 O.2   136  LEU136     -0.2867
     83  CB       -10.2230    4.2410   23.8730 C.3   136  LEU136      0.0270
     84  CG        -8.8250    4.5180   23.3270 C.3   136  LEU136      0.0019
     85  CD1       -8.4440    3.4410   22.3130 C.3   136  LEU136      0.0001
     86  CD2       -8.7560    5.9010   22.7060 C.3   136  LEU136      0.0001
@<TRIPOS>BOND
     1    70    69    2
     2    69    68    1
     3    71    68    1
     4    71    73    1
     5    71    72    1
     6    68    67    1
     7    85    84    1
     8    66    65    2
     9    86    84    1
    10    62    60    1
    11    67    65   am
    12    61    60    1
    13    65    64    1
    14    84    83    1
    15    60    57    1
    16    83    80    1
    17    78    75    1
    18    16    14   ar
    19    15    14   ar
    20    64    63    1
    21    63    58   am
    22    14    13    1
    23    57    58    1
    24    57    56    1
    25    80    81    1
    26    80    79    1
    27    58    59    2
    28    75    74    1
    29    75    76    1
    30    81    82    2
    31    56    51   am
    32    77    76    2
    33    13    12    1
    34    52    51    2
    35    51    50    1
    36    12     9    1
    37    50    49    1
    38    50    53    1
    39    29    28    1
    40     9     8    1
    41     9    10    1
    42    55    53    1
    43    53    54    1
    44    28    25    1
    45    10    11    2
    46    10    17   am
    47     1     2    1
    48    17    18    1
    49    25    24    1
    50    25    26    1
    51    22    21    1
    52    18    21    1
    53    18    19    1
    54     7     5    1
    55     2     5    1
    56     2     3    1
    57    21    23    1
    58    26    27    2
    59    26    30   am
    60     5     6    1
    61    19    20    2
    62     3     4    2
    63    44    46   ar
    64    44    43   ar
    65    30    31    1
    66    38    39    1
    67    46    48   ar
    68    39    42    1
    69    39    40    1
    70    42    43    1
    71    36    35    1
    72    36    37    1
    73    43    45   ar
    74    35    34    1
    75    31    34    1
    76    31    32    1
    77    48    47   ar
    78    40    41    2
    79    45    47   ar
    80    32    33    2
