@<TRIPOS>MOLECULE
tmp/4k4eB00.pdb
 154 154 0 0 0
SMALL
GASTEIGER

@<TRIPOS>ATOM
      1  N         21.1340   38.2220   -2.7130 N.3    81  HIS81      -0.1241
      2  CA        22.3740   38.8950   -2.3420 C.3    81  HIS81       0.1621
      3  C         23.1640   39.2260   -3.6060 C.2    81  HIS81       0.2264
      4  O         23.3690   38.3690   -4.4560 O.2    81  HIS81      -0.2867
      5  CB        23.2370   38.0210   -1.4670 C.3    81  HIS81       0.0745
      6  CG        24.6090   38.5820   -1.2400 C.ar   81  HIS81       0.0817
      7  ND1       24.9220   39.3830   -0.1630 N.ar   81  HIS81      -0.2268
      8  CD2       25.7280   38.5220   -1.9990 C.ar   81  HIS81       0.1154
      9  CE1       26.1740   39.7920   -0.2720 C.ar   81  HIS81       0.1986
     10  NE2       26.6840   39.2860   -1.3780 N.ar   81  HIS81      -0.2212
     11  N         26.6890   41.5340   -5.1860 N.3    83  SER83      -0.1203
     12  CA        27.9220   42.2540   -4.9280 C.3    83  SER83       0.2005
     13  C         28.9650   41.7150   -5.8900 C.2    83  SER83       0.2461
     14  O         28.7590   40.6760   -6.5070 O.2    83  SER83      -0.2732
     15  CB        28.3920   42.0290   -3.4810 C.3    83  SER83       0.2103
     16  OG        29.0660   40.7910   -3.3430 O.3    83  SER83      -0.2182
     17  N         30.0970   42.4210   -6.0340 N.am   84  PRO84      -0.2717
     18  CA        31.1890   42.0180   -6.9240 C.3    84  PRO84       0.1535
     19  C         31.9300   40.7710   -6.4700 C.2    84  PRO84       0.2598
     20  O         32.8780   40.3590   -7.1070 O.2    84  PRO84      -0.2715
     21  CB        32.1050   43.2120   -6.9070 C.3    84  PRO84       0.0310
     22  CG        31.1740   44.3540   -6.6790 C.3    84  PRO84       0.0237
     23  CD        30.2680   43.8200   -5.6120 C.3    84  PRO84       0.0939
     24  N         31.4910   40.1510   -5.3850 N.am   85  PHE85      -0.1974
     25  CA        32.2320   38.9960   -4.8900 C.3    85  PHE85       0.1639
     26  C         31.5630   37.6340   -5.0340 C.2    85  PHE85       0.2290
     27  O         31.9640   36.6750   -4.3910 O.2    85  PHE85      -0.2864
     28  CB        32.5930   39.2660   -3.4530 C.3    85  PHE85       0.0560
     29  CG        33.0720   40.6730   -3.2190 C.ar   85  PHE85      -0.0200
     30  CD1       34.3520   41.0560   -3.5870 C.ar   85  PHE85      -0.0042
     31  CD2       32.2160   41.6350   -2.6880 C.ar   85  PHE85      -0.0042
     32  CE1       34.7770   42.3920   -3.4310 C.ar   85  PHE85      -0.0003
     33  CE2       32.6270   42.9600   -2.5310 C.ar   85  PHE85      -0.0003
     34  CZ        33.9100   43.3380   -2.9050 C.ar   85  PHE85      -0.0000
     35  N         33.7470   34.7520   -5.4460 N.3    88  ALA88      -0.1231
     36  CA        34.4970   34.4340   -4.2470 C.3    88  ALA88       0.1694
     37  C         33.5790   33.6070   -3.3480 C.2    88  ALA88       0.2591
     38  O         33.9650   32.5500   -2.8130 O.2    88  ALA88      -0.2718
     39  CB        34.9030   35.7110   -3.5480 C.3    88  ALA88       0.0304
     40  N         32.3530   34.0900   -3.2020 N.am   89  ILE89      -0.1980
     41  CA        31.3590   33.4450   -2.3660 C.3    89  ILE89       0.1595
     42  C         31.0100   32.0090   -2.7550 C.2    89  ILE89       0.2287
     43  O         31.0190   31.1340   -1.9050 O.2    89  ILE89      -0.2864
     44  CB        30.0730   34.2880   -2.3320 C.3    89  ILE89       0.0276
     45  CG1       30.3800   35.6500   -1.7390 C.3    89  ILE89       0.0022
     46  CG2       28.9920   33.5750   -1.5270 C.3    89  ILE89       0.0022
     47  CD1       29.2680   36.6590   -1.9210 C.3    89  ILE89       0.0001
     48  N         34.2350   29.8270   -1.7270 N.3    92  LYS92      -0.1231
     49  CA        34.7110   29.7960   -0.3480 C.3    92  LYS92       0.1693
     50  C         33.6390   30.1110    0.6860 C.2    92  LYS92       0.2593
     51  O         33.9100   30.0700    1.8680 O.2    92  LYS92      -0.2718
     52  CB        35.8610   30.8000   -0.1610 C.3    92  LYS92       0.0285
     53  CG        37.0140   30.6670   -1.1540 C.3    92  LYS92       0.0035
     54  CD        37.7690   32.0170   -1.2830 C.3    92  LYS92       0.0206
     55  CE        39.0070   31.8990   -2.2060 C.3    92  LYS92       0.1093
     56  NZ        39.5500   33.2400   -2.6120 N.3    92  LYS92      -0.1314
     57  N         32.4400   30.4610    0.2350 N.am   93  GLY93      -0.1942
     58  CA        31.3560   30.7820    1.1500 C.3    93  GLY93       0.2014
     59  C         31.3470   32.2380    1.5890 C.2    93  GLY93       0.2639
     60  O         32.2230   32.9930    1.2470 O.2    93  GLY93      -0.2714
     61  N         30.3290   32.6340    2.3410 N.am   94  PHE94      -0.1959
     62  CA        30.2530   33.9990    2.8350 C.3    94  PHE94       0.1771
     63  C         31.3560   34.1560    3.8740 C.2    94  PHE94       0.2619
     64  O         31.7420   33.1850    4.5280 O.2    94  PHE94      -0.2715
     65  CB        28.9210   34.2420    3.4430 C.3    94  PHE94       0.0574
     66  CG        27.8150   34.3500    2.4340 C.ar   94  PHE94      -0.0200
     67  CD1       27.6000   35.5300    1.7520 C.ar   94  PHE94      -0.0042
     68  CD2       26.9810   33.2650    2.1760 C.ar   94  PHE94      -0.0042
     69  CE1       26.5850   35.6340    0.8130 C.ar   94  PHE94      -0.0003
     70  CE2       25.9610   33.3470    1.2420 C.ar   94  PHE94      -0.0003
     71  CZ        25.7530   34.5350    0.5640 C.ar   94  PHE94      -0.0000
     72  N         31.8640   35.3730    4.0340 N.am   95  ASP95      -0.1971
     73  CA        32.9570   35.6080    4.9730 C.3    95  ASP95       0.1709
     74  C         32.8740   36.9970    5.6030 C.2    95  ASP95       0.2293
     75  O         33.0810   37.9980    4.9190 O.2    95  ASP95      -0.2864
     76  CB        34.2850   35.4650    4.2190 C.3    95  ASP95       0.1436
     77  CG        35.4640   35.2440    5.1350 C.2    95  ASP95       0.3671
     78  OD1       35.4850   35.8070    6.2500 O.co2  95  ASP95      -0.2456
     79  OD2       36.3860   34.5140    4.7310 O.co2  95  ASP95      -0.2456
     80  N         35.4720   40.0840    5.3460 N.3    98  HIS98      -0.1226
     81  CA        35.5240   41.0140    4.2160 C.3    98  HIS98       0.1752
     82  C         34.4370   42.0910    4.2880 C.2    98  HIS98       0.2596
     83  O         34.2470   42.8420    3.3490 O.2    98  HIS98      -0.2718
     84  CB        35.3920   40.2440    2.8810 C.3    98  HIS98       0.0759
     85  CG        36.6270   39.4930    2.4890 C.ar   98  HIS98       0.0818
     86  ND1       36.7520   38.1300    2.6530 N.ar   98  HIS98      -0.2268
     87  CD2       37.7980   39.9190    1.9650 C.ar   98  HIS98       0.1154
     88  CE1       37.9480   37.7510    2.2450 C.ar   98  HIS98       0.1986
     89  NE2       38.6010   38.8170    1.8240 N.ar   98  HIS98      -0.2212
     90  N         33.7280   42.1630    5.4070 N.am   99  ALA99      -0.1966
     91  CA        32.6610   43.1480    5.5510 C.3    99  ALA99       0.1728
     92  C         33.1620   44.4890    6.1110 C.2    99  ALA99       0.2616
     93  O         34.0910   44.5280    6.9070 O.2    99  ALA99      -0.2715
     94  CB        31.5670   42.5900    6.4310 C.3    99  ALA99       0.0334
     95  N         32.5330   45.5860    5.6890 N.am  100  TYR100     -0.1974
     96  CA        32.9440   46.9320    6.1170 C.3   100  TYR100      0.1639
     97  C         32.2920   47.4730    7.3780 C.2   100  TYR100      0.2290
     98  O         31.0810   47.3570    7.5790 O.2   100  TYR100     -0.2864
     99  CB        32.7500   47.9260    4.9710 C.3   100  TYR100      0.0560
    100  CG        33.4680   47.4960    3.6920 C.ar  100  TYR100     -0.0198
    101  CD1       34.8650   47.3990    3.6540 C.ar  100  TYR100     -0.0009
    102  CD2       32.7490   47.1500    2.5410 C.ar  100  TYR100     -0.0009
    103  CE1       35.5290   46.9630    2.5200 C.ar  100  TYR100      0.0417
    104  CE2       33.4120   46.7100    1.3810 C.ar  100  TYR100      0.0417
    105  CZ        34.7920   46.6140    1.3800 C.ar  100  TYR100      0.1957
    106  OH        35.4440   46.1340    0.2610 O.3   100  TYR100     -0.2866
    107  N         28.5550   43.5270    8.2670 N.3   108  GLY108     -0.1210
    108  CA        27.8090   42.3040    8.0950 C.3   108  GLY108      0.1956
    109  C         27.5710   42.0500    6.6260 C.2   108  GLY108      0.2612
    110  O         28.0230   42.8010    5.7820 O.2   108  GLY108     -0.2717
    111  N         26.8720   40.9640    6.3290 N.am  109  ILE109     -0.1965
    112  CA        26.5540   40.6140    4.9540 C.3   109  ILE109      0.1727
    113  C         25.0700   40.9240    4.8150 C.2   109  ILE109      0.2616
    114  O         24.2810   40.5390    5.6690 O.2   109  ILE109     -0.2715
    115  CB        26.8620   39.1220    4.7010 C.3   109  ILE109      0.0290
    116  CG1       28.3520   38.8510    5.0250 C.3   109  ILE109      0.0022
    117  CG2       26.5580   38.7510    3.2640 C.3   109  ILE109      0.0023
    118  CD1       28.7920   37.4320    4.8000 C.3   109  ILE109      0.0001
    119  N         24.7130   41.6460    3.7540 N.am  110  TYR110     -0.1974
    120  CA        23.3300   42.0800    3.5220 C.3   110  TYR110      0.1639
    121  C         22.5700   41.3280    2.4370 C.2   110  TYR110      0.2290
    122  O         23.0840   41.0730    1.3570 O.2   110  TYR110     -0.2864
    123  CB        23.2940   43.5630    3.1580 C.3   110  TYR110      0.0560
    124  CG        23.8810   44.5110    4.1820 C.ar  110  TYR110     -0.0198
    125  CD1       25.1380   44.2790    4.7410 C.ar  110  TYR110     -0.0009
    126  CD2       23.2140   45.6890    4.5290 C.ar  110  TYR110     -0.0009
    127  CE1       25.7220   45.1860    5.6070 C.ar  110  TYR110      0.0417
    128  CE2       23.7950   46.6120    5.4050 C.ar  110  TYR110      0.0417
    129  CZ        25.0560   46.3490    5.9360 C.ar  110  TYR110      0.1957
    130  OH        25.6790   47.2490    6.7760 O.3   110  TYR110     -0.2866
    131  N         23.7120   46.3860   -6.2900 N.3   121  TYR121     -0.1241
    132  CA        25.0800   46.2410   -5.8070 C.3   121  TYR121      0.1605
    133  C         25.9470   45.3070   -6.6050 C.2   121  TYR121      0.2264
    134  O         27.0940   45.0900   -6.2690 O.2   121  TYR121     -0.2867
    135  CB        25.0540   45.8100   -4.3560 C.3   121  TYR121      0.0534
    136  CG        24.3350   46.8090   -3.4840 C.ar  121  TYR121     -0.0201
    137  CD1       24.9900   47.9310   -2.9940 C.ar  121  TYR121     -0.0009
    138  CD2       22.9800   46.6740   -3.2290 C.ar  121  TYR121     -0.0009
    139  CE1       24.3120   48.9030   -2.2720 C.ar  121  TYR121      0.0417
    140  CE2       22.2750   47.6390   -2.5070 C.ar  121  TYR121      0.0417
    141  CZ        22.9470   48.7570   -2.0350 C.ar  121  TYR121      0.1957
    142  OH        22.2510   49.7380   -1.3630 O.3   121  TYR121     -0.2866
    143  N         28.9560   47.1800   -7.1820 N.3   124  GLY124     -0.1210
    144  CA        29.5750   47.9280   -6.1080 C.3   124  GLY124      0.1956
    145  C         28.5710   48.8960   -5.5320 C.2   124  GLY124      0.2611
    146  O         27.5430   49.1600   -6.1570 O.2   124  GLY124     -0.2717
    147  N         28.8520   49.4280   -4.3460 N.am  125  ILE125     -0.1979
    148  CA        27.9170   50.3650   -3.7400 C.3   125  ILE125      0.1595
    149  C         27.6040   51.4580   -4.7440 C.2   125  ILE125      0.2287
    150  O         28.4710   51.9100   -5.4750 O.2   125  ILE125     -0.2864
    151  CB        28.4770   51.0370   -2.4640 C.3   125  ILE125      0.0276
    152  CG1       28.7560   49.9710   -1.3590 C.3   125  ILE125      0.0022
    153  CG2       27.4860   52.0780   -1.9770 C.3   125  ILE125      0.0022
    154  CD1       29.0540   50.5790    0.0130 C.3   125  ILE125      0.0001
@<TRIPOS>BOND
     1   143   144    1
     2    20    19    2
     3    18    21    1
     4    18    19    1
     5    18    17    1
     6    21    22    1
     7    22    23    1
     8   133   134    2
     9   133   132    1
    10    14    13    2
    11    19    24   am
    12   131   132    1
    13   146   145    2
    14   144   145    1
    15    17    13   am
    16    17    23    1
    17    13    12    1
    18   132   135    1
    19   145   147   am
    20   150   149    2
    21    35    36    1
    22    24    25    1
    23    11    12    1
    24    26    25    1
    25    26    27    2
    26    12    15    1
    27    25    28    1
    28   149   148    1
    29     4     3    2
    30   135   136    1
    31   147   148    1
    32    36    39    1
    33    36    37    1
    34   148   151    1
    35     3     2    1
    36    30    32   ar
    37    30    29   ar
    38   136   138   ar
    39   136   137   ar
    40    15    16    1
    41    28    29    1
    42    32    34   ar
    43    37    40   am
    44    37    38    2
    45   138   140   ar
    46    29    31   ar
    47    40    41    1
    48   137   139   ar
    49    34    33   ar
    50    42    41    1
    51    42    43    2
    52     1     2    1
    53    31    33   ar
    54    56    55    1
    55   140   141   ar
    56   151   153    1
    57   151   152    1
    58    41    44    1
    59     2     5    1
    60    44    45    1
    61    44    46    1
    62   139   141   ar
    63    55    54    1
    64   141   142    1
    65     8    10   ar
    66     8     6   ar
    67    47    45    1
    68    48    49    1
    69     5     6    1
    70    10     9   ar
    71   152   154    1
    72    54    53    1
    73     6     7   ar
    74    53    52    1
    75    49    52    1
    76    49    50    1
    77     9     7   ar
    78    57    50   am
    79    57    58    1
    80   106   105    1
    81    71    69   ar
    82    71    70   ar
    83    50    51    2
    84    69    67   ar
    85    58    59    1
    86    70    68   ar
    87    60    59    2
    88   122   121    2
    89   105   104   ar
    90   105   103   ar
    91   104   102   ar
    92    59    61   am
    93    67    66   ar
    94    89    87   ar
    95    89    88   ar
    96    87    85   ar
    97    68    66   ar
    98    88    86   ar
    99    61    62    1
   100    66    65    1
   101   121   120    1
   102    85    86   ar
   103    85    84    1
   104   103   101   ar
   105   102   100   ar
   106    62    65    1
   107    62    63    1
   108    84    81    1
   109   123   120    1
   110   123   124    1
   111   117   115    1
   112    83    82    2
   113   120   119    1
   114   101   100   ar
   115   100    99    1
   116   119   113   am
   117    63    72   am
   118    63    64    2
   119    72    73    1
   120   124   126   ar
   121   124   125   ar
   122    81    82    1
   123    81    80    1
   124    76    73    1
   125    76    77    1
   126    82    90   am
   127   126   128   ar
   128   115   112    1
   129   115   116    1
   130    79    77   ar
   131   125   127   ar
   132   118   116    1
   133   113   112    1
   134   113   114    2
   135    75    74    2
   136   112   111    1
   137    99    96    1
   138    73    74    1
   139    77    78   ar
   140   128   129   ar
   141    90    91    1
   142    91    92    1
   143    91    94    1
   144   127   129   ar
   145    95    92   am
   146    95    96    1
   147   110   109    2
   148   129   130    1
   149    92    93    2
   150    96    97    1
   151   111   109   am
   152   109   108    1
   153    97    98    2
   154   108   107    1
