@<TRIPOS>MOLECULE
tmp/4k4fA00.pdb
 173 174 0 0 0
SMALL
GASTEIGER

@<TRIPOS>ATOM
      1  N          0.8620   37.2480   31.0530 N.3    81  HIS81      -0.1226
      2  CA        -0.2870   38.0600   30.7180 C.3    81  HIS81       0.1752
      3  C         -0.8970   38.6570   31.9680 C.2    81  HIS81       0.2597
      4  O         -1.0180   37.9860   33.0090 O.2    81  HIS81      -0.2718
      5  CB        -1.3740   37.2590   30.0250 C.3    81  HIS81       0.0759
      6  CG        -2.6010   38.0710   29.7320 C.ar   81  HIS81       0.0818
      7  ND1       -2.6670   38.9710   28.6870 N.ar   81  HIS81      -0.2268
      8  CD2       -3.7840   38.1690   30.3840 C.ar   81  HIS81       0.1154
      9  CE1       -3.8360   39.5850   28.7100 C.ar   81  HIS81       0.1986
     10  NE2       -4.5320   39.1190   29.7300 N.ar   81  HIS81      -0.2212
     11  N         -1.3050   39.9160   31.8610 N.am   82  GLY82      -0.1942
     12  CA        -1.9250   40.5820   32.9900 C.3    82  GLY82       0.2014
     13  C         -3.0580   41.4840   32.5610 C.2    82  GLY82       0.2640
     14  O         -2.9080   42.2830   31.6590 O.2    82  GLY82      -0.2714
     15  N         -4.2090   41.3350   33.1960 N.am   83  SER83      -0.1936
     16  CA        -5.3620   42.1660   32.8800 C.3    83  SER83       0.2040
     17  C         -6.3950   41.9150   33.9420 C.2    83  SER83       0.2485
     18  O         -6.3220   40.9170   34.6330 O.2    83  SER83      -0.2729
     19  CB        -5.9340   41.8210   31.5030 C.3    83  SER83       0.2129
     20  OG        -6.4710   40.5120   31.4820 O.3    83  SER83      -0.2179
     21  N         -7.3830   42.8140   34.0840 N.am   84  PRO84      -0.2715
     22  CA        -8.4110   42.6180   35.1110 C.3    84  PRO84       0.1536
     23  C         -9.4620   41.5520   34.7990 C.2    84  PRO84       0.2598
     24  O        -10.4710   41.4930   35.4660 O.2    84  PRO84      -0.2715
     25  CB        -9.0700   43.9900   35.2150 C.3    84  PRO84       0.0310
     26  CG        -8.1710   44.9240   34.4420 C.3    84  PRO84       0.0237
     27  CD        -7.6170   44.0740   33.3680 C.3    84  PRO84       0.0939
     28  N         -9.2260   40.6990   33.8130 N.am   85  PHE85      -0.1974
     29  CA       -10.2460   39.7210   33.4640 C.3    85  PHE85       0.1639
     30  C         -9.7940   38.2790   33.5450 C.2    85  PHE85       0.2290
     31  O        -10.4210   37.3740   32.9840 O.2    85  PHE85      -0.2864
     32  CB       -10.7490   40.0420   32.0650 C.3    85  PHE85       0.0560
     33  CG       -10.7740   41.5100   31.7800 C.ar   85  PHE85      -0.0200
     34  CD1      -11.7830   42.3320   32.2910 C.ar   85  PHE85      -0.0042
     35  CD2       -9.7540   42.0890   31.0430 C.ar   85  PHE85      -0.0042
     36  CE1      -11.7540   43.7100   32.0750 C.ar   85  PHE85      -0.0003
     37  CE2       -9.7170   43.4650   30.8240 C.ar   85  PHE85      -0.0003
     38  CZ       -10.7200   44.2770   31.3350 C.ar   85  PHE85      -0.0000
     39  N        -12.1790   35.4530   33.8870 N.3    88  ALA88      -0.1231
     40  CA       -13.0320   35.1390   32.7550 C.3    88  ALA88       0.1694
     41  C        -12.2000   34.2740   31.7910 C.2    88  ALA88       0.2591
     42  O        -12.6670   33.2750   31.2710 O.2    88  ALA88      -0.2718
     43  CB       -13.4650   36.4120   32.0860 C.3    88  ALA88       0.0304
     44  N        -10.9430   34.6650   31.5970 N.am   89  ILE89      -0.1980
     45  CA       -10.0170   33.9630   30.7160 C.3    89  ILE89       0.1595
     46  C         -9.7360   32.5050   31.0730 C.2    89  ILE89       0.2287
     47  O         -9.5380   31.6790   30.1750 O.2    89  ILE89      -0.2864
     48  CB        -8.6530   34.7020   30.6550 C.3    89  ILE89       0.0276
     49  CG1       -8.8500   36.0980   30.0580 C.3    89  ILE89       0.0022
     50  CG2       -7.6450   33.8950   29.8280 C.3    89  ILE89       0.0022
     51  CD1       -7.6690   37.0450   30.2360 C.3    89  ILE89       0.0001
     52  N        -13.4220   30.9050   30.1820 N.3    92  LYS92      -0.1231
     53  CA       -13.8820   31.0210   28.8010 C.3    92  LYS92       0.1693
     54  C        -12.7680   31.1000   27.7530 C.2    92  LYS92       0.2593
     55  O        -13.0440   31.0540   26.5470 O.2    92  LYS92      -0.2718
     56  CB       -14.8060   32.2430   28.6710 C.3    92  LYS92       0.0285
     57  CG       -16.0950   32.1510   29.5040 C.3    92  LYS92       0.0035
     58  CD       -16.6390   33.5340   29.8880 C.3    92  LYS92       0.0206
     59  CE       -17.8080   33.4230   30.8890 C.3    92  LYS92       0.1093
     60  NZ       -18.2860   34.7390   31.4640 N.3    92  LYS92      -0.1314
     61  N        -11.5170   31.2030   28.1960 N.am   93  GLY93      -0.1942
     62  CA       -10.4120   31.3060   27.2560 C.3    93  GLY93       0.2014
     63  C        -10.1650   32.7590   26.8520 C.2    93  GLY93       0.2639
     64  O        -10.9050   33.6580   27.2500 O.2    93  GLY93      -0.2714
     65  N         -9.1210   33.0050   26.0680 N.am   94  PHE94      -0.1959
     66  CA        -8.8030   34.3650   25.6190 C.3    94  PHE94       0.1771
     67  C         -9.7970   34.8150   24.5490 C.2    94  PHE94       0.2619
     68  O        -10.1660   34.0370   23.6760 O.2    94  PHE94      -0.2715
     69  CB        -7.3800   34.4170   25.0500 C.3    94  PHE94       0.0574
     70  CG        -6.2990   34.4860   26.0940 C.ar   94  PHE94      -0.0200
     71  CD1       -5.9760   35.6930   26.6990 C.ar   94  PHE94      -0.0042
     72  CD2       -5.5960   33.3480   26.4650 C.ar   94  PHE94      -0.0042
     73  CE1       -4.9680   35.7680   27.6490 C.ar   94  PHE94      -0.0003
     74  CE2       -4.5810   33.4130   27.4210 C.ar   94  PHE94      -0.0003
     75  CZ        -4.2720   34.6250   28.0100 C.ar   94  PHE94      -0.0000
     76  N        -10.2210   36.0750   24.6150 N.am   95  ASP95      -0.1971
     77  CA       -11.1900   36.5900   23.6480 C.3    95  ASP95       0.1709
     78  C        -10.8400   37.9500   23.0550 C.2    95  ASP95       0.2293
     79  O        -10.7670   38.9540   23.7550 O.2    95  ASP95      -0.2864
     80  CB       -12.5740   36.6730   24.2810 C.3    95  ASP95       0.1436
     81  CG       -13.6800   36.7160   23.2470 C.2    95  ASP95       0.3671
     82  OD1      -13.3770   37.0100   22.0710 O.co2  95  ASP95      -0.2456
     83  OD2      -14.8530   36.4670   23.6030 O.co2  95  ASP95      -0.2456
     84  N        -12.9150   41.4300   23.5130 N.3    98  HIS98      -0.1226
     85  CA       -12.8830   42.3010   24.7080 C.3    98  HIS98       0.1752
     86  C        -11.6520   43.1900   24.6250 C.2    98  HIS98       0.2596
     87  O        -11.2960   43.9490   25.5330 O.2    98  HIS98      -0.2718
     88  CB       -12.8600   41.3830   25.9580 C.3    98  HIS98       0.0759
     89  CG       -14.1950   40.7770   26.2620 C.ar   98  HIS98       0.0818
     90  ND1      -14.4480   39.4210   26.2100 N.ar   98  HIS98      -0.2268
     91  CD2      -15.3710   41.3670   26.5800 C.ar   98  HIS98       0.1154
     92  CE1      -15.7220   39.2050   26.4910 C.ar   98  HIS98       0.1986
     93  NE2      -16.3040   40.3700   26.7200 N.ar   98  HIS98      -0.2212
     94  N        -11.0590   43.1620   23.4480 N.am   99  ALA99      -0.1966
     95  CA        -9.7910   43.8240   23.2630 C.3    99  ALA99       0.1728
     96  C         -9.8830   45.2790   22.8780 C.2    99  ALA99       0.2616
     97  O        -10.2950   45.6200   21.7870 O.2    99  ALA99      -0.2715
     98  CB        -8.9730   43.0330   22.2500 C.3    99  ALA99       0.0334
     99  N         -9.4960   46.1560   23.8090 N.am  100  TYR100     -0.1974
    100  CA        -9.5480   47.6350   23.6390 C.3   100  TYR100      0.1639
    101  C         -9.8050   48.2980   22.2790 C.2   100  TYR100      0.2290
    102  O        -10.9510   48.7450   21.9770 O.2   100  TYR100     -0.2864
    103  CB        -8.3180   48.2350   24.2360 C.3   100  TYR100      0.0560
    104  CG        -8.1310   47.8730   25.6870 C.ar  100  TYR100     -0.0198
    105  CD1       -9.0140   48.3400   26.6610 C.ar  100  TYR100     -0.0009
    106  CD2       -7.0870   47.0390   26.0860 C.ar  100  TYR100     -0.0009
    107  CE1       -8.8660   47.9810   27.9950 C.ar  100  TYR100      0.0417
    108  CE2       -6.9270   46.6760   27.4160 C.ar  100  TYR100      0.0417
    109  CZ        -7.8190   47.1470   28.3660 C.ar  100  TYR100      0.1957
    110  OH        -7.6710   46.7760   29.6830 O.3   100  TYR100     -0.2866
    111  N         -2.6740   51.0740   22.5400 N.3   105  PHE105     -0.1227
    112  CA        -2.8410   49.7050   22.1660 C.3   105  PHE105      0.1736
    113  C         -3.8660   49.5930   21.0800 C.2   105  PHE105      0.2596
    114  O         -4.3370   50.5960   20.5050 O.2   105  PHE105     -0.2718
    115  CB        -3.2860   48.9330   23.3940 C.3   105  PHE105      0.0547
    116  CG        -2.3730   49.1190   24.5480 C.ar  105  PHE105     -0.0202
    117  CD1       -2.4110   50.2860   25.2900 C.ar  105  PHE105     -0.0042
    118  CD2       -1.4790   48.1200   24.9070 C.ar  105  PHE105     -0.0042
    119  CE1       -1.5770   50.4630   26.3840 C.ar  105  PHE105     -0.0003
    120  CE2       -0.6360   48.2850   26.0030 C.ar  105  PHE105     -0.0003
    121  CZ        -0.6860   49.4640   26.7430 C.ar  105  PHE105     -0.0000
    122  N         -4.2010   48.3660   20.7820 N.am  106  GLY106     -0.1957
    123  CA        -5.1800   48.1870   19.7830 C.3   106  GLY106      0.1869
    124  C         -5.5840   46.7850   20.0240 C.2   106  GLY106      0.2309
    125  O         -5.2270   46.1000   20.9810 O.2   106  GLY106     -0.2863
    126  N         -5.4640   43.8420   20.1450 N.3   108  GLY108     -0.1210
    127  CA        -4.9300   42.5750   20.5220 C.3   108  GLY108      0.1956
    128  C         -4.8710   42.3340   21.9610 C.2   108  GLY108      0.2612
    129  O         -5.1420   43.1520   22.8270 O.2   108  GLY108     -0.2717
    130  N         -4.4640   41.1060   22.1530 N.am  109  ILE109     -0.1965
    131  CA        -4.2500   40.5410   23.4170 C.3   109  ILE109      0.1727
    132  C         -2.7400   40.6320   23.5570 C.2   109  ILE109      0.2616
    133  O         -2.0050   40.0940   22.7470 O.2   109  ILE109     -0.2715
    134  CB        -4.7100   39.1260   23.3720 C.3   109  ILE109      0.0290
    135  CG1       -6.1360   39.1190   22.8400 C.3   109  ILE109      0.0022
    136  CG2       -4.6320   38.5150   24.7420 C.3   109  ILE109      0.0023
    137  CD1       -6.6540   37.7730   22.5310 C.3   109  ILE109      0.0001
    138  N         -2.2900   41.3350   24.5910 N.am  110  TYR110     -0.1974
    139  CA        -0.8730   41.5360   24.8270 C.3   110  TYR110      0.1639
    140  C         -0.2530   40.5470   25.7910 C.2   110  TYR110      0.2290
    141  O         -0.8910   40.0700   26.7170 O.2   110  TYR110     -0.2864
    142  CB        -0.6620   42.9530   25.3300 C.3   110  TYR110      0.0560
    143  CG        -0.8210   44.0080   24.2660 C.ar  110  TYR110     -0.0198
    144  CD1        0.2810   44.7410   23.8190 C.ar  110  TYR110     -0.0009
    145  CD2       -2.0570   44.2460   23.6730 C.ar  110  TYR110     -0.0009
    146  CE1        0.1600   45.6790   22.8100 C.ar  110  TYR110      0.0417
    147  CE2       -2.1890   45.1810   22.6510 C.ar  110  TYR110      0.0417
    148  CZ        -1.0700   45.8970   22.2190 C.ar  110  TYR110      0.1957
    149  OH        -1.1600   46.8010   21.1870 O.3   110  TYR110     -0.2866
    150  N         -0.4250   45.7950   34.1010 N.3   121  TYR121     -0.1241
    151  CA        -1.7600   45.6500   33.5380 C.3   121  TYR121      0.1605
    152  C         -2.7960   44.8760   34.3490 C.2   121  TYR121      0.2264
    153  O         -3.9380   44.7360   33.9380 O.2   121  TYR121     -0.2867
    154  CB        -1.6170   45.0200   32.1490 C.3   121  TYR121      0.0534
    155  CG        -0.8930   45.9410   31.2360 C.ar  121  TYR121     -0.0201
    156  CD1       -1.4940   47.1380   30.8970 C.ar  121  TYR121     -0.0009
    157  CD2        0.4560   45.7510   30.9020 C.ar  121  TYR121     -0.0009
    158  CE1       -0.8070   48.1430   30.2770 C.ar  121  TYR121      0.0417
    159  CE2        1.1720   46.7740   30.2610 C.ar  121  TYR121      0.0417
    160  CZ         0.5200   47.9700   29.9590 C.ar  121  TYR121      0.1957
    161  OH         1.2150   48.9840   29.3400 O.3   121  TYR121     -0.2866
    162  N         -5.4110   47.2560   35.2240 N.3   124  GLY124     -0.1210
    163  CA        -5.8710   48.0810   34.1300 C.3   124  GLY124      0.1956
    164  C         -4.7520   48.7800   33.4030 C.2   124  GLY124      0.2611
    165  O         -3.5920   48.6560   33.7750 O.2   124  GLY124     -0.2717
    166  N         -5.1160   49.5020   32.3450 N.am  125  ILE125     -0.1979
    167  CA        -4.1560   50.2510   31.5500 C.3   125  ILE125      0.1595
    168  C         -3.4870   51.2660   32.4700 C.2   125  ILE125      0.2287
    169  O         -4.1470   52.1320   33.0430 O.2   125  ILE125     -0.2864
    170  CB        -4.8620   50.9940   30.3840 C.3   125  ILE125      0.0276
    171  CG1       -4.9300   50.0930   29.1420 C.3   125  ILE125      0.0022
    172  CG2       -4.1150   52.2700   30.0460 C.3   125  ILE125      0.0022
    173  CD1       -5.7800   50.6680   28.0150 C.3   125  ILE125      0.0001
@<TRIPOS>BOND
     1   123   124    1
     2   123   122    1
     3   124   125    2
     4   126   127    1
     5   114   113    2
     6   127   128    1
     7   122   113   am
     8   113   112    1
     9   149   148    1
    10    97    96    2
    11   128   130   am
    12   128   129    2
    13   102   101    2
    14    82    81   ar
    15   130   131    1
    16   112   111    1
    17   112   115    1
    18   148   147   ar
    19   148   146   ar
    20    98    95    1
    21   101   100    1
    22   137   135    1
    23   147   145   ar
    24   133   132    2
    25   146   144   ar
    26   135   134    1
    27    96    95    1
    28    96    99   am
    29    78    77    1
    30    78    79    2
    31    81    83   ar
    32    81    80    1
    33    95    94    1
    34   134   131    1
    35   134   136    1
    36   115   116    1
    37   131   132    1
    38    94    86   am
    39    84    85    1
    40   132   138   am
    41   100    99    1
    42   100   103    1
    43    77    80    1
    44    77    76    1
    45   145   143   ar
    46    68    67    2
    47   144   143   ar
    48   103   104    1
    49   143   142    1
    50   116   118   ar
    51   116   117   ar
    52    67    76   am
    53    67    66    1
    54   138   139    1
    55    86    85    1
    56    86    87    2
    57    85    88    1
    58   139   142    1
    59   139   140    1
    60   118   120   ar
    61    69    66    1
    62    69    70    1
    63   117   119   ar
    64    66    65    1
    65   104   106   ar
    66   104   105   ar
    67   140   141    2
    68    88    89    1
    69   120   121   ar
    70    65    63   am
    71   106   108   ar
    72    70    72   ar
    73    70    71   ar
    74    90    89   ar
    75    90    92   ar
    76    89    91   ar
    77   119   121   ar
    78    72    74   ar
    79    92    93   ar
    80    55    54    2
    81    91    93   ar
    82   105   107   ar
    83    71    73   ar
    84    63    64    2
    85    63    62    1
    86    62    61    1
    87   108   109   ar
    88    74    75   ar
    89    73    75   ar
    90    54    61   am
    91    54    53    1
    92   107   109   ar
    93   173   171    1
    94   109   110    1
    95    56    53    1
    96    56    57    1
    97     7     9   ar
    98     7     6   ar
    99     9    10   ar
   100    53    52    1
   101   171   170    1
   102   161   160    1
   103    57    58    1
   104    10     8   ar
   105     6     5    1
   106     6     8   ar
   107    50    48    1
   108    58    59    1
   109   160   159   ar
   110   160   158   ar
   111     5     2    1
   112   172   170    1
   113    49    51    1
   114    49    48    1
   115    47    46    2
   116   159   157   ar
   117   158   156   ar
   118   170   167    1
   119    48    45    1
   120    45    46    1
   121    45    44    1
   122     2     1    1
   123     2     3    1
   124    37    35   ar
   125    37    38   ar
   126    59    60    1
   127   156   155   ar
   128   157   155   ar
   129    35    33   ar
   130   155   154    1
   131    42    41    2
   132    38    36   ar
   133    20    19    1
   134    19    16    1
   135   167   166    1
   136   167   168    1
   137    44    41   am
   138    14    13    2
   139    33    32    1
   140    33    34   ar
   141    41    40    1
   142    11     3   am
   143    11    12    1
   144     3     4    2
   145    32    29    1
   146    36    34   ar
   147    43    40    1
   148   154   151    1
   149   166   164   am
   150   168   169    2
   151    13    12    1
   152    13    15   am
   153    40    39    1
   154    16    15    1
   155    16    17    1
   156    31    30    2
   157    27    21    1
   158    27    26    1
   159   164   165    2
   160   164   163    1
   161    29    30    1
   162    29    28    1
   163   151   150    1
   164   151   152    1
   165    28    23   am
   166   153   152    2
   167    17    21   am
   168    17    18    2
   169    21    22    1
   170   163   162    1
   171    26    25    1
   172    23    22    1
   173    23    24    2
   174    22    25    1
