@<TRIPOS>MOLECULE
tmp/4k4gA01.pdb
 135 128 0 0 0
SMALL
GASTEIGER

@<TRIPOS>ATOM
      1  N        -39.0010   28.4500    1.3910 N.3   137  ARG137     -0.1245
      2  CA       -39.1370   28.2440    2.7900 C.3   137  ARG137      0.1563
      3  C        -40.5680   28.5060    3.1060 C.2   137  ARG137      0.2260
      4  O        -41.2160   29.1500    2.3430 O.2   137  ARG137     -0.2867
      5  CB       -38.1960   29.1720    3.5440 C.3   137  ARG137      0.0307
      6  CG       -36.7600   28.8810    3.1410 C.3   137  ARG137      0.0489
      7  CD       -35.7470   29.6140    4.0200 C.3   137  ARG137      0.2205
      8  NE       -35.9590   29.3200    5.4490 N.pl3 137  ARG137     -0.0865
      9  CZ       -35.3600   28.3330    6.1390 C.cat 137  ARG137      0.5346
     10  NH1      -34.4970   27.5230    5.5920 N.pl3 137  ARG137      0.1354
     11  NH2      -35.6030   28.1890    7.4120 N.pl3 137  ARG137      0.1354
     12  N        -35.7200   20.7490   14.5060 N.3   167  GLY167     -0.1210
     13  CA       -35.0350   21.5610   13.5310 C.3   167  GLY167      0.1956
     14  C        -35.1500   23.0580   13.8210 C.2   167  GLY167      0.2612
     15  O        -35.2090   23.4850   14.9730 O.2   167  GLY167     -0.2717
     16  N        -35.1910   23.8450   12.7630 N.am  168  SER168     -0.1952
     17  CA       -35.2750   25.3090   12.8590 C.3   168  SER168      0.1924
     18  C        -36.5510   25.7330   13.5140 C.2   168  SER168      0.2314
     19  O        -36.5820   26.7610   14.1350 O.2   168  SER168     -0.2863
     20  CB       -35.1800   25.9420   11.4900 C.3   168  SER168      0.2116
     21  OG       -36.2170   25.4640   10.6530 O.3   168  SER168     -0.2180
     22  N        -35.7320   25.8110   17.1200 N.3   171  ARG171     -0.1245
     23  CA       -34.7620   26.8820   17.3560 C.3   171  ARG171      0.1563
     24  C        -35.3190   28.3210   17.1280 C.2   171  ARG171      0.2260
     25  O        -34.5630   29.2810   17.1020 O.2   171  ARG171     -0.2867
     26  CB       -33.4700   26.7120   16.5350 C.3   171  ARG171      0.0307
     27  CG       -32.8400   25.3670   16.6200 C.3   171  ARG171      0.0489
     28  CD       -31.4150   25.3650   16.1360 C.3   171  ARG171      0.2205
     29  NE       -31.2450   25.8640   14.7740 N.pl3 171  ARG171     -0.0865
     30  CZ       -31.3860   25.1550   13.6600 C.cat 171  ARG171      0.5346
     31  NH1      -31.7370   23.8750   13.7010 N.pl3 171  ARG171      0.1354
     32  NH2      -31.1770   25.7280   12.4670 N.pl3 171  ARG171      0.1354
     33  N        -37.3060   25.4830    6.2890 N.3   177  GLY177     -0.1210
     34  CA       -37.0060   24.8170    5.0230 C.3   177  GLY177      0.1956
     35  C        -37.7900   23.5060    4.9000 C.2   177  GLY177      0.2611
     36  O        -38.2580   23.2130    3.8460 O.2   177  GLY177     -0.2717
     37  N        -37.8400   22.7180    5.9740 N.am  178  ASP178     -0.1973
     38  CA       -38.6290   21.4890    6.0700 C.3   178  ASP178      0.1709
     39  C        -38.9200   21.2220    7.5280 C.2   178  ASP178      0.2293
     40  O        -38.1690   21.6410    8.4260 O.2   178  ASP178     -0.2864
     41  CB       -37.9330   20.2800    5.4160 C.3   178  ASP178      0.1436
     42  CG       -36.7220   19.6840    6.2250 C.2   178  ASP178      0.3671
     43  OD1      -36.3780   20.0240    7.3540 O.co2 178  ASP178     -0.2456
     44  OD2      -36.0360   18.7680    5.7030 O.co2 178  ASP178     -0.2456
     45  N        -39.3600   18.7850   10.7850 N.3   180  ASP180     -0.1239
     46  CA       -38.7300   17.6270   11.3710 C.3   180  ASP180      0.1674
     47  C        -39.5300   17.2400   12.6060 C.2   180  ASP180      0.2266
     48  O        -39.5060   17.9800   13.6000 O.2   180  ASP180     -0.2867
     49  CB       -37.2430   17.8810   11.6860 C.3   180  ASP180      0.1410
     50  CG       -36.4780   18.5950   10.5560 C.2   180  ASP180      0.3668
     51  OD1      -35.8790   17.9300    9.6700 O.co2 180  ASP180     -0.2456
     52  OD2      -36.4680   19.8450   10.5500 O.co2 180  ASP180     -0.2456
     53  N        -39.7790   15.2050    7.5650 N.3   241  ASP241     -0.1239
     54  CA       -38.9210   14.2160    8.1020 C.3   241  ASP241      0.1674
     55  C        -39.5630   13.7820    9.4440 C.2   241  ASP241      0.2266
     56  O        -39.9360   14.6420   10.2800 O.2   241  ASP241     -0.2867
     57  CB       -37.5280   14.7880    8.3680 C.3   241  ASP241      0.1410
     58  CG       -36.7640   15.2090    7.0920 C.2   241  ASP241      0.3668
     59  OD1      -37.1310   14.7640    5.9740 O.co2 241  ASP241     -0.2456
     60  OD2      -35.7440   15.9590    7.2010 O.co2 241  ASP241     -0.2456
     61  N        -30.1040   15.9390   18.6700 N.3   256  TYR256     -0.1227
     62  CA       -29.7610   15.6760   17.2910 C.3   256  TYR256      0.1736
     63  C        -30.7720   16.3260   16.3700 C.2   256  TYR256      0.2595
     64  O        -30.4330   17.1140   15.5390 O.2   256  TYR256     -0.2718
     65  CB       -29.6990   14.1530   17.0010 C.3   256  TYR256      0.0548
     66  CG       -29.8670   13.7950   15.5360 C.ar  256  TYR256     -0.0200
     67  CD1      -28.9000   14.1040   14.6260 C.ar  256  TYR256     -0.0009
     68  CD2      -30.9590   13.1020   15.0770 C.ar  256  TYR256     -0.0009
     69  CE1      -29.0180   13.7970   13.2820 C.ar  256  TYR256      0.0417
     70  CE2      -31.0670   12.7650   13.7480 C.ar  256  TYR256      0.0417
     71  CZ       -30.1000   13.1440   12.8430 C.ar  256  TYR256      0.1957
     72  OH       -30.2170   12.8260   11.4750 O.3   256  TYR256     -0.2866
     73  N        -32.0170   16.0540   16.5940 N.am  257  PHE257     -0.1962
     74  CA       -33.0640   16.4930   15.6910 C.3   257  PHE257      0.1771
     75  C        -33.2840   17.9860   15.7540 C.2   257  PHE257      0.2620
     76  O        -33.7390   18.5570   14.8130 O.2   257  PHE257     -0.2715
     77  CB       -34.3660   15.7840   16.0420 C.3   257  PHE257      0.0574
     78  CG       -35.0640   15.1600   14.8500 C.ar  257  PHE257     -0.0200
     79  CD1      -34.3550   14.4260   13.9090 C.ar  257  PHE257     -0.0042
     80  CD2      -36.4370   15.2970   14.6880 C.ar  257  PHE257     -0.0042
     81  CE1      -35.0050   13.8290   12.8320 C.ar  257  PHE257     -0.0003
     82  CE2      -37.0890   14.7410   13.5850 C.ar  257  PHE257     -0.0003
     83  CZ       -36.3910   14.0200   12.6670 C.ar  257  PHE257     -0.0000
     84  N        -32.9690   18.6140   16.8650 N.am  258  THR258     -0.1937
     85  CA       -33.0370   20.0820   16.9510 C.3   258  THR258      0.2028
     86  C        -31.9480   20.7200   16.1080 C.2   258  THR258      0.2643
     87  O        -32.1520   21.7430   15.4900 O.2   258  THR258     -0.2714
     88  CB       -33.0160   20.5210   18.4250 C.3   258  THR258      0.1808
     89  OG1      -34.1790   19.9770   19.0430 O.3   258  THR258     -0.2208
     90  CG2      -33.1030   21.9980   18.5840 C.3   258  THR258      0.0379
     91  N        -30.7800   20.1160   16.0820 N.am  259  GLY259     -0.1939
     92  CA       -29.6470   20.6640   15.3470 C.3   259  GLY259      0.2014
     93  C        -29.1660   21.9880   15.9790 C.2   259  GLY259      0.2640
     94  O        -29.3970   22.1760   17.1880 O.2   259  GLY259     -0.2714
     95  N        -28.5690   22.9110   15.2200 N.am  260  SER260     -0.1935
     96  CA       -28.3680   22.8510   13.7960 C.3   260  SER260      0.2055
     97  C        -27.3780   21.7690   13.4860 C.2   260  SER260      0.2642
     98  O        -26.7480   21.2810   14.3640 O.2   260  SER260     -0.2714
     99  CB       -27.7380   24.1460   13.2850 C.3   260  SER260      0.2130
    100  OG       -26.3680   24.2410   13.7280 O.3   260  SER260     -0.2179
    101  N        -27.2380   21.4520   12.2120 N.am  261  ALA261     -0.1977
    102  CA       -26.1660   20.6130   11.7180 C.3   261  ALA261      0.1597
    103  C        -24.7630   20.9420   12.2740 C.2   261  ALA261      0.2287
    104  O        -24.0540   20.0570   12.7480 O.2   261  ALA261     -0.2864
    105  CB       -26.1200   20.6720   10.1940 C.3   261  ALA261      0.0319
    106  N        -24.4380   20.2810   15.8730 N.3   264  ASN264     -0.1225
    107  CA       -24.2780   18.8630   16.2070 C.3   264  ASN264      0.1785
    108  C        -22.8480   18.3080   15.8970 C.2   264  ASN264      0.2597
    109  O        -22.2820   17.5420   16.6620 O.2   264  ASN264     -0.2718
    110  CB       -25.2280   17.9990   15.4310 C.3   264  ASN264      0.1169
    111  CG       -26.6470   18.0900   15.8840 C.2   264  ASN264      0.2627
    112  OD1      -26.9590   18.5980   16.9440 O.2   264  ASN264     -0.2716
    113  ND2      -27.5300   17.5740   15.0630 N.am  264  ASN264     -0.0877
    114  N        -22.2740   18.7140   14.7620 N.am  265  ARG265     -0.1979
    115  CA       -20.9120   18.3110   14.4430 C.3   265  ARG265      0.1597
    116  C        -19.9150   18.7750   15.5060 C.2   265  ARG265      0.2287
    117  O        -19.0590   17.9850   15.9190 O.2   265  ARG265     -0.2864
    118  CB       -20.4610   18.8660   13.0910 C.3   265  ARG265      0.0334
    119  CG       -21.2440   18.3230   11.9230 C.3   265  ARG265      0.0492
    120  CD       -20.2880   18.2330   10.7740 C.3   265  ARG265      0.2205
    121  NE       -20.6300   19.0710    9.6970 N.pl3 265  ARG265     -0.0865
    122  CZ       -19.9410   19.0920    8.5550 C.cat 265  ARG265      0.5346
    123  NH1      -18.8240   18.3630    8.3820 N.pl3 265  ARG265      0.1354
    124  NH2      -20.3810   19.8720    7.5850 N.pl3 265  ARG265      0.1354
    125  N        -20.3050   16.7590   18.6590 N.3   268  ARG268     -0.1245
    126  CA       -19.7480   15.4430   18.5000 C.3   268  ARG268      0.1563
    127  C        -18.2340   15.4740   18.4110 C.2   268  ARG268      0.2260
    128  O        -17.6040   14.5810   18.9540 O.2   268  ARG268     -0.2867
    129  CB       -20.3670   14.7220   17.3010 C.3   268  ARG268      0.0307
    130  CG       -21.8810   14.4730   17.4490 C.3   268  ARG268      0.0489
    131  CD       -22.5510   13.9300   16.1710 C.3   268  ARG268      0.2205
    132  NE       -23.9900   13.7760   16.3770 N.pl3 268  ARG268     -0.0865
    133  CZ       -24.7680   12.8790   15.7610 C.cat 268  ARG268      0.5346
    134  NH1      -24.3410   12.0420   14.7990 N.pl3 268  ARG268      0.1354
    135  NH2      -26.0260   12.8120   16.1390 N.pl3 268  ARG268      0.1354
@<TRIPOS>BOND
     1     1     2    1
     2     4     3    2
     3     2     3    1
     4     2     5    1
     5     6     5    1
     6     6     7    1
     7    36    35    2
     8     7     8    1
     9    35    34    1
    10    35    37   am
    11    34    33    1
    12    41    38    1
    13    41    42    1
    14     8     9    2
    15    10     9    1
    16    44    42   ar
    17    37    38    1
    18    59    58   ar
    19    38    39    1
    20     9    11    1
    21    42    43   ar
    22    58    60   ar
    23    58    57    1
    24    39    40    2
    25    53    54    1
    26   124   122    1
    27    54    57    1
    28    54    55    1
    29   123   122    1
    30   122   121    2
    31    55    56    2
    32    51    50   ar
    33   121   120    1
    34   105   102    1
    35    52    50   ar
    36    50    49    1
    37    21    20    1
    38   120   119    1
    39    45    46    1
    40    46    49    1
    41    46    47    1
    42    72    71    1
    43    20    17    1
    44   102   101    1
    45   102   103    1
    46   119   118    1
    47   101    97   am
    48   103   104    2
    49    32    30    1
    50    47    48    2
    51    83    81   ar
    52    83    82   ar
    53    16    17    1
    54    16    14   am
    55    81    79   ar
    56    71    69   ar
    57    71    70   ar
    58    17    18    1
    59   118   115    1
    60    69    67   ar
    61    99   100    1
    62    99    96    1
    63    97    96    1
    64    97    98    2
    65    18    19    2
    66    13    14    1
    67    13    12    1
    68    82    80   ar
    69    30    31    1
    70    30    29    2
    71    70    68   ar
    72    96    95    1
    73    14    15    2
    74    79    78   ar
    75   115   114    1
    76   115   116    1
    77    67    66   ar
    78    80    78   ar
    79   114   108   am
    80    29    28    1
    81   134   133    1
    82    76    75    2
    83    78    77    1
    84   113   111   am
    85    68    66   ar
    86    95    93   am
    87    92    93    1
    88    92    91    1
    89   110   111    1
    90   110   107    1
    91    87    86    2
    92   116   117    2
    93    66    65    1
    94    64    63    2
    95    74    75    1
    96    74    77    1
    97    74    73    1
    98    75    84   am
    99   133   135    1
   100   133   132    2
   101   106   107    1
   102   111   112    2
   103   108   107    1
   104   108   109    2
   105    93    94    2
   106    91    86   am
   107    86    85    1
   108    28    27    1
   109   131   132    1
   110   131   130    1
   111    63    73   am
   112    63    62    1
   113    26    27    1
   114    26    23    1
   115    84    85    1
   116    85    88    1
   117    65    62    1
   118    25    24    2
   119    22    23    1
   120    24    23    1
   121    62    61    1
   122   129   130    1
   123   129   126    1
   124   127   126    1
   125   127   128    2
   126    88    90    1
   127    88    89    1
   128   126   125    1
