@<TRIPOS>MOLECULE
tmp/4k4iA00.pdb
 161 157 0 0 0
SMALL
GASTEIGER

@<TRIPOS>ATOM
      1  N        -18.3930   32.7260   -2.4460 N.3    14  LEU14      -0.1245
      2  CA       -17.2620   31.8790   -2.6800 C.3    14  LEU14       0.1561
      3  C        -17.4030   30.5130   -2.0440 C.2    14  LEU14       0.2260
      4  O        -16.8860   29.4770   -2.5670 O.2    14  LEU14      -0.2867
      5  CB       -16.0770   32.5760   -2.0690 C.3    14  LEU14       0.0270
      6  CG       -14.7770   32.5250   -2.8330 C.3    14  LEU14       0.0019
      7  CD1      -14.0920   31.2260   -2.5650 C.3    14  LEU14       0.0001
      8  CD2      -15.0210   32.7150   -4.3260 C.3    14  LEU14       0.0001
      9  N        -17.6290   26.4800   -3.7780 N.3    18  TYR18      -0.1241
     10  CA       -16.8350   25.2770   -3.4650 C.3    18  TYR18       0.1605
     11  C        -17.7430   24.1190   -3.0790 C.2    18  TYR18       0.2264
     12  O        -17.4540   22.9630   -3.3240 O.2    18  TYR18      -0.2867
     13  CB       -15.8880   25.5640   -2.2780 C.3    18  TYR18       0.0534
     14  CG       -14.6370   26.3590   -2.6490 C.ar   18  TYR18      -0.0201
     15  CD1      -13.6860   25.8320   -3.5160 C.ar   18  TYR18      -0.0009
     16  CD2      -14.4060   27.6290   -2.1210 C.ar   18  TYR18      -0.0009
     17  CE1      -12.5460   26.5470   -3.8530 C.ar   18  TYR18       0.0417
     18  CE2      -13.2650   28.3450   -2.4500 C.ar   18  TYR18       0.0417
     19  CZ       -12.3430   27.8040   -3.3170 C.ar   18  TYR18       0.1957
     20  OH       -11.2170   28.5150   -3.6150 O.3    18  TYR18      -0.2866
     21  N        -14.4750   19.9840    2.3980 N.3    25  TRP25      -0.1227
     22  CA       -13.6480   20.4380    3.5330 C.3    25  TRP25       0.1737
     23  C        -13.3360   21.8930    3.4030 C.2    25  TRP25       0.2595
     24  O        -13.4270   22.6430    4.3630 O.2    25  TRP25      -0.2718
     25  CB       -12.3740   19.6490    3.5980 C.3    25  TRP25       0.0564
     26  CG       -12.6680   18.2160    3.7500 C.ar   25  TRP25       0.0003
     27  CD1      -12.1480   17.1930    3.0340 C.ar   25  TRP25       0.0946
     28  CD2      -13.5850   17.6390    4.6830 C.ar   25  TRP25       0.0152
     29  NE1      -12.6710   16.0000    3.4760 N.ar   25  TRP25      -0.2442
     30  CE2      -13.5560   16.2590    4.4930 C.ar   25  TRP25       0.0810
     31  CE3      -14.4250   18.1610    5.6590 C.ar   25  TRP25       0.0012
     32  CZ2      -14.3420   15.4000    5.2330 C.ar   25  TRP25       0.0191
     33  CZ3      -15.2030   17.2980    6.4030 C.ar   25  TRP25       0.0001
     34  CH2      -15.1650   15.9430    6.1780 C.ar   25  TRP25       0.0015
     35  N        -13.0310   22.3240    2.1920 N.am   26  ARG26      -0.1980
     36  CA       -12.8350   23.7400    1.9490 C.3    26  ARG26       0.1597
     37  C        -14.1220   24.4880    2.2470 C.2    26  ARG26       0.2287
     38  O        -14.1020   25.5130    2.9050 O.2    26  ARG26      -0.2864
     39  CB       -12.3530   23.9940    0.5130 C.3    26  ARG26       0.0334
     40  CG       -11.8890   25.4010    0.2590 C.3    26  ARG26       0.0492
     41  CD       -11.1520   25.6080   -1.0710 C.3    26  ARG26       0.2205
     42  NE        -9.7240   25.4110   -0.9190 N.pl3  26  ARG26      -0.0865
     43  CZ        -9.0180   24.4180   -1.4450 C.cat  26  ARG26       0.5346
     44  NH1       -9.5710   23.5070   -2.2280 N.pl3  26  ARG26       0.1354
     45  NH2       -7.7340   24.3580   -1.1890 N.pl3  26  ARG26       0.1354
     46  N        -16.4660   23.6290    4.3060 N.3    28  LEU28      -0.1231
     47  CA       -16.5320   23.6080    5.7670 C.3    28  LEU28       0.1693
     48  C        -15.6900   24.7610    6.3890 C.2    28  LEU28       0.2593
     49  O        -16.1930   25.5720    7.1750 O.2    28  LEU28      -0.2718
     50  CB       -16.0270   22.2400    6.2930 C.3    28  LEU28       0.0284
     51  CG       -16.2520   22.0860    7.7970 C.3    28  LEU28       0.0019
     52  CD1      -17.7460   22.1910    8.0620 C.3    28  LEU28       0.0001
     53  CD2      -15.6870   20.8020    8.3620 C.3    28  LEU28       0.0001
     54  N        -14.4340   24.8570    5.9880 N.am   29  GLY29      -0.1942
     55  CA       -13.5400   25.9550    6.4770 C.3    29  GLY29       0.2014
     56  C        -14.1700   27.3160    6.2930 C.2    29  GLY29       0.2638
     57  O        -14.1800   28.1390    7.2030 O.2    29  GLY29      -0.2714
     58  N        -14.7970   27.5390    5.1430 N.am   30  TYR30      -0.1973
     59  CA       -15.3830   28.8510    4.8870 C.3    30  TYR30       0.1639
     60  C        -16.5420   29.0960    5.7920 C.2    30  TYR30       0.2290
     61  O        -16.7080   30.2000    6.3630 O.2    30  TYR30      -0.2864
     62  CB       -15.8000   28.9910    3.4170 C.3    30  TYR30       0.0560
     63  CG       -14.6930   29.4850    2.5000 C.ar   30  TYR30      -0.0198
     64  CD1      -13.7220   28.6280    2.0190 C.ar   30  TYR30      -0.0009
     65  CD2      -14.6110   30.8270    2.1310 C.ar   30  TYR30      -0.0009
     66  CE1      -12.6860   29.0870    1.1920 C.ar   30  TYR30       0.0417
     67  CE2      -13.5950   31.2990    1.3010 C.ar   30  TYR30       0.0417
     68  CZ       -12.6320   30.4330    0.8250 C.ar   30  TYR30       0.1957
     69  OH       -11.6150   30.8930   -0.0260 O.3    30  TYR30      -0.2866
     70  N        -17.0970   28.1160    8.7500 N.3    32  LYS32      -0.1245
     71  CA       -16.7240   28.4210   10.1350 C.3    32  LYS32       0.1561
     72  C        -16.1260   29.8350   10.2240 C.2    32  LYS32       0.2260
     73  O        -16.5240   30.6730   11.0580 O.2    32  LYS32      -0.2867
     74  CB       -15.7940   27.3520   10.6460 C.3    32  LYS32       0.0271
     75  CG       -16.4810   25.9970   10.7150 C.3    32  LYS32       0.0035
     76  CD       -15.5210   24.8600   10.9910 C.3    32  LYS32       0.0206
     77  CE       -16.2900   23.5570   11.2230 C.3    32  LYS32       0.1093
     78  NZ       -15.4190   22.4590   11.7420 N.3    32  LYS32      -0.1314
     79  N         -6.3790   37.0330   11.7840 N.3    51  CYS51      -0.1235
     80  CA        -5.7100   35.7930   12.1250 C.3    51  CYS51       0.1677
     81  C         -5.9110   35.3360   13.5740 C.2    51  CYS51       0.2270
     82  O         -5.9910   34.1220   13.8630 O.2    51  CYS51      -0.2867
     83  CB        -4.2490   35.9090   11.8110 C.3    51  CYS51       0.0956
     84  SG        -3.9390   36.0860   10.0600 S.3    51  CYS51      -0.0801
     85  N         -8.6090   35.5060   15.2290 N.3    53  ILE53      -0.1231
     86  CA        -9.9230   34.8510   15.3090 C.3    53  ILE53       0.1678
     87  C         -9.8380   33.3410   14.9600 C.2    53  ILE53       0.2434
     88  O         -9.2780   32.9580   13.9100 O.2    53  ILE53      -0.2733
     89  CB       -10.9150   35.5510   14.3560 C.3    53  ILE53       0.0265
     90  CG1      -11.1830   36.9700   14.8550 C.3    53  ILE53       0.0019
     91  CG2      -12.2520   34.8310   14.3030 C.3    53  ILE53       0.0020
     92  CD1      -11.8130   37.8560   13.7970 C.3    53  ILE53       0.0001
     93  N        -10.2890   32.4730   15.8820 N.am   54  PRO54      -0.2718
     94  CA       -10.3670   31.0280   15.5910 C.3    54  PRO54       0.1535
     95  C        -11.2570   30.7440   14.3510 C.2    54  PRO54       0.2599
     96  O        -12.3160   31.2600   14.2470 O.2    54  PRO54      -0.2715
     97  CB       -11.0310   30.4590   16.8480 C.3    54  PRO54       0.0310
     98  CG       -10.6520   31.4250   17.9360 C.3    54  PRO54       0.0237
     99  CD       -10.6310   32.7870   17.2820 C.3    54  PRO54       0.0939
    100  N        -10.7960   29.9400   13.4250 N.am   55  GLY55      -0.1941
    101  CA       -11.4810   29.6980   12.1690 C.3    55  GLY55       0.2014
    102  C        -11.0370   30.6550   11.0760 C.2    55  GLY55       0.2639
    103  O        -11.5070   30.5720    9.9620 O.2    55  GLY55      -0.2714
    104  N        -10.1580   31.5960   11.3920 N.am   56  ILE56      -0.1963
    105  CA        -9.5890   32.4950   10.3740 C.3    56  ILE56       0.1727
    106  C         -8.0730   32.3910   10.4230 C.2    56  ILE56       0.2617
    107  O         -7.4620   32.6700   11.4490 O.2    56  ILE56      -0.2715
    108  CB       -10.0520   33.9270   10.6360 C.3    56  ILE56       0.0290
    109  CG1      -11.5370   34.0160   10.2940 C.3    56  ILE56       0.0022
    110  CG2       -9.2530   34.9320    9.8210 C.3    56  ILE56       0.0023
    111  CD1      -12.2550   35.2750   10.7250 C.3    56  ILE56       0.0001
    112  N         -7.4860   31.9520    9.3210 N.am   57  GLY57      -0.1940
    113  CA        -6.0330   31.9030    9.1430 C.3    57  GLY57       0.2014
    114  C         -5.5680   32.7880    7.9860 C.2    57  GLY57       0.2639
    115  O         -6.2730   33.7140    7.5580 O.2    57  GLY57      -0.2714
    116  N         -4.3870   32.4970    7.4720 N.am   58  LYS58      -0.1963
    117  CA        -3.6770   33.3920    6.5360 C.3    58  LYS58       0.1728
    118  C         -4.4870   33.6800    5.2580 C.2    58  LYS58       0.2616
    119  O         -4.8910   34.8200    4.9850 O.2    58  LYS58      -0.2715
    120  CB        -2.2900   32.7710    6.2480 C.3    58  LYS58       0.0311
    121  CG        -1.6200   33.1900    4.9480 C.3    58  LYS58       0.0038
    122  CD        -0.3750   32.3390    4.6710 C.3    58  LYS58       0.0206
    123  CE        -0.0500   32.2660    3.1760 C.3    58  LYS58       0.1093
    124  NZ        -0.1320   33.5950    2.4950 N.3    58  LYS58      -0.1314
    125  N         -4.7840   32.6350    4.5020 N.am   59  ARG59      -0.1963
    126  CA        -5.5820   32.7920    3.2690 C.3    59  ARG59       0.1729
    127  C         -6.9150   33.5360    3.4820 C.2    59  ARG59       0.2616
    128  O         -7.2760   34.4540    2.7290 O.2    59  ARG59      -0.2715
    129  CB        -5.7920   31.4200    2.6520 C.3    59  ARG59       0.0348
    130  CG        -4.4630   30.7110    2.3890 C.3    59  ARG59       0.0492
    131  CD        -4.6000   29.3590    1.7280 C.3    59  ARG59       0.2205
    132  NE        -5.1890   29.4360    0.3850 N.pl3  59  ARG59      -0.0865
    133  CZ        -4.5660   29.8540   -0.7210 C.cat  59  ARG59       0.5346
    134  NH1       -3.2970   30.2660   -0.6950 N.pl3  59  ARG59       0.1354
    135  NH2       -5.2320   29.8630   -1.8730 N.pl3  59  ARG59       0.1354
    136  N         -7.6280   33.2170    4.5420 N.am   60  MET60      -0.1977
    137  CA        -8.8870   33.8980    4.7900 C.3    60  MET60       0.1605
    138  C         -8.6490   35.3420    5.1850 C.2    60  MET60       0.2287
    139  O         -9.3750   36.2540    4.7700 O.2    60  MET60      -0.2864
    140  CB        -9.6490   33.1800    5.8950 C.3    60  MET60       0.0413
    141  CG       -11.1380   33.4600    5.9400 C.3    60  MET60       0.0598
    142  SD       -12.1240   32.7110    4.6270 S.3    60  MET60      -0.1393
    143  CE       -11.3380   31.1080    4.4710 C.3    60  MET60       0.0692
    144  N         -8.0090   37.5560    2.0700 N.3    63  LYS63      -0.1245
    145  CA        -9.2730   37.8680    1.4110 C.3    63  LYS63       0.1561
    146  C        -10.0760   38.8220    2.2390 C.2    63  LYS63       0.2260
    147  O        -10.6850   39.7380    1.7080 O.2    63  LYS63      -0.2867
    148  CB       -10.1060   36.6020    1.1650 C.3    63  LYS63       0.0271
    149  CG        -9.3070   35.4470    0.5870 C.3    63  LYS63       0.0035
    150  CD       -10.2030   34.3700   -0.0040 C.3    63  LYS63       0.0206
    151  CE        -9.3910   33.4140   -0.8500 C.3    63  LYS63       0.1093
    152  NZ        -8.4910   32.5140   -0.0630 N.3    63  LYS63      -0.1314
    153  N        -11.6020   37.3800   -6.4710 N.3    75  LYS75      -0.1245
    154  CA       -11.7470   35.9720   -6.8520 C.3    75  LYS75       0.1561
    155  C        -13.1490   35.5750   -7.2920 C.2    75  LYS75       0.2260
    156  O        -13.2970   34.6300   -8.0400 O.2    75  LYS75      -0.2867
    157  CB       -11.2770   35.0410   -5.7510 C.3    75  LYS75       0.0271
    158  CG       -11.2320   33.5970   -6.2260 C.3    75  LYS75       0.0035
    159  CD       -10.4310   32.7470   -5.2690 C.3    75  LYS75       0.0206
    160  CE       -10.0390   31.4260   -5.9100 C.3    75  LYS75       0.1093
    161  NZ        -9.2530   30.6350   -4.9210 N.3    75  LYS75      -0.1314
@<TRIPOS>BOND
     1   156   155    2
     2   155   154    1
     3   154   153    1
     4   154   157    1
     5   158   157    1
     6   158   159    1
     7   160   159    1
     8   160   161    1
     9     8     6    1
    10    17    15   ar
    11    17    19   ar
    12     9    10    1
    13    20    19    1
    14    15    14   ar
    15    10    11    1
    16    10    13    1
    17    12    11    2
    18    19    18   ar
    19     6     7    1
    20     6     5    1
    21     2     1    1
    22     2     5    1
    23     2     3    1
    24    14    13    1
    25    14    16   ar
    26     4     3    2
    27    18    16   ar
    28    44    43    1
    29   135   133    1
    30    43    45    1
    31    43    42    2
    32    41    42    1
    33    41    40    1
    34   151   152    1
    35   151   150    1
    36   133   134    1
    37   133   132    2
    38    69    68    1
    39   150   149    1
    40    40    39    1
    41   132   131    1
    42    39    36    1
    43   149   148    1
    44    68    66   ar
    45    68    67   ar
    46   148   145    1
    47    66    64   ar
    48    67    65   ar
    49   145   144    1
    50   145   146    1
    51   147   146    2
    52   131   130    1
    53    36    35    1
    54    36    37    1
    55    64    63   ar
    56    65    63   ar
    57    35    23   am
    58    37    38    2
    59   130   129    1
    60    21    22    1
    61   124   123    1
    62    63    62    1
    63   129   126    1
    64   128   127    2
    65    27    29   ar
    66    27    26   ar
    67   123   122    1
    68   126   127    1
    69   126   125    1
    70    23    22    1
    71    23    24    2
    72    62    59    1
    73    29    30   ar
    74   127   136   am
    75    22    25    1
    76    25    26    1
    77    26    28   ar
    78    46    47    1
    79   143   142    1
    80    30    28   ar
    81    30    32   ar
    82   125   118   am
    83   136   137    1
    84   142   141    1
    85   122   121    1
    86    28    31   ar
    87   139   138    2
    88   137   138    1
    89   137   140    1
    90    59    58    1
    91    59    60    1
    92   121   120    1
    93   119   118    2
    94    58    56   am
    95    32    34   ar
    96   118   117    1
    97    31    33   ar
    98    47    50    1
    99    47    48    1
   100    60    61    2
   101   140   141    1
   102    54    48   am
   103    54    55    1
   104    34    33   ar
   105   120   117    1
   106    50    51    1
   107    56    55    1
   108    56    57    2
   109    48    49    2
   110   117   116    1
   111   116   114   am
   112   115   114    2
   113    51    52    1
   114    51    53    1
   115   114   113    1
   116    70    71    1
   117   113   112    1
   118   112   106   am
   119   110   108    1
   120   103   102    2
   121    84    83    1
   122    71    72    1
   123    71    74    1
   124    72    73    2
   125   109   108    1
   126   109   111    1
   127   105   106    1
   128   105   108    1
   129   105   104    1
   130   106   107    2
   131    74    75    1
   132    75    76    1
   133    76    77    1
   134   102   104   am
   135   102   101    1
   136    77    78    1
   137    79    80    1
   138    83    80    1
   139    80    81    1
   140   101   100    1
   141   100    95   am
   142    81    82    2
   143    92    90    1
   144    88    87    2
   145    96    95    2
   146    91    89    1
   147    95    94    1
   148    89    90    1
   149    89    86    1
   150    87    86    1
   151    87    93   am
   152    85    86    1
   153    94    93    1
   154    94    97    1
   155    93    99    1
   156    97    98    1
   157    99    98    1
