@<TRIPOS>MOLECULE
tmp/4k4iA01.pdb
 135 128 0 0 0
SMALL
GASTEIGER

@<TRIPOS>ATOM
      1  N        -39.0320   28.3420    1.5340 N.3   137  ARG137     -0.1245
      2  CA       -39.2090   28.1580    2.9130 C.3   137  ARG137      0.1563
      3  C        -40.6250   28.4550    3.2190 C.2   137  ARG137      0.2260
      4  O        -41.2190   29.2420    2.5250 O.2   137  ARG137     -0.2867
      5  CB       -38.3060   29.1120    3.6630 C.3   137  ARG137      0.0307
      6  CG       -36.8530   28.8440    3.3670 C.3   137  ARG137      0.0489
      7  CD       -35.9580   29.6840    4.2520 C.3   137  ARG137      0.2205
      8  NE       -36.0300   29.3500    5.6760 N.pl3 137  ARG137     -0.0865
      9  CZ       -35.4380   28.3040    6.2790 C.cat 137  ARG137      0.5346
     10  NH1      -34.7890   27.3980    5.6260 N.pl3 137  ARG137      0.1354
     11  NH2      -35.5540   28.1330    7.5700 N.pl3 137  ARG137      0.1354
     12  N        -35.8800   20.8320   14.5500 N.3   167  GLY167     -0.1210
     13  CA       -35.2460   21.6510   13.4960 C.3   167  GLY167      0.1956
     14  C        -35.3430   23.1440   13.7800 C.2   167  GLY167      0.2612
     15  O        -35.4720   23.5680   14.9360 O.2   167  GLY167     -0.2717
     16  N        -35.3270   23.9410   12.7160 N.am  168  SER168     -0.1952
     17  CA       -35.4780   25.3890   12.8250 C.3   168  SER168      0.1924
     18  C        -36.7450   25.7780   13.5440 C.2   168  SER168      0.2314
     19  O        -36.8190   26.8400   14.1310 O.2   168  SER168     -0.2863
     20  CB       -35.4460   26.0380   11.4400 C.3   168  SER168      0.2116
     21  OG       -36.3860   25.4630   10.5370 O.3   168  SER168     -0.2180
     22  N        -35.9110   25.7870   17.0630 N.3   171  ARG171     -0.1245
     23  CA       -34.9580   26.8960   17.3400 C.3   171  ARG171      0.1563
     24  C        -35.6220   28.2740   17.1500 C.2   171  ARG171      0.2260
     25  O        -34.9390   29.2310   17.1290 O.2   171  ARG171     -0.2867
     26  CB       -33.7140   26.8140   16.4620 C.3   171  ARG171      0.0307
     27  CG       -33.0490   25.4770   16.5230 C.3   171  ARG171      0.0489
     28  CD       -31.6060   25.5290   16.1610 C.3   171  ARG171      0.2205
     29  NE       -31.3560   25.9900   14.7970 N.pl3 171  ARG171     -0.0865
     30  CZ       -31.5300   25.2800   13.6960 C.cat 171  ARG171      0.5346
     31  NH1      -32.0080   24.0530   13.7300 N.pl3 171  ARG171      0.1354
     32  NH2      -31.2370   25.8150   12.5220 N.pl3 171  ARG171      0.1354
     33  N        -37.3610   25.4500    6.2830 N.3   177  GLY177     -0.1210
     34  CA       -37.1390   24.7110    5.0400 C.3   177  GLY177      0.1956
     35  C        -37.9420   23.4230    4.9300 C.2   177  GLY177      0.2611
     36  O        -38.3860   23.0560    3.8600 O.2   177  GLY177     -0.2717
     37  N        -38.1040   22.7470    6.0500 N.am  178  ASP178     -0.1973
     38  CA       -38.8150   21.4990    6.1690 C.3   178  ASP178      0.1709
     39  C        -39.0860   21.2210    7.6350 C.2   178  ASP178      0.2293
     40  O        -38.2470   21.5360    8.5480 O.2   178  ASP178     -0.2864
     41  CB       -38.0740   20.3100    5.5490 C.3   178  ASP178      0.1436
     42  CG       -36.8690   19.7400    6.3990 C.2   178  ASP178      0.3671
     43  OD1      -36.5950   19.9990    7.5740 O.co2 178  ASP178     -0.2456
     44  OD2      -36.1410   18.8670    5.8590 O.co2 178  ASP178     -0.2456
     45  N        -39.5880   18.7890   10.8130 N.3   180  ASP180     -0.1239
     46  CA       -38.9320   17.6150   11.4480 C.3   180  ASP180      0.1674
     47  C        -39.7530   17.1550   12.6650 C.2   180  ASP180      0.2266
     48  O        -39.8100   17.8700   13.6540 O.2   180  ASP180     -0.2867
     49  CB       -37.5190   17.9780   11.8570 C.3   180  ASP180      0.1410
     50  CG       -36.7290   18.6700   10.7310 C.2   180  ASP180      0.3668
     51  OD1      -36.1450   17.9690    9.8660 O.co2 180  ASP180     -0.2456
     52  OD2      -36.6910   19.9290   10.7260 O.co2 180  ASP180     -0.2456
     53  N        -40.0200   15.0970    7.5820 N.3   241  ASP241     -0.1239
     54  CA       -39.1690   14.1190    8.1790 C.3   241  ASP241      0.1674
     55  C        -39.8410   13.7030    9.5300 C.2   241  ASP241      0.2266
     56  O        -40.2000   14.5300   10.3580 O.2   241  ASP241     -0.2867
     57  CB       -37.7780   14.6670    8.4460 C.3   241  ASP241      0.1410
     58  CG       -37.0190   15.0930    7.1780 C.2   241  ASP241      0.3668
     59  OD1      -37.4550   14.6160    6.0990 O.co2 241  ASP241     -0.2456
     60  OD2      -36.0150   15.9190    7.2540 O.co2 241  ASP241     -0.2456
     61  N        -30.2850   16.0210   18.4790 N.3   256  TYR256     -0.1227
     62  CA       -29.9060   15.8060   17.0930 C.3   256  TYR256      0.1736
     63  C        -30.9170   16.4800   16.1820 C.2   256  TYR256      0.2595
     64  O        -30.5800   17.1980   15.3060 O.2   256  TYR256     -0.2718
     65  CB       -29.8330   14.2890   16.7730 C.3   256  TYR256      0.0548
     66  CG       -29.9920   13.8970   15.3110 C.ar  256  TYR256     -0.0200
     67  CD1      -28.9180   13.9110   14.4620 C.ar  256  TYR256     -0.0009
     68  CD2      -31.1940   13.4400   14.8180 C.ar  256  TYR256     -0.0009
     69  CE1      -29.0290   13.5240   13.1310 C.ar  256  TYR256      0.0417
     70  CE2      -31.3180   13.0490   13.4930 C.ar  256  TYR256      0.0417
     71  CZ       -30.2150   13.0910   12.6600 C.ar  256  TYR256      0.1957
     72  OH       -30.3020   12.7590   11.3230 O.3   256  TYR256     -0.2866
     73  N        -32.1580   16.2290   16.4120 N.am  257  PHE257     -0.1962
     74  CA       -33.1840   16.6810   15.5190 C.3   257  PHE257      0.1771
     75  C        -33.4470   18.1730   15.6300 C.2   257  PHE257      0.2620
     76  O        -33.9020   18.7890   14.6880 O.2   257  PHE257     -0.2715
     77  CB       -34.4630   15.8760   15.8120 C.3   257  PHE257      0.0574
     78  CG       -35.1020   15.3290   14.6000 C.ar  257  PHE257     -0.0200
     79  CD1      -34.3320   14.8800   13.5320 C.ar  257  PHE257     -0.0042
     80  CD2      -36.5160   15.2910   14.4870 C.ar  257  PHE257     -0.0042
     81  CE1      -34.9570   14.3980   12.3820 C.ar  257  PHE257     -0.0003
     82  CE2      -37.1320   14.8100   13.3400 C.ar  257  PHE257     -0.0003
     83  CZ       -36.3630   14.3850   12.2800 C.ar  257  PHE257     -0.0000
     84  N        -33.1560   18.7710   16.7670 N.am  258  THR258     -0.1937
     85  CA       -33.2180   20.2240   16.8890 C.3   258  THR258      0.2028
     86  C        -32.1070   20.8820   16.0970 C.2   258  THR258      0.2643
     87  O        -32.2740   21.9560   15.5340 O.2   258  THR258     -0.2714
     88  CB       -33.1510   20.6170   18.3480 C.3   258  THR258      0.1808
     89  OG1      -34.2880   20.0660   19.0190 O.3   258  THR258     -0.2208
     90  CG2      -33.1590   22.0550   18.5190 C.3   258  THR258      0.0379
     91  N        -30.9610   20.2370   16.0330 N.am  259  GLY259     -0.1939
     92  CA       -29.8090   20.8230   15.3810 C.3   259  GLY259      0.2014
     93  C        -29.3170   22.1000   16.0210 C.2   259  GLY259      0.2640
     94  O        -29.5030   22.2740   17.2120 O.2   259  GLY259     -0.2714
     95  N        -28.6850   22.9940   15.2620 N.am  260  SER260     -0.1935
     96  CA       -28.4340   22.8550   13.8500 C.3   260  SER260      0.2055
     97  C        -27.4000   21.8030   13.5500 C.2   260  SER260      0.2642
     98  O        -26.6570   21.3240   14.4310 O.2   260  SER260     -0.2714
     99  CB       -27.8390   24.1490   13.3000 C.3   260  SER260      0.2130
    100  OG       -26.4930   24.3440   13.8100 O.3   260  SER260     -0.2179
    101  N        -27.2760   21.5430   12.2680 N.am  261  ALA261     -0.1977
    102  CA       -26.2180   20.6790   11.7720 C.3   261  ALA261      0.1597
    103  C        -24.8020   21.0340   12.2670 C.2   261  ALA261      0.2287
    104  O        -24.0780   20.1680   12.8220 O.2   261  ALA261     -0.2864
    105  CB       -26.2670   20.6140   10.2540 C.3   261  ALA261      0.0319
    106  N        -24.5460   20.3230   15.8860 N.3   264  ASN264     -0.1225
    107  CA       -24.4260   18.8790   16.2150 C.3   264  ASN264      0.1785
    108  C        -23.0080   18.3230   15.8990 C.2   264  ASN264      0.2597
    109  O        -22.4630   17.5260   16.6360 O.2   264  ASN264     -0.2718
    110  CB       -25.4260   18.0100   15.4680 C.3   264  ASN264      0.1169
    111  CG       -26.8510   18.2270   15.8580 C.2   264  ASN264      0.2627
    112  OD1      -27.1760   18.9250   16.8020 O.2   264  ASN264     -0.2716
    113  ND2      -27.7310   17.6950   15.0360 N.am  264  ASN264     -0.0877
    114  N        -22.4240   18.7500   14.7920 N.am  265  ARG265     -0.1979
    115  CA       -21.0470   18.3610   14.4630 C.3   265  ARG265      0.1597
    116  C        -20.0230   18.7640   15.5370 C.2   265  ARG265      0.2287
    117  O        -19.1460   17.9770   15.8900 O.2   265  ARG265     -0.2864
    118  CB       -20.5680   19.0430   13.1990 C.3   265  ARG265      0.0334
    119  CG       -21.2830   18.6400   11.9570 C.3   265  ARG265      0.0492
    120  CD       -20.2070   18.6390   10.9020 C.3   265  ARG265      0.2205
    121  NE       -20.6880   19.1550    9.6930 N.pl3 265  ARG265     -0.0865
    122  CZ       -20.0130   19.0760    8.5580 C.cat 265  ARG265      0.5346
    123  NH1      -18.8270   18.4830    8.5180 N.pl3 265  ARG265      0.1354
    124  NH2      -20.5530   19.5830    7.4570 N.pl3 265  ARG265      0.1354
    125  N        -20.4470   16.7600   18.6430 N.3   268  ARG268     -0.1245
    126  CA       -19.9300   15.4380   18.4120 C.3   268  ARG268      0.1563
    127  C        -18.4270   15.4690   18.4260 C.2   268  ARG268      0.2260
    128  O        -17.8190   14.6820   19.1060 O.2   268  ARG268     -0.2867
    129  CB       -20.5130   14.8870   17.0940 C.3   268  ARG268      0.0307
    130  CG       -21.9130   14.3840   17.2760 C.3   268  ARG268      0.0489
    131  CD       -22.6330   13.9750   16.0030 C.3   268  ARG268      0.2205
    132  NE       -24.0740   13.8950   16.2680 N.pl3 268  ARG268     -0.0865
    133  CZ       -24.8810   13.0120   15.7120 C.cat 268  ARG268      0.5346
    134  NH1      -24.4540   12.1440   14.7890 N.pl3 268  ARG268      0.1354
    135  NH2      -26.1570   13.0210   16.0780 N.pl3 268  ARG268      0.1354
@<TRIPOS>BOND
     1     1     2    1
     2     4     3    2
     3     2     3    1
     4     2     5    1
     5     6     5    1
     6     6     7    1
     7    36    35    2
     8     7     8    1
     9    35    34    1
    10    35    37   am
    11    34    33    1
    12    41    38    1
    13    41    42    1
    14    10     9    1
    15     8     9    2
    16    44    42   ar
    17    37    38    1
    18    59    58   ar
    19    38    39    1
    20     9    11    1
    21    42    43   ar
    22    58    60   ar
    23    58    57    1
    24   124   122    1
    25    53    54    1
    26    39    40    2
    27    54    57    1
    28    54    55    1
    29   123   122    1
    30   122   121    2
    31    55    56    2
    32   121   120    1
    33    51    50   ar
    34   105   102    1
    35    21    20    1
    36    52    50   ar
    37    50    49    1
    38    45    46    1
    39   120   119    1
    40    72    71    1
    41    20    17    1
    42    46    49    1
    43    46    47    1
    44   102   103    1
    45   102   101    1
    46   119   118    1
    47   103   104    2
    48   101    97   am
    49    83    81   ar
    50    83    82   ar
    51    81    79   ar
    52    32    30    1
    53    71    69   ar
    54    71    70   ar
    55    47    48    2
    56    16    17    1
    57    16    14   am
    58    17    18    1
    59    69    67   ar
    60   118   115    1
    61    99   100    1
    62    99    96    1
    63    82    80   ar
    64    70    68   ar
    65    13    14    1
    66    13    12    1
    67    79    78   ar
    68    18    19    2
    69    97    96    1
    70    97    98    2
    71    30    31    1
    72    30    29    2
    73    14    15    2
    74    96    95    1
    75    67    66   ar
    76   115   114    1
    77   115   116    1
    78    80    78   ar
    79    78    77    1
    80    76    75    2
    81   134   133    1
    82   114   108   am
    83    29    28    1
    84    68    66   ar
    85   113   111   am
    86    95    93   am
    87    64    63    2
    88    66    65    1
    89    92    93    1
    90    92    91    1
    91   110   111    1
    92   110   107    1
    93    74    75    1
    94    74    77    1
    95    74    73    1
    96    87    86    2
    97   116   117    2
    98    75    84   am
    99   133   135    1
   100   133   132    2
   101   111   112    2
   102   106   107    1
   103   108   107    1
   104   108   109    2
   105   131   132    1
   106   131   130    1
   107    93    94    2
   108    91    86   am
   109    86    85    1
   110    28    27    1
   111    63    73   am
   112    63    62    1
   113    26    27    1
   114    26    23    1
   115    84    85    1
   116    65    62    1
   117    85    88    1
   118    22    23    1
   119    62    61    1
   120   129   130    1
   121   129   126    1
   122    25    24    2
   123    24    23    1
   124    88    90    1
   125    88    89    1
   126   126   127    1
   127   126   125    1
   128   127   128    2
