@<TRIPOS>MOLECULE
tmp/4k4oA00.pdb
 139 131 0 0 0
SMALL
GASTEIGER

@<TRIPOS>ATOM
      1  N         12.7640    4.1590   10.5510 N.3    28  ILE28      -0.1245
      2  CA        13.0630    2.7330   10.3820 C.3    28  ILE28       0.1561
      3  C         14.1070    2.2800   11.4020 C.2    28  ILE28       0.2260
      4  O         13.9080    1.2690   12.0920 O.2    28  ILE28      -0.2867
      5  CB        13.4520    2.3810    8.9220 C.3    28  ILE28       0.0252
      6  CG1       12.2920    2.7080    7.9580 C.3    28  ILE28       0.0019
      7  CG2       13.8620    0.9100    8.8040 C.3    28  ILE28       0.0019
      8  CD1       10.9700    2.0380    8.2850 C.3    28  ILE28       0.0001
      9  N         12.9430    1.4080   14.8960 N.3    31  ASN31      -0.1225
     10  CA        12.4050    0.0600   15.0660 C.3    31  ASN31       0.1785
     11  C         13.5000   -0.9490   15.3760 C.2    31  ASN31       0.2597
     12  O         13.3530   -1.7770   16.2650 O.2    31  ASN31      -0.2718
     13  CB        11.5990   -0.3690   13.8420 C.3    31  ASN31       0.1169
     14  CG        10.2240    0.2610   13.8140 C.2    31  ASN31       0.2627
     15  OD1        9.2770   -0.2740   14.3830 O.2    31  ASN31      -0.2716
     16  ND2       10.1140    1.4130   13.1730 N.am   31  ASN31      -0.0877
     17  N         14.6090   -0.8690   14.6470 N.am   32  SER32      -0.1952
     18  CA        15.7490   -1.7370   14.9200 C.3    32  SER32       0.1924
     19  C         16.3280   -1.4950   16.3110 C.2    32  SER32       0.2314
     20  O         16.6930   -2.4470   17.0070 O.2    32  SER32      -0.2863
     21  CB        16.8280   -1.5550   13.8680 C.3    32  SER32       0.2116
     22  OG        16.3580   -1.9960   12.6170 O.3    32  SER32      -0.2180
     23  N         14.6770   -0.4530   18.9230 N.3    34  ASP34      -0.1225
     24  CA        13.7620   -1.0670   19.8920 C.3    34  ASP34       0.1805
     25  C         14.0300   -2.5650   20.0410 C.2    34  ASP34       0.2597
     26  O         13.9060   -3.1090   21.1330 O.2    34  ASP34      -0.2718
     27  CB        12.2940   -0.8120   19.5380 C.3    34  ASP34       0.1424
     28  CG        11.7900    0.5450   20.0260 C.2    34  ASP34       0.3668
     29  OD1       10.6960    0.9510   19.5890 O.co2  34  ASP34      -0.2456
     30  OD2       12.4730    1.2080   20.8330 O.co2  34  ASP34      -0.2456
     31  N         14.4060   -3.2330   18.9520 N.am   35  GLU35      -0.1979
     32  CA        14.7360   -4.6560   18.9970 C.3    35  GLU35       0.1602
     33  C         16.1030   -4.9120   19.6690 C.2    35  GLU35       0.2287
     34  O         16.3320   -5.9860   20.2370 O.2    35  GLU35      -0.2864
     35  CB        14.6140   -5.2640   17.5930 C.3    35  GLU35       0.0415
     36  CG        14.8340   -6.7730   17.5030 C.3    35  GLU35       0.1163
     37  CD        13.8270   -7.6290   18.2750 C.2    35  GLU35       0.3649
     38  OE1       12.9110   -7.1010   18.9490 O.co2  35  GLU35      -0.2457
     39  OE2       13.9760   -8.8700   18.2100 O.co2  35  GLU35      -0.2457
     40  N         17.9850   -0.9050    5.7000 N.3    56  VAL56      -0.1231
     41  CA        18.3000   -1.0510    7.1180 C.3    56  VAL56       0.1692
     42  C         18.1910   -2.5310    7.4820 C.2    56  VAL56       0.2592
     43  O         17.1610   -3.1670    7.2290 O.2    56  VAL56      -0.2718
     44  CB        17.3570   -0.2180    8.0120 C.3    56  VAL56       0.0266
     45  CG1       17.7420   -0.3530    9.4860 C.3    56  VAL56       0.0020
     46  CG2       17.3700    1.2470    7.5930 C.3    56  VAL56       0.0020
     47  N         19.2610   -3.0680    8.0640 N.am   57  ILE57      -0.1966
     48  CA        19.3460   -4.4810    8.4210 C.3    57  ILE57       0.1727
     49  C         19.5820   -4.6070    9.9190 C.2    57  ILE57       0.2616
     50  O         20.4840   -3.9660   10.4530 O.2    57  ILE57      -0.2715
     51  CB        20.5370   -5.1590    7.6980 C.3    57  ILE57       0.0290
     52  CG1       20.4240   -5.0080    6.1730 C.3    57  ILE57       0.0022
     53  CG2       20.6710   -6.6320    8.1050 C.3    57  ILE57       0.0023
     54  CD1       21.7000   -5.3370    5.4210 C.3    57  ILE57       0.0001
     55  N         18.7840   -5.4250   10.6030 N.am   58  ASP58      -0.1971
     56  CA        19.1120   -5.8390   11.9720 C.3    58  ASP58       0.1709
     57  C         19.1690   -7.3570   12.0950 C.2    58  ASP58       0.2293
     58  O         18.6860   -8.0840   11.2160 O.2    58  ASP58      -0.2864
     59  CB        18.1930   -5.1810   13.0320 C.3    58  ASP58       0.1436
     60  CG        16.7790   -5.7730   13.0900 C.2    58  ASP58       0.3671
     61  OD1       15.8180   -4.9660   13.0440 O.co2  58  ASP58      -0.2456
     62  OD2       16.6220   -7.0140   13.2120 O.co2  58  ASP58      -0.2456
     63  N         15.0540  -10.7080   16.2950 N.3    61  ARG61      -0.1231
     64  CA        14.2160  -11.9040   16.1800 C.3    61  ARG61       0.1694
     65  C         13.4860  -12.0180   14.8420 C.2    61  ARG61       0.2593
     66  O         13.0940  -13.1150   14.4420 O.2    61  ARG61      -0.2718
     67  CB        13.1690  -11.9200   17.2870 C.3    61  ARG61       0.0321
     68  CG        13.7110  -12.2200   18.6700 C.3    61  ARG61       0.0489
     69  CD        12.6430  -11.9580   19.7100 C.3    61  ARG61       0.2205
     70  NE        12.3550  -10.5330   19.8460 N.pl3  61  ARG61      -0.0865
     71  CZ        11.4980  -10.0200   20.7200 C.cat  61  ARG61       0.5346
     72  NH1       11.3180   -8.7110   20.7910 N.pl3  61  ARG61       0.1354
     73  NH2       10.8190  -10.8240   21.5310 N.pl3  61  ARG61       0.1354
     74  N         13.2930  -10.8860   14.1630 N.am   62  GLY62      -0.1942
     75  CA        12.4380  -10.8350   12.9800 C.3    62  GLY62       0.2014
     76  C         11.0400  -10.4160   13.3800 C.2    62  GLY62       0.2639
     77  O         10.4780  -10.9500   14.3440 O.2    62  GLY62      -0.2714
     78  N         10.4650   -9.4540   12.6530 N.am   63  ILE63      -0.1963
     79  CA         9.0810   -9.0240   12.9040 C.3    63  ILE63       0.1712
     80  C          8.1570  -10.2450   12.9600 C.2    63  ILE63       0.2458
     81  O          8.2740  -11.1400   12.1170 O.2    63  ILE63      -0.2730
     82  CB         8.5500   -8.0750   11.8000 C.3    63  ILE63       0.0289
     83  CG1        9.4770   -6.8750   11.5810 C.3    63  ILE63       0.0022
     84  CG2        7.1450   -7.5910   12.1370 C.3    63  ILE63       0.0023
     85  CD1        9.1260   -6.0460   10.3580 C.3    63  ILE63       0.0001
     86  N          7.2340  -10.2940   13.9460 N.am   64  PRO64      -0.2727
     87  CA         6.2970  -11.4160   13.9690 C.3    64  PRO64       0.1402
     88  C          5.5280  -11.5620   12.6530 C.2    64  PRO64       0.2269
     89  O          5.0850  -10.5650   12.0630 O.2    64  PRO64      -0.2865
     90  CB         5.3510  -11.0470   15.1110 C.3    64  PRO64       0.0296
     91  CG         6.2130  -10.2680   16.0450 C.3    64  PRO64       0.0237
     92  CD         7.0720   -9.4350   15.1320 C.3    64  PRO64       0.0939
     93  N          2.3230   -3.8950   10.4250 N.3    79  VAL79      -0.1231
     94  CA         3.4250   -2.9750   10.7380 C.3    79  VAL79       0.1692
     95  C          3.5970   -1.9040    9.6590 C.2    79  VAL79       0.2592
     96  O          3.8450   -0.7390    9.9720 O.2    79  VAL79      -0.2718
     97  CB         4.7480   -3.7530   10.9710 C.3    79  VAL79       0.0266
     98  CG1        5.9670   -2.8370   10.9480 C.3    79  VAL79       0.0020
     99  CG2        4.6790   -4.5120   12.2900 C.3    79  VAL79       0.0020
    100  N          3.4360   -2.2930    8.3970 N.am   80  PHE80      -0.1976
    101  CA         3.6660   -1.3680    7.2870 C.3    80  PHE80       0.1639
    102  C          2.4230   -0.7150    6.6940 C.2    80  PHE80       0.2290
    103  O          2.5330    0.2640    5.9720 O.2    80  PHE80      -0.2864
    104  CB         4.5220   -2.0400    6.2060 C.3    80  PHE80       0.0560
    105  CG         5.8750   -2.4200    6.7060 C.ar   80  PHE80      -0.0200
    106  CD1        6.8550   -1.4460    6.9060 C.ar   80  PHE80      -0.0042
    107  CD2        6.1530   -3.7380    7.0530 C.ar   80  PHE80      -0.0042
    108  CE1        8.0950   -1.7890    7.4110 C.ar   80  PHE80      -0.0003
    109  CE2        7.3920   -4.0840    7.5720 C.ar   80  PHE80      -0.0003
    110  CZ         8.3650   -3.1070    7.7460 C.ar   80  PHE80      -0.0000
    111  N          6.8070    3.1940   10.8870 N.3    85  SER85      -0.1217
    112  CA         7.1090    2.2640    9.7890 C.3    85  SER85       0.1889
    113  C          6.1000    2.3780    8.6440 C.2    85  SER85       0.2288
    114  O          6.4750    2.3390    7.4650 O.2    85  SER85      -0.2866
    115  CB         7.1910    0.8200   10.2890 C.3    85  SER85       0.2089
    116  OG         6.0760    0.5180   11.1020 O.3    85  SER85      -0.2183
    117  N         13.4750  -15.7790    9.9780 N.3   101  LYS101     -0.1245
    118  CA        12.8500  -16.3140   11.1930 C.3   101  LYS101      0.1561
    119  C         12.5490  -17.8000   11.0030 C.2   101  LYS101      0.2260
    120  O         12.0160  -18.1960    9.9620 O.2   101  LYS101     -0.2867
    121  CB        11.5380  -15.5550   11.4610 C.3   101  LYS101      0.0271
    122  CG        11.0160  -15.5650   12.8880 C.3   101  LYS101      0.0035
    123  CD         9.8960  -14.5410   13.0090 C.3   101  LYS101      0.0206
    124  CE         9.4250  -14.3340   14.4390 C.3   101  LYS101      0.1093
    125  NZ        10.3950  -13.5720   15.2590 N.3   101  LYS101     -0.1314
    126  N         15.4950   -8.6500   10.6350 N.3   130  THR130     -0.1218
    127  CA        14.6160   -7.9410    9.7120 C.3   130  THR130      0.1862
    128  C         15.4390   -7.0230    8.8230 C.2   130  THR130      0.2287
    129  O         16.3350   -6.3190    9.3090 O.2   130  THR130     -0.2866
    130  CB        13.5870   -7.1010   10.4840 C.3   130  THR130      0.1770
    131  OG1       12.8560   -7.9470   11.3780 O.3   130  THR130     -0.2211
    132  CG2       12.6210   -6.4010    9.5310 C.3   130  THR130      0.0375
    133  N         14.6380   -4.0020    5.9710 N.3   132  VAL132     -0.1245
    134  CA        13.7100   -3.1200    5.2570 C.3   132  VAL132      0.1561
    135  C         14.4770   -2.2700    4.2550 C.2   132  VAL132      0.2260
    136  O         15.4940   -1.6570    4.6060 O.2   132  VAL132     -0.2867
    137  CB        12.9240   -2.2160    6.2290 C.3   132  VAL132      0.0252
    138  CG1       12.1770   -1.1000    5.5040 C.3   132  VAL132      0.0019
    139  CG2       11.9550   -3.0580    7.0510 C.3   132  VAL132      0.0019
@<TRIPOS>BOND
     1   135   136    2
     2   135   134    1
     3   134   133    1
     4   134   137    1
     5    54    52    1
     6   138   137    1
     7    40    41    1
     8   103   102    2
     9    52    51    1
    10   104   105    1
    11   104   101    1
    12   137   139    1
    13   102   101    1
    14   105   106   ar
    15   105   107   ar
    16   106   108   ar
    17   107   109   ar
    18    41    42    1
    19    41    44    1
    20    43    42    2
    21   101   100    1
    22   108   110   ar
    23   114   113    2
    24    42    47   am
    25   109   110   ar
    26    46    44    1
    27    51    53    1
    28    51    48    1
    29     6     8    1
    30     6     5    1
    31    44    45    1
    32    47    48    1
    33   100    95   am
    34    48    49    1
    35   113   112    1
    36     7     5    1
    37   128   129    2
    38   128   127    1
    39     5     2    1
    40   132   130    1
    41    95    96    2
    42    95    94    1
    43   127   130    1
    44   127   126    1
    45   112   115    1
    46   112   111    1
    47    49    50    2
    48    49    55   am
    49   120   119    2
    50   117   118    1
    51   115   116    1
    52    85    83    1
    53     2     1    1
    54     2     3    1
    55    93    94    1
    56   130   131    1
    57    55    56    1
    58    94    97    1
    59    98    97    1
    60    97    99    1
    61   119   118    1
    62   118   121    1
    63    58    57    2
    64     3     4    2
    65   121   122    1
    66    83    82    1
    67    82    84    1
    68    82    79    1
    69    56    57    1
    70    56    59    1
    71    89    88    2
    72    81    80    2
    73    22    21    1
    74    78    79    1
    75    78    76   am
    76    88    87    1
    77   122   123    1
    78    79    80    1
    79    80    86   am
    80    75    76    1
    81    75    74    1
    82   123   124    1
    83    59    60    1
    84    61    60   ar
    85    60    62   ar
    86    16    14   am
    87    76    77    2
    88    14    13    1
    89    14    15    2
    90    13    10    1
    91    21    18    1
    92    86    87    1
    93    86    92    1
    94    87    90    1
    95    74    65   am
    96   124   125    1
    97    66    65    2
    98    17    18    1
    99    17    11   am
   100    65    64    1
   101     9    10    1
   102    18    19    1
   103    10    11    1
   104    90    91    1
   105    92    91    1
   106    11    12    2
   107    64    63    1
   108    64    67    1
   109    19    20    2
   110    67    68    1
   111    36    35    1
   112    36    37    1
   113    35    32    1
   114    39    37   ar
   115    37    38   ar
   116    68    69    1
   117    23    24    1
   118    31    32    1
   119    31    25   am
   120    32    33    1
   121    27    24    1
   122    27    28    1
   123    29    28   ar
   124    33    34    2
   125    69    70    1
   126    70    71    2
   127    24    25    1
   128    28    30   ar
   129    25    26    2
   130    71    72    1
   131    71    73    1
