@<TRIPOS>MOLECULE
tmp/4k4yM00.pdb
 150 139 0 0 0
SMALL
GASTEIGER

@<TRIPOS>ATOM
      1  N         40.5560   64.1070  107.2830 N.3   159  LYS159     -0.1245
      2  CA        39.9260   63.7180  106.0100 C.3   159  LYS159      0.1561
      3  C         40.9560   63.3450  104.9480 C.2   159  LYS159      0.2260
      4  O         41.8280   64.1450  104.6070 O.2   159  LYS159     -0.2867
      5  CB        39.0170   64.8460  105.4870 C.3   159  LYS159      0.0271
      6  CG        37.6110   64.4010  105.0810 C.3   159  LYS159      0.0035
      7  CD        37.6820   63.3210  104.0160 C.3   159  LYS159      0.0206
      8  CE        36.3520   63.0820  103.3080 C.3   159  LYS159      0.1093
      9  NZ        36.3540   61.7530  102.6210 N.3   159  LYS159     -0.1314
     10  N         41.8570   63.2690  101.5150 N.3   161  GLU161     -0.1245
     11  CA        41.4230   64.1050  100.3950 C.3   161  GLU161      0.1567
     12  C         42.5840   64.9560   99.8880 C.2   161  GLU161      0.2260
     13  O         43.5840   65.0940  100.5740 O.2   161  GLU161     -0.2867
     14  CB        40.2770   65.0120  100.8250 C.3   161  GLU161      0.0388
     15  CG        40.7590   66.3120  101.4400 C.3   161  GLU161      0.1160
     16  CD        39.6560   67.0730  102.1680 C.2   161  GLU161      0.3649
     17  OE1       39.9750   67.6790  103.2200 O.co2 161  GLU161     -0.2457
     18  OE2       38.4870   67.0750  101.6910 O.co2 161  GLU161     -0.2457
     19  N         44.6610   68.3850   99.0260 N.3   163  ARG163     -0.1245
     20  CA        44.8140   69.7350   99.5840 C.3   163  ARG163      0.1563
     21  C         45.8240   70.4930   98.7740 C.2   163  ARG163      0.2260
     22  O         46.7600   69.9000   98.2320 O.2   163  ARG163     -0.2867
     23  CB        45.2960   69.7340  101.0510 C.3   163  ARG163      0.0307
     24  CG        44.3740   69.0940  102.0440 C.3   163  ARG163      0.0489
     25  CD        42.9490   69.4910  101.7750 C.3   163  ARG163      0.2205
     26  NE        42.4990   70.5200  102.6910 N.pl3 163  ARG163     -0.0865
     27  CZ        41.4020   71.2360  102.5070 C.cat 163  ARG163      0.5346
     28  NH1       40.6490   71.0370  101.4230 N.pl3 163  ARG163      0.1354
     29  NH2       41.0640   72.1440  103.4130 N.pl3 163  ARG163      0.1354
     30  N         48.5600   74.0150  102.0700 N.3   167  LYS167     -0.1245
     31  CA        47.7820   73.4020  103.1320 C.3   167  LYS167      0.1561
     32  C         48.3910   72.0730  103.5700 C.2   167  LYS167      0.2260
     33  O         48.2460   71.6560  104.7200 O.2   167  LYS167     -0.2867
     34  CB        46.3370   73.2090  102.6900 C.3   167  LYS167      0.0271
     35  CG        45.5390   74.4840  102.7330 C.3   167  LYS167      0.0035
     36  CD        44.0640   74.2070  102.6110 C.3   167  LYS167      0.0206
     37  CE        43.2960   75.5030  102.4410 C.3   167  LYS167      0.1093
     38  NZ        41.8400   75.3160  102.6630 N.3   167  LYS167     -0.1314
     39  N         41.8930   68.6310  107.1130 N.3   174  ARG174     -0.1245
     40  CA        40.5550   68.8860  107.6450 C.3   174  ARG174      0.1563
     41  C         40.0780   67.7930  108.5940 C.2   174  ARG174      0.2260
     42  O         40.1880   66.6090  108.2790 O.2   174  ARG174     -0.2867
     43  CB        39.5640   69.0080  106.4880 C.3   174  ARG174      0.0307
     44  CG        38.1770   68.4490  106.8070 C.3   174  ARG174      0.0489
     45  CD        37.1820   68.6680  105.6680 C.3   174  ARG174      0.2205
     46  NE        37.3630   69.9880  105.1010 N.pl3 174  ARG174     -0.0865
     47  CZ        37.5960   70.2390  103.8270 C.cat 174  ARG174      0.5346
     48  NH1       37.6430   69.2620  102.9410 N.pl3 174  ARG174      0.1354
     49  NH2       37.7690   71.4880  103.4470 N.pl3 174  ARG174      0.1354
     50  N         36.9630   65.8220  110.5220 N.3   176  ILE176     -0.1245
     51  CA        35.5360   65.6050  110.5900 C.3   176  ILE176      0.1561
     52  C         35.2100   64.9420  111.9290 C.2   176  ILE176      0.2260
     53  O         36.1080   64.4610  112.6410 O.2   176  ILE176     -0.2867
     54  CB        35.0320   64.7590  109.4240 C.3   176  ILE176      0.0252
     55  CG1       35.2710   63.2830  109.6870 C.3   176  ILE176      0.0019
     56  CG2       35.7190   65.1830  108.1400 C.3   176  ILE176      0.0019
     57  CD1       36.6040   62.8060  109.2150 C.3   176  ILE176      0.0001
     58  N         33.7800   82.4530  103.5370 N.3   234  TYR234     -0.1227
     59  CA        34.1010   82.3720  104.9490 C.3   234  TYR234      0.1736
     60  C         35.4090   81.6070  105.1430 C.2   234  TYR234      0.2596
     61  O         35.6790   80.6330  104.4310 O.2   234  TYR234     -0.2718
     62  CB        33.0110   81.6560  105.7320 C.3   234  TYR234      0.0548
     63  CG        31.6820   82.3530  105.9020 C.ar  234  TYR234     -0.0200
     64  CD1       31.5310   83.4240  106.7720 C.ar  234  TYR234     -0.0009
     65  CD2       30.5490   81.8480  105.2930 C.ar  234  TYR234     -0.0009
     66  CE1       30.3030   84.0190  106.9560 C.ar  234  TYR234      0.0417
     67  CE2       29.3240   82.4330  105.4770 C.ar  234  TYR234      0.0417
     68  CZ        29.2040   83.5130  106.3050 C.ar  234  TYR234      0.1957
     69  OH        27.9620   84.0760  106.4560 O.3   234  TYR234     -0.2866
     70  N         36.2060   82.0150  106.1210 N.am  235  SER235     -0.1938
     71  CA        37.3220   81.1840  106.5540 C.3   235  SER235      0.2055
     72  C         36.8930   80.3420  107.7650 C.2   235  SER235      0.2644
     73  O         36.5740   80.8720  108.8370 O.2   235  SER235     -0.2714
     74  CB        38.5300   82.0550  106.8970 C.3   235  SER235      0.2130
     75  OG        38.7830   82.9910  105.8590 O.3   235  SER235     -0.2179
     76  N         36.8970   79.0310  107.5860 N.am  236  GLY236     -0.1939
     77  CA        36.4970   78.1070  108.6260 C.3   236  GLY236      0.2014
     78  C         35.2030   78.4900  109.3170 C.2   236  GLY236      0.2639
     79  O         35.1740   78.7200  110.5290 O.2   236  GLY236     -0.2714
     80  N         34.1330   78.5700  108.5390 N.am  237  TYR237     -0.1959
     81  CA        32.8110   78.9220  109.0550 C.3   237  TYR237      0.1771
     82  C         32.3690   78.0360  110.2250 C.2   237  TYR237      0.2619
     83  O         32.0720   78.5430  111.3200 O.2   237  TYR237     -0.2715
     84  CB        31.8160   78.8410  107.9170 C.3   237  TYR237      0.0574
     85  CG        30.3500   79.0890  108.1930 C.ar  237  TYR237     -0.0198
     86  CD1       29.8400   80.3790  108.2680 C.ar  237  TYR237     -0.0009
     87  CD2       29.4520   78.0290  108.2420 C.ar  237  TYR237     -0.0009
     88  CE1       28.4830   80.6080  108.4420 C.ar  237  TYR237      0.0417
     89  CE2       28.0960   78.2460  108.4210 C.ar  237  TYR237      0.0417
     90  CZ        27.6230   79.5380  108.5190 C.ar  237  TYR237      0.1957
     91  OH        26.2850   79.7590  108.7030 O.3   237  TYR237     -0.2866
     92  N         32.3360   76.7230  109.9920 N.am  238  ASP238     -0.1971
     93  CA        31.7670   75.7820  110.9660 C.3   238  ASP238      0.1709
     94  C         32.3920   75.9860  112.3490 C.2   238  ASP238      0.2293
     95  O         31.6850   76.1180  113.3480 O.2   238  ASP238     -0.2864
     96  CB        31.9770   74.3290  110.5040 C.3   238  ASP238      0.1436
     97  CG        31.3870   74.0510  109.1220 C.2   238  ASP238      0.3671
     98  OD1       31.3530   74.9810  108.2770 O.co2 238  ASP238     -0.2456
     99  OD2       30.9830   72.8890  108.8780 O.co2 238  ASP238     -0.2456
    100  N         31.4800   69.3960  112.0020 N.3   289  SER289     -0.1202
    101  CA        31.3150   68.9390  110.6140 C.3   289  SER289      0.2020
    102  C         31.1830   67.4340  110.5520 C.2   289  SER289      0.2619
    103  O         32.1810   66.7180  110.7190 O.2   289  SER289     -0.2717
    104  CB        32.5020   69.3800  109.7590 C.3   289  SER289      0.2103
    105  OG        32.6370   70.7890  109.7660 O.3   289  SER289     -0.2182
    106  N         29.9660   66.9450  110.3190 N.am  290  GLY290     -0.1956
    107  CA        29.7650   65.5040  110.3620 C.3   290  GLY290      0.1869
    108  C         28.6110   65.0510  111.2320 C.2   290  GLY290      0.2309
    109  O         28.2610   63.8750  111.2740 O.2   290  GLY290     -0.2863
    110  N         24.1720   68.9500  109.6660 N.3   294  THR294     -0.1218
    111  CA        25.2080   69.9480  109.4140 C.3   294  THR294      0.1862
    112  C         24.9250   70.8360  108.1780 C.2   294  THR294      0.2287
    113  O         25.0420   72.0470  108.2870 O.2   294  THR294     -0.2866
    114  CB        26.6410   69.3040  109.3430 C.3   294  THR294      0.1770
    115  OG1       27.5440   70.1860  108.6540 O.3   294  THR294     -0.2211
    116  CG2       26.6420   67.9750  108.6560 C.3   294  THR294      0.0375
    117  N         23.8720   74.7020  109.3850 N.3   298  ASN298     -0.1240
    118  CA        24.8290   75.6580  108.8190 C.3   298  ASN298      0.1653
    119  C         24.1550   76.6690  107.8530 C.2   298  ASN298      0.2266
    120  O         24.5290   77.8370  107.7970 O.2   298  ASN298     -0.2867
    121  CB        25.9540   74.9310  108.0710 C.3   298  ASN298      0.1155
    122  CG        27.0930   74.5110  108.9790 C.2   298  ASN298      0.2627
    123  OD1       27.3120   75.1210  110.0120 O.2   298  ASN298     -0.2716
    124  ND2       27.8280   73.4640  108.5890 N.am  298  ASN298     -0.0877
    125  N         28.1950   77.0440  104.3270 N.3   329  ASP329     -0.1239
    126  CA        28.8560   78.3550  104.3770 C.3   329  ASP329      0.1674
    127  C         28.7730   79.0740  103.0260 C.2   329  ASP329      0.2266
    128  O         28.8560   80.3090  102.9370 O.2   329  ASP329     -0.2867
    129  CB        30.3150   78.1900  104.7930 C.3   329  ASP329      0.1410
    130  CG        31.0960   77.3320  103.8260 C.2   329  ASP329      0.3668
    131  OD1       30.8010   76.1260  103.7260 O.co2 329  ASP329     -0.2456
    132  OD2       32.0330   77.8570  103.1940 O.co2 329  ASP329     -0.2456
    133  N         38.8690   83.9230   96.5300 N.3   360  LYS360     -0.1245
    134  CA        40.2790   84.2350   96.8060 C.3   360  LYS360      0.1561
    135  C         40.8250   85.4920   96.1060 C.2   360  LYS360      0.2260
    136  O         41.6930   85.4020   95.2390 O.2   360  LYS360     -0.2867
    137  CB        41.1630   83.0240   96.4660 C.3   360  LYS360      0.0271
    138  CG        41.2440   81.9490   97.5670 C.3   360  LYS360      0.0035
    139  CD        39.9710   81.1080   97.6500 C.3   360  LYS360      0.0206
    140  CE        40.0670   80.0160   98.7100 C.3   360  LYS360      0.1093
    141  NZ        38.8000   79.2290   98.8130 N.3   360  LYS360     -0.1314
    142  N         31.2210   75.8950   93.7300 N.3   376  LYS376     -0.1245
    143  CA        32.4300   75.8300   92.9000 C.3   376  LYS376      0.1561
    144  C         32.1630   76.0090   91.3720 C.2   376  LYS376      0.2260
    145  O         33.0860   75.9290   90.5520 O.2   376  LYS376     -0.2867
    146  CB        33.1940   74.5330   93.1680 C.3   376  LYS376      0.0271
    147  CG        34.7050   74.6640   92.9250 C.3   376  LYS376      0.0035
    148  CD        35.4700   73.4160   93.3880 C.3   376  LYS376      0.0206
    149  CE        36.6060   73.7420   94.3700 C.3   376  LYS376      0.1093
    150  NZ        37.3250   72.5070   94.8280 N.3   376  LYS376     -0.1314
@<TRIPOS>BOND
     1   145   144    2
     2   144   143    1
     3   143   146    1
     4   143   142    1
     5   147   146    1
     6   147   148    1
     7   148   149    1
     8   149   150    1
     9   136   135    2
    10   135   134    1
    11   137   134    1
    12   137   138    1
    13   133   134    1
    14   138   139    1
    15   139   140    1
    16    22    21    2
    17   140   141    1
    18    21    20    1
    19    19    20    1
    20    20    23    1
    21    12    11    1
    22    12    13    2
    23    11    14    1
    24    11    10    1
    25    14    15    1
    26    23    24    1
    27    28    27    1
    28    15    16    1
    29    18    16   ar
    30    25    24    1
    31    25    26    1
    32    30    31    1
    33    16    17   ar
    34    37    36    1
    35    37    38    1
    36    27    26    2
    37    27    29    1
    38    36    35    1
    39     9     8    1
    40    34    35    1
    41    34    31    1
    42   128   127    2
    43    48    47    1
    44   127   126    1
    45    31    32    1
    46   132   130   ar
    47     8     7    1
    48    49    47    1
    49    58    59    1
    50    32    33    2
    51   131   130   ar
    52   130   129    1
    53    47    46    2
    54     7     6    1
    55   125   126    1
    56   126   129    1
    57    61    60    2
    58     4     3    2
    59     3     2    1
    60    59    60    1
    61    59    62    1
    62     6     5    1
    63    46    45    1
    64    60    70   am
    65    65    67   ar
    66    65    63   ar
    67    67    68   ar
    68     5     2    1
    69    45    44    1
    70    62    63    1
    71    75    74    1
    72    63    64   ar
    73     2     1    1
    74    70    71    1
    75    68    69    1
    76    68    66   ar
    77    43    44    1
    78    43    40    1
    79    71    74    1
    80    71    72    1
    81    64    66   ar
    82    39    40    1
    83    76    72   am
    84    76    77    1
    85    40    41    1
    86    72    73    2
    87   120   119    2
    88   119   118    1
    89    84    85    1
    90    84    81    1
    91   121   118    1
    92   121   122    1
    93    56    54    1
    94   112   113    2
    95   112   111    1
    96    85    87   ar
    97    85    86   ar
    98    87    89   ar
    99    86    88   ar
   100    98    97   ar
   101    42    41    2
   102    89    90   ar
   103    88    90   ar
   104    90    91    1
   105    80    81    1
   106    80    78   am
   107   124   122   am
   108    77    78    1
   109   115   114    1
   110   116   114    1
   111   118   117    1
   112    99    97   ar
   113   122   123    2
   114    81    82    1
   115    97    96    1
   116    57    55    1
   117    78    79    2
   118   114   111    1
   119   111   110    1
   120    54    55    1
   121    54    51    1
   122   104   105    1
   123   104   101    1
   124    92    82   am
   125    92    93    1
   126    82    83    2
   127   106   107    1
   128   106   102   am
   129   107   108    1
   130    96    93    1
   131    50    51    1
   132   102   101    1
   133   102   103    2
   134    51    52    1
   135   101   100    1
   136    93    94    1
   137   108   109    2
   138    52    53    2
   139    94    95    2
