@<TRIPOS>MOLECULE
tmp/4k5dA02.pdb
 170 166 0 0 0
SMALL
GASTEIGER

@<TRIPOS>ATOM
      1  N          2.7590    8.9700   34.7280 N.3    38  MET38      -0.1230
      2  CA         3.1500    8.5790   33.3670 C.3    38  MET38       0.1702
      3  C          3.0670    9.7050   32.3080 C.2    38  MET38       0.2592
      4  O          3.9780    9.8280   31.4850 O.2    38  MET38      -0.2718
      5  CB         2.3410    7.3700   32.9130 C.3    38  MET38       0.0401
      6  CG         3.1280    6.4270   32.0140 C.3    38  MET38       0.0596
      7  SD         2.7840    4.7140   32.4810 S.3    38  MET38      -0.1393
      8  CE         3.8700    3.8530   31.3390 C.3    38  MET38       0.0692
      9  N          1.9940   10.5110   32.3440 N.am   39  LEU39      -0.1980
     10  CA         1.7580   11.6030   31.3780 C.3    39  LEU39       0.1596
     11  C          1.3010   12.8900   32.0980 C.2    39  LEU39       0.2287
     12  O          0.1050   13.0630   32.3420 O.2    39  LEU39      -0.2864
     13  CB         0.6940   11.1750   30.3490 C.3    39  LEU39       0.0297
     14  CG         0.6350    9.7090   29.8550 C.3    39  LEU39       0.0022
     15  CD1       -0.7580    9.2970   29.3900 C.3    39  LEU39       0.0001
     16  CD2        1.6730    9.3960   28.7820 C.3    39  LEU39       0.0001
     17  N          1.8720    1.9280   17.6660 N.3   168  SER168     -0.1202
     18  CA         2.6960    2.4760   18.7430 C.3   168  SER168      0.2020
     19  C          4.1820    2.0860   18.5620 C.2   168  SER168      0.2618
     20  O          5.0880    2.8720   18.8600 O.2   168  SER168     -0.2717
     21  CB         2.1420    2.0270   20.0860 C.3   168  SER168      0.2103
     22  OG         2.0030    0.6210   20.1000 O.3   168  SER168     -0.2182
     23  N          4.4140    0.8760   18.0560 N.am  169  GLN169     -0.1979
     24  CA         5.7320    0.4320   17.5810 C.3   169  GLN169      0.1601
     25  C          5.5520   -0.1130   16.1670 C.2   169  GLN169      0.2287
     26  O          4.4640   -0.5380   15.8060 O.2   169  GLN169     -0.2864
     27  CB         6.3180   -0.6640   18.4700 C.3   169  GLN169      0.0394
     28  CG         6.6330   -0.2150   19.8870 C.3   169  GLN169      0.0908
     29  CD         7.1120   -1.3550   20.7630 C.2   169  GLN169      0.2608
     30  OE1        7.8650   -2.2260   20.3160 O.2   169  GLN169     -0.2717
     31  NE2        6.6650   -1.3690   22.0030 N.am  169  GLN169     -0.0878
     32  N          4.6880   -5.0320   16.4990 N.3   172  ARG172     -0.1245
     33  CA         3.9690   -5.4670   17.7350 C.3   172  ARG172      0.1563
     34  C          3.0240   -6.6450   17.4060 C.2   172  ARG172      0.2260
     35  O          2.6090   -6.8020   16.2600 O.2   172  ARG172     -0.2867
     36  CB         3.1630   -4.3300   18.3830 C.3   172  ARG172      0.0307
     37  CG         3.9700   -3.3250   19.1900 C.3   172  ARG172      0.0489
     38  CD         3.1610   -2.5780   20.2420 C.3   172  ARG172      0.2205
     39  NE         3.3440   -3.1260   21.5800 N.pl3 172  ARG172     -0.0865
     40  CZ         2.7320   -2.6440   22.6670 C.cat 172  ARG172      0.5346
     41  NH1        1.9130   -1.6030   22.5700 N.pl3 172  ARG172      0.1354
     42  NH2        2.9370   -3.1870   23.8590 N.pl3 172  ARG172      0.1354
     43  N         -2.2720   -5.4120   25.5500 N.3   188  ALA188     -0.1245
     44  CA        -2.0500   -3.9600   25.3200 C.3   188  ALA188      0.1562
     45  C         -2.4430   -3.4490   23.9290 C.2   188  ALA188      0.2260
     46  O         -2.5580   -2.2450   23.7420 O.2   188  ALA188     -0.2867
     47  CB        -0.6160   -3.5580   25.6300 C.3   188  ALA188      0.0290
     48  N         13.0560   -3.0350   18.5430 N.3   256  PRO256     -0.2116
     49  CA        12.1430   -2.1440   19.2180 C.3   256  PRO256      0.1372
     50  C         12.1420   -0.7930   18.4980 C.2   256  PRO256      0.2244
     51  O         13.1770   -0.1370   18.3860 O.2   256  PRO256     -0.2868
     52  CB        12.7240   -2.0540   20.6380 C.3   256  PRO256      0.0268
     53  CG        14.2010   -2.3040   20.4750 C.3   256  PRO256      0.0207
     54  CD        14.3990   -3.0480   19.1610 C.3   256  PRO256      0.0892
     55  N          9.8120    2.5890   18.2700 N.3   258  VAL258     -0.1245
     56  CA         8.6990    3.4300   18.7120 C.3   258  VAL258      0.1561
     57  C          8.2160    4.2890   17.5840 C.2   258  VAL258      0.2260
     58  O          9.0120    5.0030   16.9900 O.2   258  VAL258     -0.2867
     59  CB         9.1420    4.3840   19.8510 C.3   258  VAL258      0.0252
     60  CG1        8.0880    5.4530   20.1200 C.3   258  VAL258      0.0019
     61  CG2        9.4730    3.5850   21.1180 C.3   258  VAL258      0.0019
     62  N          4.9310    6.1820   17.7000 N.3   260  ASN260     -0.1240
     63  CA         3.8110    7.0650   18.0270 C.3   260  ASN260      0.1653
     64  C          4.1700    8.4290   18.6170 C.2   260  ASN260      0.2266
     65  O          3.2630    9.1640   19.0330 O.2   260  ASN260     -0.2867
     66  CB         2.7570    6.3670   18.9080 C.3   260  ASN260      0.1155
     67  CG         3.3270    5.8470   20.2200 C.2   260  ASN260      0.2627
     68  OD1        2.6220    5.1870   20.9820 O.2   260  ASN260     -0.2716
     69  ND2        4.5960    6.1310   20.4900 N.am  260  ASN260     -0.0877
     70  N         11.4820    5.6140   15.3780 N.3   275  PHE275     -0.1227
     71  CA        12.8920    5.4300   15.7230 C.3   275  PHE275      0.1736
     72  C         13.1190    4.0820   16.4140 C.2   275  PHE275      0.2596
     73  O         12.2200    3.5500   17.0390 O.2   275  PHE275     -0.2718
     74  CB        13.4000    6.5880   16.5790 C.3   275  PHE275      0.0547
     75  CG        12.6350    6.7970   17.8670 C.ar  275  PHE275     -0.0202
     76  CD1       13.0760    6.2030   19.0480 C.ar  275  PHE275     -0.0042
     77  CD2       11.5140    7.6040   17.9120 C.ar  275  PHE275     -0.0042
     78  CE1       12.4140    6.4250   20.2610 C.ar  275  PHE275     -0.0003
     79  CE2       10.8360    7.8070   19.1080 C.ar  275  PHE275     -0.0003
     80  CZ        11.2890    7.2180   20.2820 C.ar  275  PHE275     -0.0000
     81  N         14.3150    3.5230   16.2890 N.am  276  SER276     -0.1938
     82  CA        14.5890    2.1840   16.7910 C.3   276  SER276      0.2055
     83  C         16.0050    2.0730   17.3190 C.2   276  SER276      0.2644
     84  O         16.8940    2.8280   16.9140 O.2   276  SER276     -0.2714
     85  CB        14.3430    1.1140   15.7140 C.3   276  SER276      0.2130
     86  OG        15.2310    1.2360   14.5680 O.3   276  SER276     -0.2179
     87  N         16.1980    1.1220   18.2360 N.am  277  GLY277     -0.1939
     88  CA        17.5120    0.7930   18.7710 C.3   277  GLY277      0.2014
     89  C         17.5990   -0.7070   18.8890 C.2   277  GLY277      0.2639
     90  O         17.3910   -1.4250   17.9240 O.2   277  GLY277     -0.2714
     91  N         17.8940   -1.1810   20.0890 N.am  278  TRP278     -0.1959
     92  CA        17.8640   -2.6060   20.3960 C.3   278  TRP278      0.1771
     93  C         17.4510   -2.7660   21.8320 C.2   278  TRP278      0.2620
     94  O         17.5860   -1.8400   22.6340 O.2   278  TRP278     -0.2715
     95  CB        19.2150   -3.2550   20.1860 C.3   278  TRP278      0.0590
     96  CG        20.3520   -2.5960   20.9330 C.ar  278  TRP278      0.0006
     97  CD1       20.7010   -2.7360   22.3030 C.ar  278  TRP278      0.0946
     98  CD2       21.3380   -1.6650   20.3770 C.ar  278  TRP278      0.0152
     99  NE1       21.8010   -1.9810   22.6020 N.ar  278  TRP278     -0.2442
    100  CE2       22.2360   -1.3050   21.4820 C.ar  278  TRP278      0.0810
    101  CE3       21.5680   -1.1140   19.1000 C.ar  278  TRP278      0.0012
    102  CZ2       23.3030   -0.4260   21.2980 C.ar  278  TRP278      0.0191
    103  CZ3       22.6460   -0.2410   18.9350 C.ar  278  TRP278      0.0001
    104  CH2       23.4940    0.0880   20.0040 C.ar  278  TRP278      0.0015
    105  N         17.0000   -3.9650   22.1820 N.am  279  TYR279     -0.1960
    106  CA        16.3530   -4.1800   23.4740 C.3   279  TYR279      0.1771
    107  C         17.3050   -4.2560   24.6620 C.2   279  TYR279      0.2619
    108  O         18.4590   -4.7000   24.5320 O.2   279  TYR279     -0.2715
    109  CB        15.5590   -5.4710   23.4150 C.3   279  TYR279      0.0574
    110  CG        14.1130   -5.3170   23.0250 C.ar  279  TYR279     -0.0198
    111  CD1       13.6210   -5.9340   21.8810 C.ar  279  TYR279     -0.0009
    112  CD2       13.2170   -4.6010   23.8310 C.ar  279  TYR279     -0.0009
    113  CE1       12.2890   -5.8260   21.5280 C.ar  279  TYR279      0.0417
    114  CE2       11.8780   -4.4970   23.4950 C.ar  279  TYR279      0.0417
    115  CZ        11.4210   -5.1130   22.3340 C.ar  279  TYR279      0.1957
    116  OH        10.0910   -4.9980   21.9850 O.3   279  TYR279     -0.2866
    117  N         16.8010   -3.8370   25.8210 N.am  280  MET280     -0.1977
    118  CA        17.3610   -4.2370   27.1030 C.3   280  MET280      0.1605
    119  C         16.5210   -5.4460   27.5030 C.2   280  MET280      0.2287
    120  O         15.3030   -5.4340   27.3320 O.2   280  MET280     -0.2864
    121  CB        17.2820   -3.1090   28.1320 C.3   280  MET280      0.0413
    122  CG        17.8780   -3.4880   29.5090 C.3   280  MET280      0.0598
    123  SD        18.2200   -2.0600   30.5500 S.3   280  MET280     -0.1393
    124  CE        16.5400   -1.6650   31.0850 C.3   280  MET280      0.0692
    125  N         12.9710   -5.4580   29.2360 N.3   283  GLU283     -0.1245
    126  CA        11.7800   -4.8870   28.6080 C.3   283  GLU283      0.1567
    127  C         10.8450   -6.0240   28.1460 C.2   283  GLU283      0.2260
    128  O          9.6160   -5.9550   28.3130 O.2   283  GLU283     -0.2867
    129  CB        12.1360   -3.9830   27.4280 C.3   283  GLU283      0.0388
    130  CG        12.9590   -2.7350   27.7720 C.3   283  GLU283      0.1160
    131  CD        13.3640   -1.9880   26.4850 C.2   283  GLU283      0.3649
    132  OE1       12.5260   -1.2300   25.9630 O.co2 283  GLU283     -0.2457
    133  OE2       14.4910   -2.1900   25.9680 O.co2 283  GLU283     -0.2457
    134  N         -0.1590   -7.9220   30.5970 N.3   294  ARG294     -0.1245
    135  CA         0.5240   -8.2800   29.3370 C.3   294  ARG294      0.1563
    136  C          0.4310   -9.7940   29.0810 C.2   294  ARG294      0.2260
    137  O         -0.6470  -10.3390   29.2710 O.2   294  ARG294     -0.2867
    138  CB         1.9350   -7.7210   29.2890 C.3   294  ARG294      0.0307
    139  CG         1.9520   -6.1980   29.3490 C.3   294  ARG294      0.0489
    140  CD         1.3810   -5.5290   28.1020 C.3   294  ARG294      0.2205
    141  NE         2.0840   -5.8920   26.8700 N.pl3 294  ARG294     -0.0865
    142  CZ         3.3240   -5.5100   26.5460 C.cat 294  ARG294      0.5346
    143  NH1        4.0490   -4.7530   27.3760 N.pl3 294  ARG294      0.1354
    144  NH2        3.8530   -5.9040   25.3810 N.pl3 294  ARG294      0.1354
    145  N         12.0370    5.7170   35.4650 N.3   369  TRP369     -0.1241
    146  CA        12.1800    4.9910   34.2180 C.3   369  TRP369      0.1605
    147  C         13.5380    4.3920   33.9860 C.2   369  TRP369      0.2264
    148  O         13.6400    3.3280   33.3650 O.2   369  TRP369     -0.2867
    149  CB        11.8380    5.9470   33.0830 C.3   369  TRP369      0.0550
    150  CG        10.3480    6.0540   32.9470 C.ar  369  TRP369      0.0003
    151  CD1        9.4340    6.6020   33.8550 C.ar  369  TRP369      0.0946
    152  CD2        9.5380    5.5660   31.8220 C.ar  369  TRP369      0.0152
    153  NE1        8.1480    6.5000   33.3660 N.ar  369  TRP369     -0.2442
    154  CE2        8.1440    5.8970   32.1460 C.ar  369  TRP369      0.0810
    155  CE3        9.8230    4.9500   30.6220 C.ar  369  TRP369      0.0012
    156  CZ2        7.1020    5.5950   31.2850 C.ar  369  TRP369      0.0191
    157  CZ3        8.7630    4.6450   29.7560 C.ar  369  TRP369      0.0001
    158  CH2        7.4310    4.9500   30.0950 C.ar  369  TRP369      0.0015
    159  N          5.1100   12.9200   23.7850 N.3   397  TYR397     -0.1241
    160  CA         3.9160   12.1220   23.5330 C.3   397  TYR397      0.1605
    161  C          2.8840   12.9270   22.7500 C.2   397  TYR397      0.2264
    162  O          2.9050   14.1560   22.7300 O.2   397  TYR397     -0.2867
    163  CB         3.2790   11.7020   24.8500 C.3   397  TYR397      0.0534
    164  CG         4.1350   10.8110   25.6910 C.ar  397  TYR397     -0.0201
    165  CD1        4.6540   11.2680   26.9070 C.ar  397  TYR397     -0.0009
    166  CD2        4.4270    9.4980   25.2880 C.ar  397  TYR397     -0.0009
    167  CE1        5.4310   10.4480   27.7040 C.ar  397  TYR397      0.0417
    168  CE2        5.2120    8.6690   26.0780 C.ar  397  TYR397      0.0417
    169  CZ         5.7020    9.1540   27.2810 C.ar  397  TYR397      0.1957
    170  OH         6.4710    8.3580   28.0720 O.3   397  TYR397     -0.2866
@<TRIPOS>BOND
     1    86    85    1
     2    70    71    1
     3    85    82    1
     4    71    72    1
     5    71    74    1
     6    26    25    2
     7    25    24    1
     8    35    34    2
     9    81    72   am
    10    81    82    1
    11    72    73    2
    12    32    33    1
    13    74    75    1
    14    82    83    1
    15    84    83    2
    16    58    57    2
    17    83    87   am
    18    34    33    1
    19    24    23    1
    20    24    27    1
    21    57    56    1
    22    17    18    1
    23    62    63    1
    24    33    36    1
    25    75    77   ar
    26    75    76   ar
    27    77    79   ar
    28    90    89    2
    29    63    64    1
    30    63    66    1
    31    23    19   am
    32    87    88    1
    33    55    56    1
    34    36    37    1
    35    51    50    2
    36    27    28    1
    37    50    49    1
    38    48    54    1
    39    48    49    1
    40    19    18    1
    41    19    20    2
    42    64    65    2
    43    56    59    1
    44    18    21    1
    45    88    89    1
    46    89    91   am
    47    66    67    1
    48   103   101   ar
    49   103   104   ar
    50    76    78   ar
    51   101    98   ar
    52    79    80   ar
    53    54    53    1
    54    37    38    1
    55    49    52    1
    56    59    60    1
    57    59    61    1
    58    28    29    1
    59   104   102   ar
    60    21    22    1
    61    91    92    1
    62    95    92    1
    63    95    96    1
    64    67    69   am
    65    67    68    2
    66    38    39    1
    67    78    80   ar
    68    30    29    2
    69    98    96   ar
    70    98   100   ar
    71    92    93    1
    72    53    52    1
    73    29    31   am
    74    96    97   ar
    75   102   100   ar
    76   100    99   ar
    77   113   111   ar
    78   113   115   ar
    79    39    40    2
    80    93   105   am
    81    93    94    2
    82   111   110   ar
    83   116   115    1
    84   105   106    1
    85    97    99   ar
    86   115   114   ar
    87    41    40    1
    88    40    42    1
    89   162   161    2
    90   161   160    1
    91   110   109    1
    92   110   112   ar
    93   109   106    1
    94   106   107    1
    95   114   112   ar
    96   160   159    1
    97   160   163    1
    98    46    45    2
    99    45    44    1
   100   108   107    2
   101   107   117   am
   102   163   164    1
   103   166   164   ar
   104   166   168   ar
   105    44    43    1
   106    44    47    1
   107   144   142    1
   108   164   165   ar
   109   117   118    1
   110   132   131   ar
   111   133   131   ar
   112   168   169   ar
   113   131   130    1
   114   142   141    2
   115   142   143    1
   116   141   140    1
   117   165   167   ar
   118   118   119    1
   119   118   121    1
   120   169   167   ar
   121   169   170    1
   122   120   119    2
   123   129   130    1
   124   129   126    1
   125   140   139    1
   126   121   122    1
   127   127   128    2
   128   127   126    1
   129   126   125    1
   130    16    14    1
   131   136   137    2
   132   136   135    1
   133   138   135    1
   134   138   139    1
   135   135   134    1
   136    15    14    1
   137   122   123    1
   138   157   158   ar
   139   157   155   ar
   140    14    13    1
   141   158   156   ar
   142    13    10    1
   143   123   124    1
   144   155   152   ar
   145   156   154   ar
   146     8     7    1
   147    10    11    1
   148    10     9    1
   149     4     3    2
   150   152   154   ar
   151   152   150   ar
   152     6     7    1
   153     6     5    1
   154    11    12    2
   155   154   153   ar
   156     3     9   am
   157     3     2    1
   158     5     2    1
   159   150   149    1
   160   150   151   ar
   161   149   146    1
   162   148   147    2
   163   153   151   ar
   164     2     1    1
   165   147   146    1
   166   146   145    1
