@<TRIPOS>MOLECULE
tmp/4k5fB03.pdb
 181 177 0 0 0
SMALL
GASTEIGER

@<TRIPOS>ATOM
      1  N         17.9310   12.3130   47.4100 N.3    38  MET38      -0.1230
      2  CA        17.8460   11.6700   48.7420 C.3    38  MET38       0.1702
      3  C         17.4500   12.6420   49.8880 C.2    38  MET38       0.2592
      4  O         16.5810   12.3080   50.6920 O.2    38  MET38      -0.2718
      5  CB        19.1720   10.9510   49.0490 C.3    38  MET38       0.0401
      6  CG        19.1530   10.0420   50.2570 C.3    38  MET38       0.0596
      7  SD        18.7120    8.3600   49.8030 S.3    38  MET38      -0.1393
      8  CE        20.3130    7.7410   49.3150 C.3    38  MET38       0.0692
      9  N         18.0850   13.8240   49.9630 N.am   39  LEU39      -0.1980
     10  CA        17.7250   14.8640   50.9660 C.3    39  LEU39       0.1596
     11  C         17.4230   16.2350   50.3330 C.2    39  LEU39       0.2287
     12  O         18.3330   17.0380   50.1320 O.2    39  LEU39      -0.2864
     13  CB        18.8300   15.0290   52.0290 C.3    39  LEU39       0.0297
     14  CG        19.6050   13.8140   52.5460 C.3    39  LEU39       0.0022
     15  CD1       20.8530   14.2490   53.3020 C.3    39  LEU39       0.0001
     16  CD2       18.7280   12.9100   53.4030 C.3    39  LEU39       0.0001
     17  N          7.1870    5.5390   53.4550 N.3   108  CYS108     -0.1235
     18  CA         6.8750    4.3090   54.2080 C.3   108  CYS108      0.1677
     19  C          5.8050    3.4350   53.6090 C.2   108  CYS108      0.2270
     20  O          4.6190    3.8250   53.4790 O.2   108  CYS108     -0.2867
     21  CB         6.5140    4.5890   55.6750 C.3   108  CYS108      0.0956
     22  SG         6.1470    3.0950   56.6160 S.3   108  CYS108     -0.0801
     23  N         20.1040    3.7020   64.0960 N.3   171  GLN171     -0.1245
     24  CA        19.0450    2.8010   64.5820 C.3   171  GLN171      0.1566
     25  C         19.4580    2.3360   65.9820 C.2   171  GLN171      0.2260
     26  O         20.6880    2.3240   66.3250 O.2   171  GLN171     -0.2867
     27  CB        18.7420    1.5980   63.6480 C.3   171  GLN171      0.0367
     28  CG        18.5130    1.8680   62.1420 C.3   171  GLN171      0.0905
     29  CD        18.5220    0.5810   61.2500 C.2   171  GLN171      0.2608
     30  OE1       18.2070   -0.5480   61.6920 O.2   171  GLN171     -0.2717
     31  NE2       18.8570    0.7620   59.9820 N.am  171  GLN171     -0.0878
     32  N         22.0910   -1.9680   65.4760 N.3   174  ARG174     -0.1245
     33  CA        22.8310   -1.9390   64.2220 C.3   174  ARG174      0.1563
     34  C         24.1590   -2.5780   64.5030 C.2   174  ARG174      0.2260
     35  O         24.5950   -2.5220   65.6310 O.2   174  ARG174     -0.2867
     36  CB        23.0740   -0.4830   63.8140 C.3   174  ARG174      0.0307
     37  CG        22.2250   -0.0320   62.6560 C.3   174  ARG174      0.0489
     38  CD        22.8410    1.0750   61.8210 C.3   174  ARG174      0.2205
     39  NE        22.5030    0.8350   60.4280 N.pl3 174  ARG174     -0.0865
     40  CZ        22.7570    1.6630   59.4330 C.cat 174  ARG174      0.5346
     41  NH1       23.3640    2.8220   59.6700 N.pl3 174  ARG174      0.1354
     42  NH2       22.3950    1.3330   58.1990 N.pl3 174  ARG174      0.1354
     43  N         13.7380   -3.4200   63.5260 N.3   258  PRO258     -0.2116
     44  CA        14.2180   -2.2250   62.8820 C.3   258  PRO258      0.1372
     45  C         13.7360   -1.0150   63.6920 C.2   258  PRO258      0.2244
     46  O         12.5090   -0.8360   63.8880 O.2   258  PRO258     -0.2868
     47  CB        13.5860   -2.3070   61.4850 C.3   258  PRO258      0.0268
     48  CG        12.2700   -2.9950   61.7390 C.3   258  PRO258      0.0207
     49  CD        12.5000   -3.9390   62.9060 C.3   258  PRO258      0.0892
     50  N         14.3740    3.1040   63.9400 N.3   260  VAL260     -0.1245
     51  CA        15.0160    4.3280   63.4130 C.3   260  VAL260      0.1561
     52  C         15.1840    5.3030   64.5630 C.2   260  VAL260      0.2260
     53  O         14.2540    5.5470   65.2800 O.2   260  VAL260     -0.2867
     54  CB        14.2260    4.8910   62.2130 C.3   260  VAL260      0.0252
     55  CG1       14.6490    6.3150   61.8400 C.3   260  VAL260      0.0019
     56  CG2       14.3310    3.9130   61.0200 C.3   260  VAL260      0.0019
     57  N         17.1960    8.4510   64.3510 N.3   262  ASN262     -0.1225
     58  CA        17.8800    9.6770   63.9660 C.3   262  ASN262      0.1785
     59  C         16.9810   10.7290   63.3790 C.2   262  ASN262      0.2597
     60  O         17.4870   11.7420   62.9360 O.2   262  ASN262     -0.2718
     61  CB        19.1110    9.4060   63.0790 C.3   262  ASN262      0.1169
     62  CG        18.7700    8.7340   61.7480 C.2   262  ASN262      0.2627
     63  OD1       17.6060    8.4170   61.4180 O.2   262  ASN262     -0.2716
     64  ND2       19.8030    8.5180   60.9680 N.am  262  ASN262     -0.0877
     65  N         15.6500   10.5190   63.4570 N.am  263  MET263     -0.1979
     66  CA        14.7160   11.4450   62.8640 C.3   263  MET263      0.1605
     67  C         14.0800   12.3910   63.8660 C.2   263  MET263      0.2287
     68  O         14.2080   12.1920   65.0810 O.2   263  MET263     -0.2864
     69  CB        13.7000   10.7100   61.9700 C.3   263  MET263      0.0413
     70  CG        14.4350   10.1230   60.7660 C.3   263  MET263      0.0598
     71  SD        13.2780    9.3790   59.6490 S.3   263  MET263     -0.1393
     72  CE        12.9290   10.7570   58.5410 C.3   263  MET263      0.0692
     73  N         11.6450    5.1060   66.7560 N.3   277  PHE277     -0.1227
     74  CA        10.4200    4.3610   66.4590 C.3   277  PHE277      0.1736
     75  C         10.8050    3.0320   65.7810 C.2   277  PHE277      0.2596
     76  O         11.9010    2.8980   65.2090 O.2   277  PHE277     -0.2718
     77  CB         9.4510    5.1770   65.6040 C.3   277  PHE277      0.0547
     78  CG        10.0550    5.7200   64.3250 C.ar  277  PHE277     -0.0202
     79  CD1        9.9380    5.0280   63.1420 C.ar  277  PHE277     -0.0042
     80  CD2       10.7190    6.9590   64.3150 C.ar  277  PHE277     -0.0042
     81  CE1       10.4700    5.5410   61.9800 C.ar  277  PHE277     -0.0003
     82  CE2       11.2600    7.4790   63.1430 C.ar  277  PHE277     -0.0003
     83  CZ        11.1350    6.7750   61.9780 C.ar  277  PHE277     -0.0000
     84  N          9.9310    2.0530   65.8870 N.am  278  SER278     -0.1938
     85  CA        10.3060    0.7100   65.4960 C.3   278  SER278      0.2055
     86  C          9.1140    0.0020   64.9280 C.2   278  SER278      0.2644
     87  O          7.9520    0.3190   65.2680 O.2   278  SER278     -0.2714
     88  CB        10.9500   -0.0700   66.6740 C.3   278  SER278      0.2130
     89  OG         9.9660   -0.5600   67.5720 O.3   278  SER278     -0.2179
     90  N          9.3970   -0.9110   63.9990 N.am  279  GLY279     -0.1939
     91  CA         8.3540   -1.7010   63.3750 C.3   279  GLY279      0.2014
     92  C          8.7640   -3.1510   63.2450 C.2   279  GLY279      0.2639
     93  O          9.2740   -3.7610   64.1940 O.2   279  GLY279     -0.2714
     94  N          8.4750   -3.7350   62.0890 N.am  280  TRP280     -0.1959
     95  CA         9.1330   -4.9780   61.7110 C.3   280  TRP280      0.1771
     96  C          9.6500   -4.8940   60.2900 C.2   280  TRP280      0.2620
     97  O          9.2510   -4.0470   59.5050 O.2   280  TRP280     -0.2715
     98  CB         8.2280   -6.1800   61.8710 C.3   280  TRP280      0.0590
     99  CG         6.8890   -6.0090   61.2140 C.ar  280  TRP280      0.0006
    100  CD1        6.5600   -6.2110   59.8690 C.ar  280  TRP280      0.0946
    101  CD2        5.6340   -5.5890   61.8550 C.ar  280  TRP280      0.0152
    102  NE1        5.2200   -5.9510   59.6530 N.ar  280  TRP280     -0.2442
    103  CE2        4.6130   -5.5860   60.8040 C.ar  280  TRP280      0.0810
    104  CE3        5.2670   -5.2450   63.1510 C.ar  280  TRP280      0.0012
    105  CZ2        3.2860   -5.2530   61.0700 C.ar  280  TRP280      0.0191
    106  CZ3        3.9280   -4.9100   63.4100 C.ar  280  TRP280      0.0001
    107  CH2        2.9590   -4.9310   62.3960 C.ar  280  TRP280      0.0015
    108  N         10.5230   -5.8080   59.9390 N.am  281  TYR281     -0.1960
    109  CA        11.2120   -5.6890   58.6860 C.3   281  TYR281      0.1771
    110  C         10.3900   -6.1940   57.5350 C.2   281  TYR281      0.2619
    111  O          9.5930   -7.1270   57.7020 O.2   281  TYR281     -0.2715
    112  CB        12.4520   -6.5260   58.7470 C.3   281  TYR281      0.0574
    113  CG        13.6780   -5.7940   59.1790 C.ar  281  TYR281     -0.0198
    114  CD1       14.3060   -6.0940   60.3920 C.ar  281  TYR281     -0.0009
    115  CD2       14.2780   -4.8710   58.3390 C.ar  281  TYR281     -0.0009
    116  CE1       15.4790   -5.4690   60.7490 C.ar  281  TYR281      0.0417
    117  CE2       15.4550   -4.2480   58.6920 C.ar  281  TYR281      0.0417
    118  CZ        16.0450   -4.5580   59.8910 C.ar  281  TYR281      0.1957
    119  OH        17.2010   -3.9170   60.1960 O.3   281  TYR281     -0.2866
    120  N         10.5940   -5.5420   56.3820 N.am  282  MET282     -0.1977
    121  CA        10.3690   -6.1110   55.0430 C.3   282  MET282      0.1605
    122  C         11.6410   -6.8190   54.6350 C.2   282  MET282      0.2287
    123  O         12.7700   -6.2800   54.7640 O.2   282  MET282     -0.2864
    124  CB        10.0420   -5.0310   53.9880 C.3   282  MET282      0.0413
    125  CG         9.4680   -5.5980   52.6580 C.3   282  MET282      0.0598
    126  SD         8.6160   -4.4090   51.5840 S.3   282  MET282     -0.1393
    127  CE        10.0820   -3.4420   51.1360 C.3   282  MET282      0.0692
    128  N         14.7470   -5.3100   52.8970 N.3   285  GLU285     -0.1245
    129  CA        15.6390   -4.3670   53.5830 C.3   285  GLU285      0.1567
    130  C         16.9540   -5.0390   54.0140 C.2   285  GLU285      0.2260
    131  O         18.0140   -4.4230   53.9080 O.2   285  GLU285     -0.2867
    132  CB        14.9510   -3.7050   54.7560 C.3   285  GLU285      0.0388
    133  CG        13.5990   -3.0040   54.4130 C.3   285  GLU285      0.1160
    134  CD        12.9490   -2.4610   55.6950 C.2   285  GLU285      0.3649
    135  OE1       13.4780   -1.4460   56.2140 O.co2 285  GLU285     -0.2457
    136  OE2       11.9410   -3.0320   56.2090 O.co2 285  GLU285     -0.2457
    137  N         19.3390   -4.8720   50.4240 N.3   289  ARG289     -0.1231
    138  CA        20.1540   -3.6910   50.7660 C.3   289  ARG289      0.1694
    139  C         21.2750   -4.0330   51.7670 C.2   289  ARG289      0.2592
    140  O         22.4770   -3.8920   51.4470 O.2   289  ARG289     -0.2718
    141  CB        19.2720   -2.5310   51.3100 C.3   289  ARG289      0.0321
    142  CG        18.0520   -2.1840   50.4380 C.3   289  ARG289      0.0489
    143  CD        18.4010   -1.8320   48.9710 C.3   289  ARG289      0.2205
    144  NE        19.4600   -0.8160   48.8760 N.pl3 289  ARG289     -0.0865
    145  CZ        19.3260    0.4720   49.2270 C.cat 289  ARG289      0.5346
    146  NH1       18.1550    0.9380   49.6320 N.pl3 289  ARG289      0.1354
    147  NH2       20.3680    1.3060   49.1360 N.pl3 289  ARG289      0.1354
    148  N         20.8860   -4.4820   52.9640 N.am  290  ASP290     -0.1974
    149  CA        21.8770   -4.8010   53.9990 C.3   290  ASP290      0.1709
    150  C         22.9020   -5.8390   53.5840 C.2   290  ASP290      0.2293
    151  O         24.0890   -5.6660   53.8510 O.2   290  ASP290     -0.2864
    152  CB        21.2030   -5.1470   55.3310 C.3   290  ASP290      0.1436
    153  CG        20.3100   -4.0260   55.8070 C.2   290  ASP290      0.3671
    154  OD1       20.5700   -2.8780   55.4130 O.co2 290  ASP290     -0.2456
    155  OD2       19.3210   -4.2760   56.5270 O.co2 290  ASP290     -0.2456
    156  N         10.7930    5.4820   46.7020 N.3   371  TRP371     -0.1241
    157  CA        11.0330    4.7430   47.9320 C.3   371  TRP371      0.1605
    158  C         10.1100    3.5550   48.1750 C.2   371  TRP371      0.2264
    159  O         10.5190    2.5240   48.7210 O.2   371  TRP371     -0.2867
    160  CB        11.0600    5.7050   49.1330 C.3   371  TRP371      0.0550
    161  CG        12.3760    6.4340   49.2840 C.ar  371  TRP371      0.0003
    162  CD1       12.9850    7.3230   48.3820 C.ar  371  TRP371      0.0946
    163  CD2       13.3020    6.3350   50.4080 C.ar  371  TRP371      0.0152
    164  NE1       14.2010    7.7440   48.8630 N.ar  371  TRP371     -0.2442
    165  CE2       14.4410    7.2020   50.0840 C.ar  371  TRP371      0.0810
    166  CE3       13.2930    5.6570   51.6300 C.ar  371  TRP371      0.0012
    167  CZ2       15.5190    7.3480   50.9530 C.ar  371  TRP371      0.0191
    168  CZ3       14.3760    5.8260   52.5030 C.ar  371  TRP371      0.0001
    169  CH2       15.4700    6.6420   52.1600 C.ar  371  TRP371      0.0015
    170  N         14.3250   14.6020   58.4770 N.3   399  TYR399     -0.1241
    171  CA        15.7420   14.3110   58.6910 C.3   399  TYR399      0.1605
    172  C         16.4090   15.3940   59.4710 C.2   399  TYR399      0.2264
    173  O         15.8680   16.4750   59.5900 O.2   399  TYR399     -0.2867
    174  CB        16.4650   14.1410   57.3510 C.3   399  TYR399      0.0534
    175  CG        15.8160   13.0640   56.5750 C.ar  399  TYR399     -0.0201
    176  CD1       14.8110   13.3670   55.6190 C.ar  399  TYR399     -0.0009
    177  CD2       16.1260   11.7240   56.8340 C.ar  399  TYR399     -0.0009
    178  CE1       14.1700   12.3550   54.9070 C.ar  399  TYR399      0.0417
    179  CE2       15.5090   10.7090   56.1190 C.ar  399  TYR399      0.0417
    180  CZ        14.5380   11.0230   55.1630 C.ar  399  TYR399      0.1957
    181  OH        13.9260    9.9970   54.4960 O.3   399  TYR399     -0.2866
@<TRIPOS>BOND
     1   156   157    1
     2     1     2    1
     3   157   158    1
     4   157   160    1
     5   158   159    2
     6   162   164   ar
     7   162   161   ar
     8     2     5    1
     9     2     3    1
    10   164   165   ar
    11   144   143    1
    12   144   145    2
    13   143   142    1
    14     5     6    1
    15   160   161    1
    16   147   145    1
    17   145   146    1
    18   161   163   ar
    19     8     7    1
    20     7     6    1
    21     3     9   am
    22     3     4    2
    23     9    10    1
    24   165   163   ar
    25   165   167   ar
    26    12    11    2
    27    11    10    1
    28   163   166   ar
    29   137   138    1
    30   142   141    1
    31   138   141    1
    32   138   139    1
    33   167   169   ar
    34    10    13    1
    35   127   126    1
    36   140   139    2
    37   126   125    1
    38   166   168   ar
    39   139   148   am
    40    13    14    1
    41   169   168   ar
    42    14    15    1
    43    14    16    1
    44   125   124    1
    45   128   129    1
    46   148   149    1
    47    17    18    1
    48    20    19    2
    49   129   130    1
    50   129   132    1
    51   150   151    2
    52   150   149    1
    53    19    18    1
    54   131   130    2
    55   124   121    1
    56   149   152    1
    57    18    21    1
    58   133   132    1
    59   133   134    1
    60   181   180    1
    61   122   123    2
    62   122   121    1
    63   178   180   ar
    64   178   176   ar
    65   121   120    1
    66   180   179   ar
    67   152   153    1
    68   154   153   ar
    69   176   175   ar
    70    21    22    1
    71   134   136   ar
    72   134   135   ar
    73   153   155   ar
    74   179   177   ar
    75   120   110   am
    76   175   177   ar
    77   175   174    1
    78   174   171    1
    79   110   111    2
    80   110   109    1
    81    42    40    1
    82   115   117   ar
    83   115   113   ar
    84   170   171    1
    85    72    71    1
    86   109   112    1
    87   109   108    1
    88   171   172    1
    89   117   118   ar
    90   112   113    1
    91   113   114   ar
    92    40    41    1
    93    40    39    2
    94   172   173    2
    95    97    96    2
    96    71    70    1
    97   102   100   ar
    98   102   103   ar
    99   100    99   ar
   100   118   119    1
   101   118   116   ar
   102   108    96   am
   103    31    29   am
   104    96    95    1
   105   114   116   ar
   106    39    38    1
   107    70    69    1
   108   103   105   ar
   109   103   101   ar
   110    64    62   am
   111    56    54    1
   112   105   107   ar
   113    99   101   ar
   114    99    98    1
   115    29    30    2
   116    29    28    1
   117    63    62    2
   118    47    48    1
   119    47    44    1
   120    95    98    1
   121    95    94    1
   122    48    49    1
   123    62    61    1
   124    38    37    1
   125    55    54    1
   126   101   104   ar
   127    69    66    1
   128    83    81   ar
   129    83    82   ar
   130    81    79   ar
   131    94    92   am
   132    28    27    1
   133    54    51    1
   134   107   106   ar
   135    37    36    1
   136    66    65    1
   137    66    67    1
   138    44    43    1
   139    44    45    1
   140    49    43    1
   141    60    59    2
   142    61    58    1
   143    79    78   ar
   144    82    80   ar
   145   104   106   ar
   146    92    91    1
   147    92    93    2
   148    91    90    1
   149    59    65   am
   150    59    58    1
   151    51    50    1
   152    51    52    1
   153    27    24    1
   154    45    46    2
   155    36    33    1
   156    67    68    2
   157    58    57    1
   158    90    86   am
   159    23    24    1
   160    33    34    1
   161    33    32    1
   162    80    78   ar
   163    78    77    1
   164    34    35    2
   165    52    53    2
   166    24    25    1
   167    86    87    2
   168    86    85    1
   169    76    75    2
   170    85    84    1
   171    85    88    1
   172    77    74    1
   173    75    84   am
   174    75    74    1
   175    25    26    2
   176    74    73    1
   177    88    89    1
