@<TRIPOS>MOLECULE
tmp/4k5hA02.pdb
 165 161 0 0 0
SMALL
GASTEIGER

@<TRIPOS>ATOM
      1  N         19.4520   11.4610   43.8280 N.3    41  LEU41      -0.1245
      2  CA        20.6950   11.0790   43.1320 C.3    41  LEU41       0.1561
      3  C         21.7670   10.6740   44.1400 C.2    41  LEU41       0.2260
      4  O         22.6450   11.4710   44.4390 O.2    41  LEU41      -0.2867
      5  CB        21.2540   12.2490   42.2950 C.3    41  LEU41       0.0270
      6  CG        20.3770   12.8780   41.2070 C.3    41  LEU41       0.0019
      7  CD1       20.9000   14.2210   40.6910 C.3    41  LEU41       0.0001
      8  CD2       20.2300   11.8960   40.0600 C.3    41  LEU41       0.0001
      9  N          8.9580    5.3410   36.9000 N.3   109  CYS109     -0.1235
     10  CA         7.8330    5.5860   36.0190 C.3   109  CYS109      0.1677
     11  C          6.5340    4.8200   36.3540 C.2   109  CYS109      0.2270
     12  O          6.4810    3.5820   36.2930 O.2   109  CYS109     -0.2867
     13  CB         8.2120    5.1990   34.6090 C.3   109  CYS109      0.0956
     14  SG         6.9690    5.5970   33.3580 S.3   109  CYS109     -0.0801
     15  N         17.2900   19.4770   29.2120 N.3   171  SER171     -0.1202
     16  CA        16.8580   18.3660   30.0510 C.3   171  SER171      0.2020
     17  C         15.5800   17.7540   29.4230 C.2   171  SER171      0.2615
     18  O         15.3260   16.5580   29.5340 O.2   171  SER171     -0.2717
     19  CB        16.6090   18.8580   31.4790 C.3   171  SER171      0.2103
     20  OG        15.5040   19.7620   31.5080 O.3   171  SER171     -0.2182
     21  N         14.8090   18.5850   28.7490 N.am  172  GLN172     -0.2032
     22  CA        13.7140   18.0700   27.9150 C.3   172  GLN172      0.1287
     23  C         13.7050   18.8320   26.6360 C.3   172  GLN172      0.2036
     24  O         14.2800   19.9830   26.5270 O.3   172  GLN172     -0.2185
     25  CB        12.3290   18.2410   28.5610 C.3   172  GLN172      0.0340
     26  CG        12.0730   17.6360   29.9540 C.3   172  GLN172      0.0904
     27  CD        10.5880   17.8810   30.4000 C.2   172  GLN172      0.2608
     28  OE1        9.9770   18.8700   30.0560 O.2   172  GLN172     -0.2717
     29  NE2       10.0100   16.9310   31.0720 N.am  172  GLN172     -0.0878
     30  N         11.0230   23.0020   27.1130 N.3   175  ARG175     -0.1245
     31  CA        11.1990   23.5640   28.4350 C.3   175  ARG175      0.1563
     32  C         10.9590   25.0430   28.3310 C.2   175  ARG175      0.2260
     33  O         11.2310   25.6300   27.2980 O.2   175  ARG175     -0.2867
     34  CB        12.6500   23.3900   28.8910 C.3   175  ARG175      0.0307
     35  CG        13.1170   21.9710   29.1260 C.3   175  ARG175      0.0489
     36  CD        13.3990   21.7420   30.6010 C.3   175  ARG175      0.2205
     37  NE        12.2150   21.2660   31.1890 N.pl3 175  ARG175     -0.0865
     38  CZ        11.8780   21.3130   32.4640 C.cat 175  ARG175      0.5346
     39  NH1       12.6080   21.8780   33.4020 N.pl3 175  ARG175      0.1354
     40  NH2       10.7240   20.7740   32.7570 N.pl3 175  ARG175      0.1354
     41  N         13.5010   26.2320   37.3530 N.3   191  ALA191     -0.1245
     42  CA        14.2580   25.0270   37.0730 C.3   191  ALA191      0.1562
     43  C         15.2260   25.1480   35.9060 C.2   191  ALA191      0.2260
     44  O         16.1240   24.3130   35.7860 O.2   191  ALA191     -0.2867
     45  CB        13.3410   23.8530   36.8230 C.3   191  ALA191      0.0290
     46  N          5.9390   15.7010   27.0670 N.3   259  PRO259     -0.2116
     47  CA         7.0360   15.5810   28.0270 C.3   259  PRO259      0.1372
     48  C          8.0930   14.6510   27.4800 C.2   259  PRO259      0.2244
     49  O          7.8750   13.4090   27.3750 O.2   259  PRO259     -0.2868
     50  CB         6.3450   14.9600   29.2500 C.3   259  PRO259      0.0268
     51  CG         5.2890   14.0720   28.6370 C.3   259  PRO259      0.0207
     52  CD         4.8330   14.7720   27.4050 C.3   259  PRO259      0.0892
     53  N         12.0250   13.6230   27.7330 N.3   261  VAL261     -0.1245
     54  CA        13.2510   13.6730   28.5120 C.3   261  VAL261      0.1561
     55  C         14.4250   13.5150   27.5890 C.2   261  VAL261      0.2260
     56  O         14.4770   12.5720   26.8210 O.2   261  VAL261     -0.2867
     57  CB        13.2810   12.5640   29.5770 C.3   261  VAL261      0.0252
     58  CG1       14.6460   12.4540   30.2310 C.3   261  VAL261      0.0019
     59  CG2       12.2280   12.8650   30.6530 C.3   261  VAL261      0.0019
     60  N         18.0120   14.2980   28.6170 N.3   263  ASN263     -0.1225
     61  CA        19.3970   14.3070   29.2040 C.3   263  ASN263      0.1785
     62  C         19.7870   12.9560   29.8570 C.2   263  ASN263      0.2597
     63  O         20.7490   12.8770   30.6060 O.2   263  ASN263     -0.2718
     64  CB        19.5220   15.4620   30.2460 C.3   263  ASN263      0.1169
     65  CG        18.5220   15.3120   31.4180 C.2   263  ASN263      0.2627
     66  OD1       18.5790   16.0660   32.3730 O.2   263  ASN263     -0.2716
     67  ND2       17.5820   14.3620   31.3340 N.am  263  ASN263     -0.0877
     68  N         18.9780   11.9080   29.6570 N.am  264  MET264     -0.1979
     69  CA        19.3230   10.5930   30.1790 C.3   264  MET264      0.1605
     70  C         20.0750    9.6820   29.1790 C.2   264  MET264      0.2287
     71  O         20.0600    9.8650   27.9660 O.2   264  MET264     -0.2864
     72  CB        18.0850    9.9390   30.7430 C.3   264  MET264      0.0413
     73  CG        17.4980   10.6710   31.9630 C.3   264  MET264      0.0598
     74  SD        16.1290    9.8420   32.8200 S.3   264  MET264     -0.1393
     75  CE        16.9440    8.6970   33.8900 C.3   264  MET264      0.0692
     76  N         13.2540   10.5720   24.8930 N.3   278  PHE278     -0.1227
     77  CA        12.0280    9.7350   24.8880 C.3   278  PHE278      0.1736
     78  C         10.8610   10.5340   25.4330 C.2   278  PHE278      0.2596
     79  O         11.0520   11.4360   26.2410 O.2   278  PHE278     -0.2718
     80  CB        12.2130    8.4860   25.7370 C.3   278  PHE278      0.0547
     81  CG        12.6650    8.7490   27.1760 C.ar  278  PHE278     -0.0202
     82  CD1       11.7560    8.9140   28.1860 C.ar  278  PHE278     -0.0042
     83  CD2       14.0040    8.7680   27.4990 C.ar  278  PHE278     -0.0042
     84  CE1       12.1610    9.1130   29.4940 C.ar  278  PHE278     -0.0003
     85  CE2       14.4250    8.9710   28.7990 C.ar  278  PHE278     -0.0003
     86  CZ        13.4880    9.1310   29.7990 C.ar  278  PHE278     -0.0000
     87  N          9.6610   10.2170   24.9850 N.am  279  SER279     -0.1938
     88  CA         8.4910   11.0210   25.3220 C.3   279  SER279      0.2055
     89  C          7.2690   10.1460   25.5050 C.2   279  SER279      0.2644
     90  O          7.1580    9.0850   24.8980 O.2   279  SER279     -0.2714
     91  CB         8.2130   12.0640   24.2320 C.3   279  SER279      0.2130
     92  OG         7.9140   11.4670   23.0090 O.3   279  SER279     -0.2179
     93  N          6.3770   10.5810   26.3810 N.am  280  GLY280     -0.1939
     94  CA         5.1040    9.9490   26.5480 C.3   280  GLY280      0.2014
     95  C          4.0330   10.9900   26.5200 C.2   280  GLY280      0.2639
     96  O          4.0030   11.8050   25.6420 O.2   280  GLY280     -0.2714
     97  N          3.1170   10.9060   27.4780 N.am  281  TRP281     -0.1959
     98  CA         2.1850   11.9610   27.7940 C.3   281  TRP281      0.1771
     99  C          2.2200   12.1880   29.3040 C.2   281  TRP281      0.2620
    100  O          2.6270   11.3180   30.0860 O.2   281  TRP281     -0.2715
    101  CB         0.7600   11.6480   27.2770 C.3   281  TRP281      0.0590
    102  CG         0.2190   10.4010   27.7420 C.ar  281  TRP281      0.0006
    103  CD1       -0.3390   10.1390   28.9890 C.ar  281  TRP281      0.0946
    104  CD2        0.1380    9.1610   26.9970 C.ar  281  TRP281      0.0152
    105  NE1       -0.7220    8.8070   29.0500 N.ar  281  TRP281     -0.2442
    106  CE2       -0.4610    8.1950   27.8510 C.ar  281  TRP281      0.0810
    107  CE3        0.5260    8.7810   25.7190 C.ar  281  TRP281      0.0012
    108  CZ2       -0.6850    6.8720   27.4530 C.ar  281  TRP281      0.0191
    109  CZ3        0.3100    7.4650   25.3070 C.ar  281  TRP281      0.0001
    110  CH2       -0.2730    6.5130   26.1830 C.ar  281  TRP281      0.0015
    111  N          1.7280   13.3590   29.7040 N.am  282  TYR282     -0.1960
    112  CA         1.6880   13.8190   31.1050 C.3   282  TYR282      0.1771
    113  C          0.6640   13.1100   32.0010 C.2   282  TYR282      0.2619
    114  O         -0.4350   12.7410   31.5980 O.2   282  TYR282     -0.2715
    115  CB         1.4720   15.3480   31.1170 C.3   282  TYR282      0.0574
    116  CG         2.7580   16.1800   31.1140 C.ar  282  TYR282     -0.0198
    117  CD1        3.6700   16.0830   32.1600 C.ar  282  TYR282     -0.0009
    118  CD2        3.0530   17.0870   30.0820 C.ar  282  TYR282     -0.0009
    119  CE1        4.8450   16.8680   32.1780 C.ar  282  TYR282      0.0417
    120  CE2        4.2370   17.8480   30.0750 C.ar  282  TYR282      0.0417
    121  CZ         5.1120   17.7650   31.1320 C.ar  282  TYR282      0.1957
    122  OH         6.2510   18.5690   31.1780 O.3   282  TYR282     -0.2866
    123  N          1.0600   12.9050   33.2360 N.am  283  MET283     -0.1977
    124  CA         0.1190   12.7300   34.3190 C.3   283  MET283      0.1605
    125  C         -0.1130   14.1060   34.9290 C.2   283  MET283      0.2287
    126  O          0.8500   14.8060   35.2280 O.2   283  MET283     -0.2864
    127  CB         0.6930   11.8310   35.4000 C.3   283  MET283      0.0413
    128  CG        -0.3170   11.5630   36.4880 C.3   283  MET283      0.0598
    129  SD         0.2000   10.2270   37.5850 S.3   283  MET283     -0.1393
    130  CE         1.3390   11.2070   38.5380 C.3   283  MET283      0.0692
    131  N          1.9970   16.1790   37.4990 N.3   286  GLU286     -0.1245
    132  CA         3.3280   16.7040   37.1780 C.3   286  GLU286      0.1567
    133  C          3.2680   18.2020   36.8640 C.2   286  GLU286      0.2260
    134  O          4.1130   18.9880   37.3010 O.2   286  GLU286     -0.2867
    135  CB         3.9100   15.9740   35.9860 C.3   286  GLU286      0.0388
    136  CG         4.0440   14.4810   36.1310 C.3   286  GLU286      0.1160
    137  CD         4.5590   13.8540   34.8410 C.2   286  GLU286      0.3649
    138  OE1        5.8000   14.0030   34.5570 O.co2 286  GLU286     -0.2457
    139  OE2        3.7280   13.2290   34.1240 O.co2 286  GLU286     -0.2457
    140  N          8.3710    8.0170   44.3000 N.3   371  TRP371     -0.1241
    141  CA         8.2190    8.5860   42.9640 C.3   371  TRP371      0.1605
    142  C          6.9500    8.0990   42.3380 C.2   371  TRP371      0.2264
    143  O          6.3940    8.7830   41.4870 O.2   371  TRP371     -0.2867
    144  CB         9.3970    8.2400   42.0530 C.3   371  TRP371      0.0550
    145  CG        10.5410    9.1800   42.1660 C.ar  371  TRP371      0.0003
    146  CD1       11.3530    9.3150   43.2100 C.ar  371  TRP371      0.0946
    147  CD2       10.9950   10.0880   41.1750 C.ar  371  TRP371      0.0152
    148  NE1       12.2980   10.2690   42.9600 N.ar  371  TRP371     -0.2442
    149  CE2       12.0820   10.7860   41.7220 C.ar  371  TRP371      0.0810
    150  CE3       10.5710   10.3980   39.8880 C.ar  371  TRP371      0.0012
    151  CZ2       12.7880   11.7900   40.9990 C.ar  371  TRP371      0.0191
    152  CZ3       11.2310   11.3770   39.1650 C.ar  371  TRP371      0.0001
    153  CH2       12.3320   12.0750   39.7150 C.ar  371  TRP371      0.0015
    154  N         20.9310    8.4220   34.8900 N.3   399  TYR399     -0.1241
    155  CA        21.3140    9.8220   34.8580 C.3   399  TYR399      0.1605
    156  C         22.7430    9.9000   34.3500 C.2   399  TYR399      0.2264
    157  O         23.4450    8.9470   34.4460 O.2   399  TYR399     -0.2867
    158  CB        21.2660   10.3860   36.2600 C.3   399  TYR399      0.0534
    159  CG        19.8950   10.3000   36.8840 C.ar  399  TYR399     -0.0201
    160  CD1       18.8040   10.9440   36.2780 C.ar  399  TYR399     -0.0009
    161  CD2       19.6840    9.6060   38.0660 C.ar  399  TYR399     -0.0009
    162  CE1       17.5490   10.9160   36.8370 C.ar  399  TYR399      0.0417
    163  CE2       18.4300    9.5820   38.6470 C.ar  399  TYR399      0.0417
    164  CZ        17.3540   10.2340   38.0240 C.ar  399  TYR399      0.1957
    165  OH        16.0790   10.2310   38.5550 O.3   399  TYR399     -0.2866
@<TRIPOS>BOND
     1    92    91    1
     2    91    88    1
     3    77    76    1
     4    77    78    1
     5    77    80    1
     6    90    89    2
     7    87    88    1
     8    87    78   am
     9   109   107   ar
    10   109   110   ar
    11    88    89    1
    12    78    79    2
    13    89    93   am
    14    96    95    2
    15   107   104   ar
    16    80    81    1
    17   110   108   ar
    18    93    94    1
    19    95    94    1
    20    95    97   am
    21    24    23    1
    22    23    22    1
    23    56    55    2
    24   104   102   ar
    25   104   106   ar
    26    46    52    1
    27    46    47    1
    28    30    31    1
    29    81    83   ar
    30    81    82   ar
    31   101   102    1
    32   101    98    1
    33    33    32    2
    34    49    48    2
    35    52    51    1
    36   108   106   ar
    37    97    98    1
    38    48    47    1
    39    83    85   ar
    40    55    54    1
    41    53    54    1
    42   102   103   ar
    43    98    99    1
    44   106   105   ar
    45    22    25    1
    46    22    21    1
    47    71    70    2
    48    47    50    1
    49    82    84   ar
    50    32    31    1
    51    31    34    1
    52    54    57    1
    53    25    26    1
    54    60    61    1
    55    51    50    1
    56    21    17   am
    57    85    86   ar
    58    34    35    1
    59   103   105   ar
    60    35    36    1
    61    70    69    1
    62    61    62    1
    63    61    64    1
    64    15    16    1
    65    99   111   am
    66    99   100    2
    67    17    18    2
    68    17    16    1
    69    84    86   ar
    70    57    58    1
    71    57    59    1
    72    68    62   am
    73    68    69    1
    74   111   112    1
    75    62    63    2
    76    26    27    1
    77    16    19    1
    78    28    27    2
    79   120   118   ar
    80   120   121   ar
    81   118   116   ar
    82    69    72    1
    83    64    65    1
    84    27    29   am
    85    36    37    1
    86    72    73    1
    87   112   115    1
    88   112   113    1
    89   116   115    1
    90   116   117   ar
    91   121   122    1
    92   121   119   ar
    93    37    38    2
    94    67    65   am
    95    65    66    2
    96    19    20    1
    97   114   113    2
    98    73    74    1
    99   113   123   am
   100   117   119   ar
   101    38    40    1
   102    38    39    1
   103    74    75    1
   104   123   124    1
   105    14    13    1
   106   139   137   ar
   107   124   125    1
   108   124   127    1
   109   156   157    2
   110   156   155    1
   111   138   137   ar
   112    13    10    1
   113   137   136    1
   114   155   154    1
   115   155   158    1
   116   125   126    2
   117   127   128    1
   118    44    43    2
   119    43    42    1
   120   135   136    1
   121   135   132    1
   122    10    11    1
   123    10     9    1
   124   158   159    1
   125   160   162   ar
   126   160   159   ar
   127    12    11    2
   128   128   129    1
   129    45    42    1
   130   162   164   ar
   131   133   132    1
   132   133   134    2
   133   159   161   ar
   134    42    41    1
   135   132   131    1
   136   129   130    1
   137   164   165    1
   138   164   163   ar
   139   161   163   ar
   140   152   153   ar
   141   152   150   ar
   142   153   151   ar
   143   150   147   ar
   144     8     6    1
   145     7     6    1
   146   151   149   ar
   147   147   149   ar
   148   147   145   ar
   149     6     5    1
   150   143   142    2
   151   149   148   ar
   152   144   145    1
   153   144   141    1
   154   145   146   ar
   155     5     2    1
   156   142   141    1
   157   148   146   ar
   158   141   140    1
   159     2     1    1
   160     2     3    1
   161     3     4    2
