@<TRIPOS>MOLECULE
tmp/4k5kB03.pdb
 172 169 0 0 0
SMALL
GASTEIGER

@<TRIPOS>ATOM
      1  N          6.0970   -2.1340   55.3730 N.3    38  VAL38      -0.1231
      2  CA         5.5920   -1.6930   56.6610 C.3    38  VAL38       0.1692
      3  C          6.2070   -2.4600   57.8500 C.2    38  VAL38       0.2591
      4  O          6.5050   -1.8670   58.8850 O.2    38  VAL38      -0.2718
      5  CB         4.0450   -1.7750   56.7130 C.3    38  VAL38       0.0266
      6  CG1        3.5640   -1.4680   58.1180 C.3    38  VAL38       0.0020
      7  CG2        3.4280   -0.7940   55.7220 C.3    38  VAL38       0.0020
      8  N          6.3610   -3.7740   57.7010 N.am   39  LEU39      -0.1980
      9  CA         6.8130   -4.6420   58.7970 C.3    39  LEU39       0.1596
     10  C          8.1370   -5.2970   58.4400 C.2    39  LEU39       0.2287
     11  O          8.3570   -5.6500   57.2650 O.2    39  LEU39      -0.2864
     12  CB         5.7810   -5.7450   59.1120 C.3    39  LEU39       0.0297
     13  CG         4.4160   -5.3840   59.7030 C.3    39  LEU39       0.0022
     14  CD1        3.5960   -6.6380   59.9930 C.3    39  LEU39       0.0001
     15  CD2        4.6050   -4.5630   60.9690 C.3    39  LEU39       0.0001
     16  N          9.5200    6.9400   62.0080 N.3   107  ARG107     -0.1245
     17  CA         8.1710    7.1550   61.4390 C.3   107  ARG107      0.1563
     18  C          7.3620    8.2660   62.0800 C.2   107  ARG107      0.2260
     19  O          6.2040    8.5400   61.6140 O.2   107  ARG107     -0.2867
     20  CB         7.3840    5.8240   61.4550 C.3   107  ARG107      0.0307
     21  CG         7.8080    4.8890   60.3420 C.3   107  ARG107      0.0489
     22  CD         7.5000    3.4220   60.5370 C.3   107  ARG107      0.2205
     23  NE         7.7610    2.6780   59.3020 N.pl3 107  ARG107     -0.0865
     24  CZ         7.4110    1.4130   59.0280 C.cat 107  ARG107      0.5346
     25  NH1        6.6880    0.6660   59.8550 N.pl3 107  ARG107      0.1354
     26  NH2        7.7680    0.8980   57.8700 N.pl3 107  ARG107      0.1354
     27  N         -4.5510   -2.5890   70.0270 N.3   170  SER170     -0.1202
     28  CA        -3.4520   -1.9130   69.3310 C.3   170  SER170      0.2020
     29  C         -3.4050   -0.4560   69.7650 C.2   170  SER170      0.2618
     30  O         -2.3370    0.1530   69.7670 O.2   170  SER170     -0.2717
     31  CB        -3.5600   -2.0300   67.8220 C.3   170  SER170      0.2103
     32  OG        -4.7390   -1.3590   67.3930 O.3   170  SER170     -0.2182
     33  N         -4.5650    0.0730   70.1750 N.am  171  GLN171     -0.1979
     34  CA        -4.6610    1.4220   70.7490 C.3   171  GLN171      0.1601
     35  C         -5.5250    1.3670   71.9960 C.2   171  GLN171      0.2287
     36  O         -6.3530    0.4710   72.1330 O.2   171  GLN171     -0.2864
     37  CB        -5.2460    2.4550   69.7630 C.3   171  GLN171      0.0394
     38  CG        -4.3930    2.8000   68.5520 C.3   171  GLN171      0.0908
     39  CD        -4.9020    4.0010   67.7490 C.2   171  GLN171      0.2608
     40  OE1       -5.5630    4.9240   68.2790 O.2   171  GLN171     -0.2717
     41  NE2       -4.5440    4.0290   66.4650 N.am  171  GLN171     -0.0878
     42  N        -10.3000    2.3310   70.5110 N.3   174  ARG174     -0.1245
     43  CA       -10.5780    1.7170   69.1960 C.3   174  ARG174      0.1563
     44  C        -12.1070    1.5080   69.0770 C.2   174  ARG174      0.2260
     45  O        -12.7100    1.1220   70.0460 O.2   174  ARG174     -0.2867
     46  CB       -10.0020    0.3120   69.1340 C.3   174  ARG174      0.0307
     47  CG        -8.4330    0.2440   69.1940 C.3   174  ARG174      0.0489
     48  CD        -7.8780    0.3110   67.7880 C.3   174  ARG174      0.2205
     49  NE        -7.9630    1.6710   67.2690 N.pl3 174  ARG174     -0.0865
     50  CZ        -7.7660    2.0040   66.0000 C.cat 174  ARG174      0.5346
     51  NH1       -7.5010    1.0500   65.1190 N.pl3 174  ARG174      0.1354
     52  NH2       -7.8650    3.2960   65.6130 N.pl3 174  ARG174      0.1354
     53  N         -4.6720    9.7570   70.6110 N.3   258  PRO258     -0.2116
     54  CA        -4.0940    8.6100   69.9380 C.3   258  PRO258      0.1372
     55  C         -3.1270    7.9070   70.8650 C.2   258  PRO258      0.2244
     56  O         -2.0670    8.4720   71.1830 O.2   258  PRO258     -0.2868
     57  CB        -3.4120    9.2250   68.7050 C.3   258  PRO258      0.0268
     58  CG        -2.9200   10.5380   69.2110 C.3   258  PRO258      0.0207
     59  CD        -4.0270   11.0100   70.1990 C.3   258  PRO258      0.0892
     60  N         -0.9760    4.4480   71.3680 N.3   260  VAL260     -0.1245
     61  CA        -0.5010    3.1680   70.8590 C.3   260  VAL260      0.1561
     62  C         -0.1210    2.2100   71.9990 C.2   260  VAL260      0.2260
     63  O          0.6310    2.5790   72.9020 O.2   260  VAL260     -0.2867
     64  CB         0.7090    3.3850   69.8930 C.3   260  VAL260      0.0252
     65  CG1        1.3840    2.0630   69.5640 C.3   260  VAL260      0.0019
     66  CG2        0.2330    4.0770   68.6100 C.3   260  VAL260      0.0019
     67  N          0.2630   -1.5560   71.6520 N.3   262  ASN262     -0.1225
     68  CA         0.8270   -2.8780   71.3460 C.3   262  ASN262      0.1785
     69  C          2.3130   -2.9030   70.8900 C.2   262  ASN262      0.2597
     70  O          2.7850   -3.9170   70.3710 O.2   262  ASN262     -0.2718
     71  CB        -0.0280   -3.5960   70.3130 C.3   262  ASN262      0.1169
     72  CG        -0.0240   -2.9050   68.9830 C.2   262  ASN262      0.2627
     73  OD1       -0.6240   -3.4100   68.0470 O.2   262  ASN262     -0.2716
     74  ND2        0.6280   -1.7500   68.8740 N.am  262  ASN262     -0.0877
     75  N          3.0190   -1.7910   71.0140 N.am  263  MET263     -0.1979
     76  CA         4.4710   -1.7720   70.5980 C.3   263  MET263      0.1605
     77  C          5.3770   -2.0360   71.7850 C.2   263  MET263      0.2287
     78  O          5.0240   -1.7120   72.9290 O.2   263  MET263     -0.2864
     79  CB         4.8550   -0.4410   69.9230 C.3   263  MET263      0.0413
     80  CG         4.1210   -0.1850   68.5900 C.3   263  MET263      0.0598
     81  SD         4.7680    1.2450   67.7140 S.3   263  MET263     -0.1393
     82  CE         6.3020    0.5520   67.0470 C.3   263  MET263      0.0692
     83  N          1.7890    4.5550   74.7830 N.3   277  PHE277     -0.1227
     84  CA         2.1540    5.9370   74.7520 C.3   277  PHE277      0.1736
     85  C          1.2120    6.7590   73.9050 C.2   277  PHE277      0.2596
     86  O          0.6420    6.2650   72.9460 O.2   277  PHE277     -0.2718
     87  CB         3.5540    6.0700   74.1560 C.3   277  PHE277      0.0547
     88  CG         3.6860    5.4490   72.8070 C.ar  277  PHE277     -0.0202
     89  CD1        3.4250    6.1960   71.6510 C.ar  277  PHE277     -0.0042
     90  CD2        4.1690    4.1460   72.6790 C.ar  277  PHE277     -0.0042
     91  CE1        3.6390    5.6330   70.3810 C.ar  277  PHE277     -0.0003
     92  CE2        4.3570    3.5750   71.4270 C.ar  277  PHE277     -0.0003
     93  CZ         4.0780    4.3180   70.2700 C.ar  277  PHE277     -0.0000
     94  N          1.1010    8.0410   74.2130 N.am  278  SER278     -0.1938
     95  CA         0.1330    8.8580   73.5010 C.3   278  SER278      0.2055
     96  C          0.5950   10.2860   73.2510 C.2   278  SER278      0.2644
     97  O          1.3860   10.8300   74.0150 O.2   278  SER278     -0.2714
     98  CB        -1.1910    8.8570   74.2590 C.3   278  SER278      0.2130
     99  OG        -1.0160    9.3660   75.5660 O.3   278  SER278     -0.2179
    100  N          0.0660   10.9100   72.1910 N.am  279  GLY279     -0.1939
    101  CA         0.3130   12.3400   71.9730 C.3   279  GLY279      0.2014
    102  C         -1.0050   13.0030   71.6140 C.2   279  GLY279      0.2639
    103  O         -1.9860   12.8820   72.3480 O.2   279  GLY279     -0.2714
    104  N         -1.0100   13.7310   70.5080 N.am  280  TRP280     -0.1959
    105  CA        -2.2620   14.2490   69.9420 C.3   280  TRP280      0.1771
    106  C         -2.2070   13.9320   68.4540 C.2   280  TRP280      0.2620
    107  O         -1.1280   13.6330   67.8990 O.2   280  TRP280     -0.2715
    108  CB        -2.4460   15.7480   70.2480 C.3   280  TRP280      0.0590
    109  CG        -1.2900   16.6340   69.8560 C.ar  280  TRP280      0.0006
    110  CD1       -1.0220   17.1280   68.6050 C.ar  280  TRP280      0.0946
    111  CD2       -0.2560   17.1480   70.7140 C.ar  280  TRP280      0.0152
    112  NE1        0.0920   17.9330   68.6410 N.ar  280  TRP280     -0.2442
    113  CE2        0.5810   17.9570   69.9210 C.ar  280  TRP280      0.0810
    114  CE3        0.0310   17.0130   72.0900 C.ar  280  TRP280      0.0012
    115  CZ2        1.7120   18.6260   70.4500 C.ar  280  TRP280      0.0191
    116  CZ3        1.1170   17.6800   72.6180 C.ar  280  TRP280      0.0001
    117  CH2        1.9610   18.4690   71.7950 C.ar  280  TRP280      0.0015
    118  N         -3.3490   14.0050   67.7890 N.am  281  TYR281     -0.1960
    119  CA        -3.4310   13.6320   66.4110 C.3   281  TYR281      0.1771
    120  C         -2.9240   14.6740   65.4650 C.2   281  TYR281      0.2619
    121  O         -2.9840   15.8610   65.7460 O.2   281  TYR281     -0.2715
    122  CB        -4.9170   13.4050   66.0300 C.3   281  TYR281      0.0574
    123  CG        -5.3590   11.9800   66.1560 C.ar  281  TYR281     -0.0198
    124  CD1       -4.7820   11.0150   65.3580 C.ar  281  TYR281     -0.0009
    125  CD2       -6.3480   11.5900   67.0780 C.ar  281  TYR281     -0.0009
    126  CE1       -5.1650    9.7010   65.4600 C.ar  281  TYR281      0.0417
    127  CE2       -6.7690   10.2710   67.1770 C.ar  281  TYR281      0.0417
    128  CZ        -6.2100    9.3520   66.3370 C.ar  281  TYR281      0.1957
    129  OH        -6.5550    8.0370   66.3880 O.3   281  TYR281     -0.2866
    130  N         -2.4720   14.2120   64.3110 N.am  282  MET282     -0.1977
    131  CA        -2.3600   15.1080   63.1450 C.3   282  MET282      0.1605
    132  C         -3.6200   14.8530   62.3230 C.2   282  MET282      0.2287
    133  O         -4.0250   13.7230   62.1880 O.2   282  MET282     -0.2864
    134  CB        -1.0740   14.8190   62.3020 C.3   282  MET282      0.0413
    135  CG        -0.9670   15.6440   61.0090 C.3   282  MET282      0.0598
    136  SD         0.7410   15.4230   60.3480 S.3   282  MET282     -0.1393
    137  CE         0.4900   13.8360   59.5350 C.3   282  MET282      0.0692
    138  N         -4.4130   11.8150   59.8120 N.3   285  GLU285     -0.1245
    139  CA        -4.5980   10.4540   60.3200 C.3   285  GLU285      0.1567
    140  C         -6.1170   10.1070   60.3700 C.2   285  GLU285      0.2260
    141  O         -6.5280    9.0160   59.9610 O.2   285  GLU285     -0.2867
    142  CB        -4.0270   10.3420   61.7370 C.3   285  GLU285      0.0388
    143  CG        -2.4740   10.4750   61.7470 C.3   285  GLU285      0.1160
    144  CD        -1.9930   10.4530   63.1840 C.2   285  GLU285      0.3649
    145  OE1       -1.8710    9.3270   63.7510 O.co2 285  GLU285     -0.2457
    146  OE2       -1.8680   11.5530   63.7660 O.co2 285  GLU285     -0.2457
    147  N          6.5340    7.6230   55.6010 N.3   370  TRP370     -0.1241
    148  CA         5.5940    7.8130   56.7440 C.3   370  TRP370      0.1605
    149  C          5.5550    9.2640   57.1870 C.2   370  TRP370      0.2264
    150  O          4.5580    9.7170   57.7360 O.2   370  TRP370     -0.2867
    151  CB         5.9890    6.9360   57.9370 C.3   370  TRP370      0.0550
    152  CG         5.4310    5.5340   57.8460 C.ar  370  TRP370      0.0003
    153  CD1        5.6900    4.6110   56.8870 C.ar  370  TRP370      0.0946
    154  CD2        4.5580    4.9150   58.7690 C.ar  370  TRP370      0.0152
    155  NE1        5.0690    3.4570   57.1640 N.ar  370  TRP370     -0.2442
    156  CE2        4.3410    3.6070   58.3110 C.ar  370  TRP370      0.0810
    157  CE3        3.9360    5.3390   59.9430 C.ar  370  TRP370      0.0012
    158  CZ2        3.4860    2.6990   58.9680 C.ar  370  TRP370      0.0191
    159  CZ3        3.1380    4.4210   60.6370 C.ar  370  TRP370      0.0001
    160  CH2        2.9600    3.1060   60.1530 C.ar  370  TRP370      0.0015
    161  N          7.8740   -3.1520   66.6790 N.3   398  TYR398     -0.1241
    162  CA         6.7120   -4.0310   66.5670 C.3   398  TYR398      0.1605
    163  C          6.9890   -5.3380   67.2760 C.2   398  TYR398      0.2264
    164  O          8.1360   -5.7470   67.3750 O.2   398  TYR398     -0.2867
    165  CB         6.3960   -4.3280   65.1160 C.3   398  TYR398      0.0534
    166  CG         6.0590   -3.1070   64.3210 C.ar  398  TYR398     -0.0201
    167  CD1        4.9630   -2.3070   64.6650 C.ar  398  TYR398     -0.0009
    168  CD2        6.8370   -2.7400   63.2150 C.ar  398  TYR398     -0.0009
    169  CE1        4.6450   -1.1750   63.9290 C.ar  398  TYR398      0.0417
    170  CE2        6.5340   -1.6080   62.4680 C.ar  398  TYR398      0.0417
    171  CZ         5.4340   -0.8330   62.8270 C.ar  398  TYR398      0.1957
    172  OH         5.1270    0.2920   62.0870 O.3   398  TYR398     -0.2866
@<TRIPOS>BOND
     1     1     2    1
     2   147   148    1
     3     7     5    1
     4     2     5    1
     5     2     3    1
     6     5     6    1
     7   148   149    1
     8   148   151    1
     9   153   155   ar
    10   153   152   ar
    11   155   156   ar
    12   149   150    2
    13    11    10    2
    14     8     3   am
    15     8     9    1
    16   152   151    1
    17   152   154   ar
    18     3     4    2
    19    26    24    1
    20   156   154   ar
    21   156   158   ar
    22    10     9    1
    23   154   157   ar
    24     9    12    1
    25   158   160   ar
    26    24    23    2
    27    24    25    1
    28    12    13    1
    29    23    22    1
    30   137   136    1
    31    13    14    1
    32    13    15    1
    33   138   139    1
    34   157   159   ar
    35   141   140    2
    36   160   159   ar
    37   139   140    1
    38   139   142    1
    39    21    22    1
    40    21    20    1
    41   136   135    1
    42   135   134    1
    43    17    20    1
    44    17    16    1
    45    17    18    1
    46    19    18    2
    47   142   143    1
    48   143   144    1
    49   172   171    1
    50   133   132    2
    51   134   131    1
    52   132   131    1
    53   170   171   ar
    54   170   168   ar
    55   171   169   ar
    56   131   130    1
    57   144   145   ar
    58   144   146   ar
    59   168   166   ar
    60   169   167   ar
    61   130   120   am
    62   166   167   ar
    63   166   165    1
    64   165   162    1
    65    51    50    1
    66   124   126   ar
    67   124   123   ar
    68   126   128   ar
    69   120   121    2
    70   120   119    1
    71    52    50    1
    72    50    49    2
    73   122   123    1
    74   122   119    1
    75   123   125   ar
    76   128   129    1
    77   128   127   ar
    78   119   118    1
    79    41    39   am
    80   162   161    1
    81   162   163    1
    82    82    81    1
    83   125   127   ar
    84    49    48    1
    85   163   164    2
    86    32    31    1
    87    81    80    1
    88    39    40    2
    89    39    38    1
    90    48    47    1
    91   118   106   am
    92    31    28    1
    93   107   106    2
    94    73    72    2
    95   106   105    1
    96    38    37    1
    97    80    79    1
    98   110   112   ar
    99   110   109   ar
   100    66    64    1
   101   112   113   ar
   102    57    58    1
   103    57    54    1
   104    74    72   am
   105    72    71    1
   106    44    43    1
   107    44    45    2
   108    46    47    1
   109    46    43    1
   110    43    42    1
   111    58    59    1
   112    28    29    1
   113    28    27    1
   114    65    64    1
   115    37    34    1
   116    29    30    2
   117    29    33   am
   118   109   108    1
   119   109   111   ar
   120    64    61    1
   121   113   115   ar
   122   113   111   ar
   123    79    76    1
   124    54    53    1
   125    54    55    1
   126   105   108    1
   127   105   104    1
   128    33    34    1
   129    59    53    1
   130    93    91   ar
   131    93    92   ar
   132    71    68    1
   133    70    69    2
   134    91    89   ar
   135   115   117   ar
   136   104   102   am
   137    76    75    1
   138    76    77    1
   139   111   114   ar
   140    34    35    1
   141    61    60    1
   142    61    62    1
   143    55    56    2
   144    69    75   am
   145    69    68    1
   146    68    67    1
   147    92    90   ar
   148   102   101    1
   149   102   103    2
   150    89    88   ar
   151    77    78    2
   152   117   116   ar
   153   101   100    1
   154    35    36    2
   155    62    63    2
   156   114   116   ar
   157   100    96   am
   158    90    88   ar
   159    88    87    1
   160    86    85    2
   161    96    95    1
   162    96    97    2
   163    95    94    1
   164    95    98    1
   165    85    94   am
   166    85    84    1
   167    87    84    1
   168    98    99    1
   169    84    83    1
