@<TRIPOS>MOLECULE
tmp/4k5lA00.pdb
 167 161 0 0 0
SMALL
GASTEIGER

@<TRIPOS>ATOM
      1  N         14.1770   20.6630   19.9490 N.3   122  GLN122     -0.1245
      2  CA        13.6780   19.4330   19.3260 C.3   122  GLN122      0.1566
      3  C         12.2990   19.1290   19.9000 C.2   122  GLN122      0.2260
      4  O         12.1460   18.9100   21.1210 O.2   122  GLN122     -0.2867
      5  CB        14.6560   18.2940   19.5360 C.3   122  GLN122      0.0367
      6  CG        14.1430   16.8750   19.1600 C.3   122  GLN122      0.0905
      7  CD        13.7740   16.8270   17.6920 C.2   122  GLN122      0.2608
      8  OE1       14.4740   17.4020   16.8270 O.2   122  GLN122     -0.2717
      9  NE2       12.6690   16.1410   17.3870 N.am  122  GLN122     -0.0878
     10  N          9.5530   17.0460   18.1420 N.3   124  GLU124     -0.1245
     11  CA         8.9720   15.6710   17.8860 C.3   124  GLU124      0.1567
     12  C          9.5000   14.6280   18.8860 C.2   124  GLU124      0.2260
     13  O         10.7290   14.5540   19.1160 O.2   124  GLU124     -0.2867
     14  CB         9.2910   15.1660   16.4480 C.3   124  GLU124      0.0388
     15  CG         8.3970   13.9350   16.1180 C.3   124  GLU124      0.1160
     16  CD         8.5530   13.4310   14.6690 C.2   124  GLU124      0.3649
     17  OE1        9.3000   14.0640   13.8640 O.co2 124  GLU124     -0.2457
     18  OE2        7.8890   12.4240   14.3490 O.co2 124  GLU124     -0.2457
     19  N         22.7000   15.7440   19.3770 N.3   262  PHE262     -0.1227
     20  CA        21.4290   15.4270   18.6600 C.3   262  PHE262      0.1736
     21  C         21.0690   13.9380   18.7380 C.2   262  PHE262      0.2595
     22  O         21.9300   13.0770   18.8610 O.2   262  PHE262     -0.2718
     23  CB        21.4470   15.8800   17.1740 C.3   262  PHE262      0.0547
     24  CG        20.0660   16.2270   16.6240 C.ar  262  PHE262     -0.0202
     25  CD1       19.4550   17.4570   16.9660 C.ar  262  PHE262     -0.0042
     26  CD2       19.3570   15.3110   15.8000 C.ar  262  PHE262     -0.0042
     27  CE1       18.1770   17.8060   16.4810 C.ar  262  PHE262     -0.0003
     28  CE2       18.0650   15.6670   15.3030 C.ar  262  PHE262     -0.0003
     29  CZ        17.4670   16.8840   15.6450 C.ar  262  PHE262     -0.0000
     30  N         19.7920   13.6320   18.6450 N.am  263  ASN263     -0.1960
     31  CA        19.3860   12.2290   18.9990 C.3   263  ASN263      0.1819
     32  C         19.2980   11.0210   18.0260 C.2   263  ASN263      0.2621
     33  O         18.7720    9.9070   18.4720 O.2   263  ASN263     -0.2715
     34  CB        18.2910   12.2220   20.1350 C.3   263  ASN263      0.1195
     35  CG        18.9250   12.2100   21.5430 C.2   263  ASN263      0.2630
     36  OD1       18.4220   12.7930   22.4880 O.2   263  ASN263     -0.2716
     37  ND2       20.0860   11.5450   21.6470 N.am  263  ASN263     -0.0877
     38  N         19.8560   11.1970   16.7870 N.am  264  VAL264     -0.1963
     39  CA        20.1180   10.1950   15.6320 C.3   264  VAL264      0.1727
     40  C         19.4760   10.7760   14.3050 C.2   264  VAL264      0.2617
     41  O         18.3420   11.0420   14.2730 O.2   264  VAL264     -0.2715
     42  CB        19.9000    8.5760   15.8960 C.3   264  VAL264      0.0290
     43  CG1       19.1480    7.8800   14.7850 C.3   264  VAL264      0.0023
     44  CG2       21.2290    7.7810   16.1940 C.3   264  VAL264      0.0023
     45  N         20.1920   10.9870   13.2240 N.am  265  GLY265     -0.1940
     46  CA        19.5360   11.5680   12.0460 C.3   265  GLY265      0.2014
     47  C         19.2850   13.0900   12.1170 C.2   265  GLY265      0.2639
     48  O         20.2090   13.8530   12.3150 O.2   265  GLY265     -0.2714
     49  N         18.0510   13.5040   11.8390 N.am  266  ALA266     -0.1963
     50  CA        17.7180   14.9440   11.7100 C.3   266  ALA266      0.1728
     51  C         16.2420   15.1700   12.0190 C.2   266  ALA266      0.2616
     52  O         15.5630   14.2540   12.5100 O.2   266  ALA266     -0.2715
     53  CB        18.0700   15.4300   10.2680 C.3   266  ALA266      0.0334
     54  N         15.7180   16.3680   11.7190 N.am  267  MET267     -0.1963
     55  CA        14.3240   16.6800   12.0520 C.3   267  MET267      0.1736
     56  C         13.8190   17.6710   11.0520 C.2   267  MET267      0.2616
     57  O         14.4910   18.6940   10.8050 O.2   267  MET267     -0.2715
     58  CB        14.2420   17.3070   13.4670 C.3   267  MET267      0.0427
     59  CG        12.8690   17.7290   13.8320 C.3   267  MET267      0.0599
     60  SD        11.7260   16.3100   13.8940 S.3   267  MET267     -0.1393
     61  CE        10.2100   17.0880   13.2690 C.3   267  MET267      0.0692
     62  N         12.6510   17.3730   10.5000 N.am  268  GLU268     -0.1977
     63  CA        12.0320   18.1060    9.3780 C.3   268  GLU268      0.1602
     64  C         11.1860   19.3490    9.7820 C.2   268  GLU268      0.2287
     65  O         10.2280   19.6940    9.0830 O.2   268  GLU268     -0.2864
     66  CB        11.1890   17.1480    8.5500 C.3   268  GLU268      0.0415
     67  CG         9.8460   16.7760    9.3130 C.3   268  GLU268      0.1163
     68  CD         9.9060   15.4690   10.1040 C.2   268  GLU268      0.3649
     69  OE1       11.0190   15.0940   10.4850 O.co2 268  GLU268     -0.2457
     70  OE2        8.8350   14.8220   10.2910 O.co2 268  GLU268     -0.2457
     71  N         15.9650   12.6020    2.9830 N.3   301  HIS301     -0.1226
     72  CA        14.8580   12.1850    3.9090 C.3   301  HIS301      0.1752
     73  C         14.1470   13.4120    4.5070 C.2   301  HIS301      0.2595
     74  O         12.9280   13.5000    4.4820 O.2   301  HIS301     -0.2718
     75  CB        15.4410   11.3410    5.0800 C.3   301  HIS301      0.0759
     76  CG        14.4070   10.8310    6.0260 C.ar  301  HIS301      0.0818
     77  ND1       13.8200    9.5980    5.8890 N.ar  301  HIS301     -0.2268
     78  CD2       13.8190   11.4070    7.1110 C.ar  301  HIS301      0.1154
     79  CE1       13.0000    9.3820    6.9060 C.ar  301  HIS301      0.1986
     80  NE2       12.9390   10.4790    7.6370 N.ar  301  HIS301     -0.2212
     81  N         14.8950   14.3330    5.1130 N.am  302  GLU302     -0.1979
     82  CA        14.2780   15.5450    5.6660 C.3   302  GLU302      0.1602
     83  C         13.5650   16.4100    4.5930 C.2   302  GLU302      0.2287
     84  O         12.4390   16.9370    4.8250 O.2   302  GLU302     -0.2864
     85  CB        15.3470   16.3720    6.3310 C.3   302  GLU302      0.0415
     86  CG        15.4130   16.2640    7.8540 C.3   302  GLU302      0.1163
     87  CD        15.0030   14.9590    8.4400 C.2   302  GLU302      0.3649
     88  OE1       13.9620   14.9170    9.0910 O.co2 302  GLU302     -0.2457
     89  OE2       15.7010   13.9680    8.2830 O.co2 302  GLU302     -0.2457
     90  N         10.2000   14.8100    3.6150 N.3   305  HIS305     -0.1241
     91  CA         9.1940   15.0060    4.6360 C.3   305  HIS305      0.1621
     92  C          8.3670   16.2750    4.3710 C.2   305  HIS305      0.2264
     93  O          7.2620   16.4110    4.8770 O.2   305  HIS305     -0.2867
     94  CB         9.8540   15.1700    5.9950 C.3   305  HIS305      0.0745
     95  CG         9.9040   13.9220    6.8260 C.ar  305  HIS305      0.0817
     96  ND1        8.8350   13.0450    6.9420 N.ar  305  HIS305     -0.2268
     97  CD2       10.8640   13.4440    7.6560 C.ar  305  HIS305      0.1154
     98  CE1        9.1360   12.0790    7.7900 C.ar  305  HIS305      0.1986
     99  NE2       10.3780   12.2640    8.2020 N.ar  305  HIS305     -0.2212
    100  N          4.1370    8.7270    7.6550 N.3   323  LYS323     -0.1231
    101  CA         5.1820    9.6750    7.2520 C.3   323  LYS323      0.1693
    102  C          6.5390    9.0240    7.2670 C.2   323  LYS323      0.2591
    103  O          7.3580    9.3100    6.3970 O.2   323  LYS323     -0.2718
    104  CB         5.2070   11.0080    8.0340 C.3   323  LYS323      0.0285
    105  CG         5.6000   10.9290    9.5250 C.3   323  LYS323      0.0035
    106  CD         5.6020   12.4300   10.0560 C.3   323  LYS323      0.0206
    107  CE         6.0820   12.5670   11.5690 C.3   323  LYS323      0.1093
    108  NZ         7.5630   12.5640   11.7400 N.3   323  LYS323     -0.1314
    109  N          6.8250    8.1710    8.2520 N.am  324  GLU324     -0.1979
    110  CA         8.1920    7.6290    8.2920 C.3   324  GLU324      0.1602
    111  C          8.4600    6.5130    7.2850 C.2   324  GLU324      0.2287
    112  O          9.4760    6.5430    6.5850 O.2   324  GLU324     -0.2864
    113  CB         8.6140    7.1660    9.6860 C.3   324  GLU324      0.0415
    114  CG         8.5820    8.2900   10.7210 C.3   324  GLU324      0.1163
    115  CD         9.4780    9.4820   10.3260 C.2   324  GLU324      0.3649
    116  OE1       10.3520    9.3400    9.4310 O.co2 324  GLU324     -0.2457
    117  OE2        9.3210   10.5550   10.9260 O.co2 324  GLU324     -0.2457
    118  N          8.5660    8.0640   22.4600 N.3   377  GLU377     -0.1245
    119  CA         9.9740    8.0770   22.0780 C.3   377  GLU377      0.1567
    120  C         10.5770    6.6660   21.9160 C.2   377  GLU377      0.2260
    121  O         11.7310    6.5200   21.4240 O.2   377  GLU377     -0.2867
    122  CB        10.7880    9.0280   22.9960 C.3   377  GLU377      0.0388
    123  CG        10.0980   10.3760   23.2880 C.3   377  GLU377      0.1160
    124  CD        10.1680   11.3710   22.1400 C.2   377  GLU377      0.3649
    125  OE1       10.9410   11.1710   21.1860 O.co2 377  GLU377     -0.2457
    126  OE2        9.4460   12.3760   22.2170 O.co2 377  GLU377     -0.2457
    127  N          9.9120    4.9650   17.5380 N.3   380  TYR380     -0.1241
    128  CA        10.6500    5.3330   16.3280 C.3   380  TYR380      0.1605
    129  C         11.6300    4.1930   15.9710 C.2   380  TYR380      0.2264
    130  O         12.8240    4.3120   16.2020 O.2   380  TYR380     -0.2867
    131  CB        11.3900    6.6540   16.5950 C.3   380  TYR380      0.0534
    132  CG        10.3760    7.8050   16.5640 C.ar  380  TYR380     -0.0201
    133  CD1       10.2340    8.5980   15.4030 C.ar  380  TYR380     -0.0009
    134  CD2        9.5740    8.0840   17.6700 C.ar  380  TYR380     -0.0009
    135  CE1        9.2390    9.6580   15.3500 C.ar  380  TYR380      0.0417
    136  CE2        8.6190    9.1180   17.6540 C.ar  380  TYR380      0.0417
    137  CZ         8.4540    9.8960   16.5100 C.ar  380  TYR380      0.1957
    138  OH         7.4810   10.8870   16.5220 O.3   380  TYR380     -0.2866
    139  N         10.0630    2.3380   10.5510 N.3   385  TYR385     -0.1241
    140  CA        10.7730    3.0050    9.4740 C.3   385  TYR385      0.1605
    141  C         11.0800    2.0650    8.3100 C.2   385  TYR385      0.2264
    142  O         10.7770    2.3680    7.1450 O.2   385  TYR385     -0.2867
    143  CB        12.1270    3.5380    9.9750 C.3   385  TYR385      0.0534
    144  CG        12.0900    4.8960   10.6310 C.ar  385  TYR385     -0.0201
    145  CD1       12.7020    6.0180   10.0190 C.ar  385  TYR385     -0.0009
    146  CD2       11.3800    5.0780   11.8140 C.ar  385  TYR385     -0.0009
    147  CE1       12.6270    7.3340   10.6440 C.ar  385  TYR385      0.0417
    148  CE2       11.3060    6.3760   12.4610 C.ar  385  TYR385      0.0417
    149  CZ        11.9200    7.4700   11.8650 C.ar  385  TYR385      0.1957
    150  OH        11.8270    8.6800   12.5020 O.3   385  TYR385     -0.2866
    151  N         16.5870    8.6660   26.2010 N.3   839  MET839     -0.1245
    152  CA        16.5600    8.1870   24.8120 C.3   839  MET839      0.1570
    153  C         17.8520    7.4540   24.4440 C.2   839  MET839      0.2261
    154  O         17.8120    6.3280   23.9040 O.2   839  MET839     -0.2867
    155  CB        16.2940    9.3060   23.8350 C.3   839  MET839      0.0387
    156  CG        14.9000    9.8480   23.8970 C.3   839  MET839      0.0595
    157  SD        14.6450   10.8710   22.4510 S.3   839  MET839     -0.1393
    158  CE        14.3520   12.4150   23.2860 C.3   839  MET839      0.0692
    159  N         18.7320    3.4630   23.5360 N.3   843  GLN843     -0.1245
    160  CA        19.5010    3.0520   22.3890 C.3   843  GLN843      0.1566
    161  C         20.6420    2.1350   22.7650 C.2   843  GLN843      0.2260
    162  O         20.9840    1.2470   21.9920 O.2   843  GLN843     -0.2867
    163  CB        20.0540    4.2350   21.5790 C.3   843  GLN843      0.0367
    164  CG        18.9450    5.0720   20.8520 C.3   843  GLN843      0.0905
    165  CD        19.4680    6.4550   20.4940 C.2   843  GLN843      0.2608
    166  OE1       20.5460    6.7800   20.8870 O.2   843  GLN843     -0.2717
    167  NE2       18.6580    7.2850   19.8550 N.am  843  GLN843     -0.0878
@<TRIPOS>BOND
     1    71    72    1
     2    90    91    1
     3    72    73    1
     4    72    75    1
     5    92    91    1
     6    92    93    2
     7    74    73    2
     8    73    81   am
     9    83    84    2
    10    83    82    1
    11    91    94    1
    12    75    76    1
    13    81    82    1
    14    82    85    1
    15    77    76   ar
    16    77    79   ar
    17    94    95    1
    18    76    78   ar
    19    85    86    1
    20   103   102    2
    21   112   111    2
    22    95    96   ar
    23    95    97   ar
    24    79    80   ar
    25    96    98   ar
    26    78    80   ar
    27   142   141    2
    28   101   102    1
    29   101   100    1
    30   101   104    1
    31   102   109   am
    32   111   110    1
    33    97    99   ar
    34    98    99   ar
    35    86    87    1
    36   104   105    1
    37   109   110    1
    38    89    87   ar
    39   110   113    1
    40   141   140    1
    41    87    88   ar
    42    66    67    1
    43    66    63    1
    44    65    64    2
    45    67    68    1
    46    63    64    1
    47    63    62    1
    48   116   115   ar
    49   140   143    1
    50   140   139    1
    51   105   106    1
    52   113   114    1
    53   143   144    1
    54   145   144   ar
    55   145   147   ar
    56   106   107    1
    57    68    70   ar
    58    68    69   ar
    59    53    50    1
    60   115   114    1
    61   115   117   ar
    62    62    56   am
    63   144   146   ar
    64   147   149   ar
    65    57    56    2
    66    56    55    1
    67   107   108    1
    68    50    49    1
    69    50    51    1
    70    54    51   am
    71    54    55    1
    72   146   148   ar
    73    49    47   am
    74   149   148   ar
    75   149   150    1
    76    51    52    2
    77    46    47    1
    78    46    45    1
    79    55    58    1
    80    47    48    2
    81    45    40   am
    82    61    60    1
    83    58    59    1
    84    59    60    1
    85    17    16   ar
    86    41    40    2
    87    40    39    1
    88    18    16   ar
    89    16    15    1
    90    43    42    1
    91    28    29   ar
    92    28    26   ar
    93   135   133   ar
    94   135   137   ar
    95   133   132   ar
    96    39    42    1
    97    39    38    1
    98    29    27   ar
    99    26    24   ar
   100    42    44    1
   101   129   130    2
   102   129   128    1
   103    15    14    1
   104   128   131    1
   105   128   127    1
   106    14    11    1
   107    27    25   ar
   108   137   138    1
   109   137   136   ar
   110   132   131    1
   111   132   134   ar
   112    24    25   ar
   113    24    23    1
   114    38    32   am
   115     8     7    2
   116    23    20    1
   117     9     7   am
   118   136   134   ar
   119     7     6    1
   120    11    10    1
   121    11    12    1
   122    32    33    2
   123    32    31    1
   124    30    21   am
   125    30    31    1
   126    20    21    1
   127    20    19    1
   128    21    22    2
   129    12    13    2
   130    31    34    1
   131     6     5    1
   132     2     5    1
   133     2     3    1
   134     2     1    1
   135   167   165   am
   136     3     4    2
   137    34    35    1
   138   165   164    1
   139   165   166    2
   140   164   163    1
   141   125   124   ar
   142   121   120    2
   143    35    37   am
   144    35    36    2
   145   163   160    1
   146   120   119    1
   147   162   161    2
   148   119   118    1
   149   119   122    1
   150   124   126   ar
   151   124   123    1
   152   160   161    1
   153   160   159    1
   154   157   158    1
   155   157   156    1
   156   122   123    1
   157   155   156    1
   158   155   152    1
   159   154   153    2
   160   153   152    1
   161   152   151    1
