@<TRIPOS>MOLECULE
tmp/4k5mA00.pdb
 124 120 0 0 0
SMALL
GASTEIGER

@<TRIPOS>ATOM
      1  N         14.1560   20.6090   19.8970 N.3   122  GLN122     -0.1245
      2  CA        13.7370   19.3710   19.2810 C.3   122  GLN122      0.1566
      3  C         12.3700   19.0350   19.8450 C.2   122  GLN122      0.2260
      4  O         12.2280   18.7420   21.0590 O.2   122  GLN122     -0.2867
      5  CB        14.7550   18.2790   19.4990 C.3   122  GLN122      0.0367
      6  CG        14.2510   16.8920   19.1230 C.3   122  GLN122      0.0905
      7  CD        13.8370   16.8350   17.6480 C.2   122  GLN122      0.2608
      8  OE1       14.4850   17.4680   16.7700 O.2   122  GLN122     -0.2717
      9  NE2       12.7550   16.0800   17.3590 N.am  122  GLN122     -0.0878
     10  N          9.6890   16.9790   18.1080 N.3   124  GLU124     -0.1245
     11  CA         9.0340   15.6760   17.8280 C.3   124  GLU124      0.1567
     12  C          9.5540   14.6050   18.8700 C.2   124  GLU124      0.2260
     13  O         10.7990   14.4670   19.1180 O.2   124  GLU124     -0.2867
     14  CB         9.4400   15.1550   16.4100 C.3   124  GLU124      0.0388
     15  CG         8.4710   14.0000   16.0420 C.3   124  GLU124      0.1160
     16  CD         8.7590   13.4090   14.6490 C.2   124  GLU124      0.3649
     17  OE1        9.5810   13.9790   13.9140 O.co2 124  GLU124     -0.2457
     18  OE2        8.0570   12.4610   14.2870 O.co2 124  GLU124     -0.2457
     19  N         22.7530   15.6240   19.3560 N.3   262  PHE262     -0.1241
     20  CA        21.4570   15.3420   18.7150 C.3   262  PHE262      0.1605
     21  C         21.1920   13.8360   18.8400 C.2   262  PHE262      0.2264
     22  O         22.1260   13.0160   18.8470 O.2   262  PHE262     -0.2867
     23  CB        21.5090   15.7900   17.2270 C.3   262  PHE262      0.0534
     24  CG        20.1650   16.1450   16.6650 C.ar  262  PHE262     -0.0203
     25  CD1       19.5420   17.3980   16.9550 C.ar  262  PHE262     -0.0042
     26  CD2       19.4670   15.1970   15.8510 C.ar  262  PHE262     -0.0042
     27  CE1       18.2390   17.6930   16.4490 C.ar  262  PHE262     -0.0003
     28  CE2       18.1460   15.5080   15.3510 C.ar  262  PHE262     -0.0003
     29  CZ        17.5420   16.7470   15.6630 C.ar  262  PHE262     -0.0000
     30  N         19.7580   11.1900   16.9360 N.3   264  VAL264     -0.1231
     31  CA        20.0250   10.2340   15.7720 C.3   264  VAL264      0.1692
     32  C         19.4170   10.7250   14.4080 C.2   264  VAL264      0.2593
     33  O         18.2890   10.7930   14.2960 O.2   264  VAL264     -0.2718
     34  CB        19.7760    8.6240   15.9500 C.3   264  VAL264      0.0266
     35  CG1       19.4730    7.9550   14.6870 C.3   264  VAL264      0.0020
     36  CG2       20.9550    7.8820   16.5060 C.3   264  VAL264      0.0020
     37  N         20.1910   11.0080   13.3930 N.am  265  GLY265     -0.1942
     38  CA        19.6260   11.5190   12.1730 C.3   265  GLY265      0.2014
     39  C         19.3470   13.0310   12.1720 C.2   265  GLY265      0.2639
     40  O         20.2150   13.7970   12.3770 O.2   265  GLY265     -0.2714
     41  N         18.1160   13.4160   11.9280 N.am  266  ALA266     -0.1963
     42  CA        17.7730   14.8440   11.7670 C.3   266  ALA266      0.1728
     43  C         16.2880   15.1060   12.0510 C.2   266  ALA266      0.2616
     44  O         15.6220   14.2280   12.5730 O.2   266  ALA266     -0.2715
     45  CB        18.1610   15.3400   10.3720 C.3   266  ALA266      0.0334
     46  N         15.7780   16.2900   11.7340 N.am  267  MET267     -0.1963
     47  CA        14.3780   16.5970   12.0770 C.3   267  MET267      0.1736
     48  C         13.8440   17.5820   11.0780 C.2   267  MET267      0.2616
     49  O         14.4990   18.5880   10.8070 O.2   267  MET267     -0.2715
     50  CB        14.3400   17.2060   13.4890 C.3   267  MET267      0.0427
     51  CG        12.9350   17.6670   13.8430 C.3   267  MET267      0.0599
     52  SD        11.7830   16.2520   13.8700 S.3   267  MET267     -0.1393
     53  CE        10.2220   17.0720   13.4080 C.3   267  MET267      0.0692
     54  N         12.6730   17.2840   10.5310 N.am  268  GLU268     -0.1977
     55  CA        12.0480   18.0420    9.4330 C.3   268  GLU268      0.1602
     56  C         11.2240   19.2960    9.8170 C.2   268  GLU268      0.2287
     57  O         10.2870   19.6580    9.0980 O.2   268  GLU268     -0.2864
     58  CB        11.1990   17.1210    8.5790 C.3   268  GLU268      0.0415
     59  CG         9.8470   16.6890    9.2260 C.3   268  GLU268      0.1163
     60  CD         9.9170   15.4650   10.1600 C.2   268  GLU268      0.3649
     61  OE1       11.0430   15.1070   10.6020 O.co2 268  GLU268     -0.2457
     62  OE2        8.8370   14.8380   10.3100 O.co2 268  GLU268     -0.2457
     63  N         15.9850   12.5920    3.0280 N.3   301  HIS301     -0.1226
     64  CA        14.8810   12.2020    3.8740 C.3   301  HIS301      0.1752
     65  C         14.1630   13.4410    4.4670 C.2   301  HIS301      0.2598
     66  O         12.9360   13.5390    4.3730 O.2   301  HIS301     -0.2717
     67  CB        15.4430   11.3500    5.0900 C.3   301  HIS301      0.0759
     68  CG        14.3690   10.8210    5.9940 C.ar  301  HIS301      0.0818
     69  ND1       13.8420    9.5620    5.8440 N.ar  301  HIS301     -0.2268
     70  CD2       13.7290   11.3850    7.0570 C.ar  301  HIS301      0.1154
     71  CE1       12.9630    9.3460    6.8080 C.ar  301  HIS301      0.1986
     72  NE2       12.8740   10.4290    7.5440 N.ar  301  HIS301     -0.2212
     73  N         14.9180   14.3660    5.0690 N.am  302  GLU302     -0.1934
     74  CA        14.2670   15.5380    5.6790 C.3   302  GLU302      0.1818
     75  C         13.5890   16.4130    4.6090 C.2   302  GLU302      0.2332
     76  O         12.5000   16.9940    4.8630 O.2   302  GLU302     -0.2860
     77  CB        15.2670   16.4150    6.4470 C.2   302  GLU302      0.0097
     78  CG        15.7250   15.9620    7.8510 C.2   302  GLU302      0.0837
     79  CD        15.1210   14.7680    8.4430 C.2   302  GLU302      0.3877
     80  OE1       13.9980   14.7960    8.9760 O.co2 302  GLU302     -0.2406
     81  OE2       15.7710   13.7630    8.4730 O.co2 302  GLU302     -0.2406
     82  N         10.1920   14.8570    3.6090 N.3   305  HIS305     -0.1241
     83  CA         9.1770   15.0560    4.6350 C.3   305  HIS305      0.1621
     84  C          8.3810   16.3190    4.3170 C.2   305  HIS305      0.2264
     85  O          7.2490   16.4690    4.7820 O.2   305  HIS305     -0.2867
     86  CB         9.8050   15.1610    6.0470 C.3   305  HIS305      0.0745
     87  CG         9.9080   13.8720    6.8190 C.ar  305  HIS305      0.0817
     88  ND1        8.8190   13.0170    6.9920 N.ar  305  HIS305     -0.2268
     89  CD2       10.9090   13.3620    7.5730 C.ar  305  HIS305      0.1154
     90  CE1        9.1470   12.0330    7.8130 C.ar  305  HIS305      0.1986
     91  NE2       10.4470   12.1580    8.1440 N.ar  305  HIS305     -0.2212
     92  N          6.8660    8.1010    8.2220 N.3   324  GLU324     -0.1245
     93  CA         8.2450    7.6440    8.2430 C.3   324  GLU324      0.1567
     94  C          8.4950    6.5360    7.2350 C.2   324  GLU324      0.2260
     95  O          9.5130    6.5240    6.5730 O.2   324  GLU324     -0.2867
     96  CB         8.6550    7.1710    9.6210 C.3   324  GLU324      0.0388
     97  CG         8.6360    8.3070   10.6610 C.3   324  GLU324      0.1160
     98  CD         9.5080    9.5010   10.2160 C.2   324  GLU324      0.3649
     99  OE1       10.3600    9.3530    9.3050 O.co2 324  GLU324     -0.2457
    100  OE2        9.3900   10.5830   10.8300 O.co2 324  GLU324     -0.2457
    101  N         10.0440    4.9240   17.5520 N.3   380  TYR380     -0.1241
    102  CA        10.7750    5.3220   16.3450 C.3   380  TYR380      0.1605
    103  C         11.7580    4.1890   16.0260 C.2   380  TYR380      0.2264
    104  O         12.9810    4.3050   16.2260 O.2   380  TYR380     -0.2867
    105  CB        11.4900    6.6560   16.5890 C.3   380  TYR380      0.0534
    106  CG        10.4530    7.7960   16.5440 C.ar  380  TYR380     -0.0201
    107  CD1       10.3800    8.6360   15.4260 C.ar  380  TYR380     -0.0009
    108  CD2        9.5700    8.0390   17.6200 C.ar  380  TYR380     -0.0009
    109  CE1        9.3980    9.6990   15.3450 C.ar  380  TYR380      0.0417
    110  CE2        8.6160    9.0320   17.5790 C.ar  380  TYR380      0.0417
    111  CZ         8.5290    9.8790   16.4400 C.ar  380  TYR380      0.1957
    112  OH         7.5400   10.8190   16.4540 O.3   380  TYR380     -0.2866
    113  N         10.0760    2.3650   10.6420 N.3   385  TYR385     -0.1241
    114  CA        10.7690    2.9660    9.5280 C.3   385  TYR385      0.1605
    115  C         11.0810    2.0480    8.3660 C.2   385  TYR385      0.2264
    116  O         10.7170    2.3640    7.2090 O.2   385  TYR385     -0.2867
    117  CB        12.0950    3.5330    9.9990 C.3   385  TYR385      0.0534
    118  CG        11.9980    4.8830   10.6560 C.ar  385  TYR385     -0.0201
    119  CD1       12.6030    6.0180   10.0380 C.ar  385  TYR385     -0.0009
    120  CD2       11.2630    5.0650   11.8390 C.ar  385  TYR385     -0.0009
    121  CE1       12.5250    7.3000   10.6450 C.ar  385  TYR385      0.0417
    122  CE2       11.2160    6.3290   12.4560 C.ar  385  TYR385      0.0417
    123  CZ        11.8140    7.4230   11.8590 C.ar  385  TYR385      0.1957
    124  OH        11.7780    8.7210   12.4410 O.3   385  TYR385     -0.2866
@<TRIPOS>BOND
     1    63    64    1
     2    82    83    1
     3    64    65    1
     4    64    67    1
     5    84    83    1
     6    84    85    2
     7    66    65    2
     8    65    73   am
     9    75    76    2
    10    75    74    1
    11    83    86    1
    12    73    74    1
    13    67    68    1
    14    74    77    1
    15    69    68   ar
    16    69    71   ar
    17    68    70   ar
    18    86    87    1
    19    77    78    2
    20    95    94    2
    21    71    72   ar
    22    87    88   ar
    23    87    89   ar
    24    88    90   ar
    25    70    72   ar
    26   116   115    2
    27    94    93    1
    28    89    91   ar
    29    90    91   ar
    30    78    79    1
    31    92    93    1
    32    93    96    1
    33   115   114    1
    34    79    81   ar
    35    79    80   ar
    36    58    59    1
    37    58    55    1
    38    57    56    2
    39    59    60    1
    40    99    98   ar
    41    55    56    1
    42    55    54    1
    43   114   117    1
    44   114   113    1
    45    96    97    1
    46   117   118    1
    47   119   121   ar
    48   119   118   ar
    49    60    62   ar
    50    60    61   ar
    51    98    97    1
    52    98   100   ar
    53    45    42    1
    54    54    48   am
    55   121   123   ar
    56   118   120   ar
    57    49    48    2
    58    48    47    1
    59    46    43   am
    60    46    47    1
    61    42    41    1
    62    42    43    1
    63   120   122   ar
    64   123   124    1
    65   123   122   ar
    66    41    39   am
    67    43    44    2
    68    47    50    1
    69    39    38    1
    70    39    40    2
    71    38    37    1
    72    37    32   am
    73    53    52    1
    74    50    51    1
    75    51    52    1
    76    17    16   ar
    77    18    16   ar
    78    33    32    2
    79    32    31    1
    80    16    15    1
    81    35    34    1
    82   109   107   ar
    83   109   111   ar
    84    28    29   ar
    85    28    26   ar
    86   107   106   ar
    87    29    27   ar
    88    31    34    1
    89    31    30    1
    90    26    24   ar
    91    34    36    1
    92   103   104    2
    93   103   102    1
    94    15    14    1
    95   102   105    1
    96   102   101    1
    97    14    11    1
    98   111   112    1
    99   111   110   ar
   100    27    25   ar
   101   106   105    1
   102   106   108   ar
   103    24    25   ar
   104    24    23    1
   105     8     7    2
   106    23    20    1
   107     9     7   am
   108   110   108   ar
   109     7     6    1
   110    11    10    1
   111    11    12    1
   112    20    21    1
   113    20    19    1
   114    21    22    2
   115    12    13    2
   116     6     5    1
   117     2     5    1
   118     2     3    1
   119     2     1    1
   120     3     4    2
