@<TRIPOS>MOLECULE
tmp/4k5nA00.pdb
 147 141 0 0 0
SMALL
GASTEIGER

@<TRIPOS>ATOM
      1  N         14.1320   20.6460   19.8630 N.3   122  GLN122     -0.1245
      2  CA        13.6610   19.4130   19.2300 C.3   122  GLN122      0.1566
      3  C         12.3110   19.0890   19.8240 C.2   122  GLN122      0.2260
      4  O         12.1910   18.7600   21.0440 O.2   122  GLN122     -0.2867
      5  CB        14.6750   18.2970   19.4380 C.3   122  GLN122      0.0367
      6  CG        14.1640   16.8690   19.0530 C.3   122  GLN122      0.0905
      7  CD        13.7400   16.8530   17.5770 C.2   122  GLN122      0.2608
      8  OE1       14.4110   17.4790   16.6830 O.2   122  GLN122     -0.2717
      9  NE2       12.6410   16.1290   17.2980 N.am  122  GLN122     -0.0878
     10  N          9.5520   16.9950   18.0790 N.3   124  GLU124     -0.1245
     11  CA         8.9010   15.6780   17.7700 C.3   124  GLU124      0.1567
     12  C          9.4370   14.5960   18.7700 C.2   124  GLU124      0.2260
     13  O         10.6740   14.4850   18.9530 O.2   124  GLU124     -0.2867
     14  CB         9.2160   15.2170   16.3140 C.3   124  GLU124      0.0388
     15  CG         8.2480   14.0430   15.9640 C.3   124  GLU124      0.1160
     16  CD         8.3350   13.5360   14.5200 C.2   124  GLU124      0.3649
     17  OE1        9.0940   14.0900   13.6900 O.co2 124  GLU124     -0.2457
     18  OE2        7.6620   12.5500   14.2590 O.co2 124  GLU124     -0.2457
     19  N         19.7090   13.5650   19.2520 N.3   263  ASN263     -0.1225
     20  CA        19.4310   12.1590   19.6050 C.3   263  ASN263      0.1785
     21  C         19.3830   11.2010   18.4190 C.2   263  ASN263      0.2597
     22  O         19.7300   10.0220   18.5620 O.2   263  ASN263     -0.2718
     23  CB        18.1150   12.0650   20.4070 C.3   263  ASN263      0.1169
     24  CG        18.2470   12.6180   21.7920 C.2   263  ASN263      0.2627
     25  OD1       19.3520   12.6550   22.3900 O.2   263  ASN263     -0.2716
     26  ND2       17.1340   13.1400   22.3110 N.am  263  ASN263     -0.0877
     27  N         18.8950   11.6710   17.2650 N.am  264  VAL264     -0.1966
     28  CA        18.8190   10.8340   16.0550 C.3   264  VAL264      0.1727
     29  C         19.6150   11.4890   14.9280 C.2   264  VAL264      0.2617
     30  O         20.6610   12.0950   15.2030 O.2   264  VAL264     -0.2715
     31  CB        17.3610   10.5080   15.7320 C.3   264  VAL264      0.0290
     32  CG1       16.7640    9.7490   16.9250 C.3   264  VAL264      0.0023
     33  CG2       16.4620   11.8090   15.4870 C.3   264  VAL264      0.0023
     34  N         19.1550   11.3410   13.6910 N.am  265  GLY265     -0.1940
     35  CA        19.8970   11.8880   12.5010 C.3   265  GLY265      0.2014
     36  C         19.5170   13.3590   12.2350 C.2   265  GLY265      0.2639
     37  O         20.3920   14.2160   12.0590 O.2   265  GLY265     -0.2714
     38  N         18.2150   13.6350   12.1400 N.am  266  ALA266     -0.1963
     39  CA        17.7500   15.0170   11.8320 C.3   266  ALA266      0.1728
     40  C         16.2380   15.1470   12.0540 C.2   266  ALA266      0.2616
     41  O         15.6300   14.2310   12.5990 O.2   266  ALA266     -0.2715
     42  CB        18.1020   15.3480   10.4190 C.3   266  ALA266      0.0334
     43  N         15.6550   16.3080   11.6980 N.am  267  MET267     -0.1963
     44  CA        14.2560   16.6030   12.0050 C.3   267  MET267      0.1736
     45  C         13.7570   17.6080   11.0080 C.2   267  MET267      0.2616
     46  O         14.4770   18.6050   10.6980 O.2   267  MET267     -0.2715
     47  CB        14.1400   17.1770   13.4590 C.3   267  MET267      0.0427
     48  CG        12.7420   17.7640   13.7810 C.3   267  MET267      0.0599
     49  SD        11.5690   16.3360   13.7600 S.3   267  MET267     -0.1393
     50  CE         9.9580   17.1120   13.2480 C.3   267  MET267      0.0692
     51  N         12.5470   17.3580   10.4850 N.am  268  GLU268     -0.1977
     52  CA        11.9800   18.1210    9.3560 C.3   268  GLU268      0.1602
     53  C         11.1450   19.3890    9.7330 C.2   268  GLU268      0.2287
     54  O         10.1440   19.7320    9.0560 O.2   268  GLU268     -0.2864
     55  CB        11.1270   17.2320    8.4860 C.3   268  GLU268      0.0415
     56  CG         9.7470   16.8910    9.1630 C.3   268  GLU268      0.1163
     57  CD         9.7610   15.6160   10.0230 C.2   268  GLU268      0.3649
     58  OE1       10.8630   15.2540   10.5070 O.co2 268  GLU268     -0.2457
     59  OE2        8.6750   14.9610   10.1040 O.co2 268  GLU268     -0.2457
     60  N         15.8670   12.5570    3.0870 N.3   301  HIS301     -0.1226
     61  CA        14.7280   12.1770    3.9160 C.3   301  HIS301      0.1752
     62  C         13.9940   13.4120    4.5290 C.2   301  HIS301      0.2595
     63  O         12.7330   13.4980    4.4880 O.2   301  HIS301     -0.2718
     64  CB        15.2550   11.3530    5.0610 C.3   301  HIS301      0.0759
     65  CG        14.2240   10.8820    6.0310 C.ar  301  HIS301      0.0818
     66  ND1       13.7940    9.5750    6.0570 N.ar  301  HIS301     -0.2268
     67  CD2       13.6150   11.5030    7.0880 C.ar  301  HIS301      0.1154
     68  CE1       12.9390    9.4050    7.0590 C.ar  301  HIS301      0.1986
     69  NE2       12.8000   10.5560    7.6900 N.ar  301  HIS301     -0.2212
     70  N         14.7520   14.3220    5.1240 N.am  302  GLU302     -0.1979
     71  CA        14.0980   15.5390    5.6620 C.3   302  GLU302      0.1602
     72  C         13.4320   16.4190    4.5920 C.2   302  GLU302      0.2287
     73  O         12.3470   16.9970    4.8810 O.2   302  GLU302     -0.2864
     74  CB        15.0450   16.3950    6.5290 C.3   302  GLU302      0.0415
     75  CG        15.8000   15.5350    7.6450 C.3   302  GLU302      0.1163
     76  CD        14.8910   14.7240    8.5680 C.2   302  GLU302      0.3649
     77  OE1       13.7050   14.9930    8.7220 O.co2 302  GLU302     -0.2457
     78  OE2       15.4270   13.8060    9.1610 O.co2 302  GLU302     -0.2457
     79  N         10.0610   14.8530    3.6350 N.3   305  HIS305     -0.1241
     80  CA         9.0260   15.0370    4.6480 C.3   305  HIS305      0.1621
     81  C          8.2510   16.3130    4.3120 C.2   305  HIS305      0.2264
     82  O          7.1470   16.4870    4.7200 O.2   305  HIS305     -0.2867
     83  CB         9.6480   15.2080    6.0370 C.3   305  HIS305      0.0745
     84  CG         9.7660   13.9170    6.8200 C.ar  305  HIS305      0.0817
     85  ND1        8.6870   13.0580    6.9620 N.ar  305  HIS305     -0.2268
     86  CD2       10.7580   13.4100    7.6000 C.ar  305  HIS305      0.1154
     87  CE1        9.0220   12.0500    7.7680 C.ar  305  HIS305      0.1986
     88  NE2       10.2970   12.2080    8.1320 N.ar  305  HIS305     -0.2212
     89  N          3.9010    8.7060    7.5610 N.3   323  LYS323     -0.1231
     90  CA         4.9500    9.6980    7.1930 C.3   323  LYS323      0.1693
     91  C          6.3040    9.0910    7.2450 C.2   323  LYS323      0.2591
     92  O          7.1030    9.3670    6.3710 O.2   323  LYS323     -0.2718
     93  CB         4.9230   11.0480    7.9530 C.3   323  LYS323      0.0285
     94  CG         5.4940   11.1120    9.3880 C.3   323  LYS323      0.0035
     95  CD         5.4370   12.6080   10.0760 C.3   323  LYS323      0.0206
     96  CE         5.9890   12.5810   11.5060 C.3   323  LYS323      0.1093
     97  NZ         7.4970   12.7440   11.5190 N.3   323  LYS323     -0.1314
     98  N          6.5740    8.1860    8.1980 N.am  324  GLU324     -0.1979
     99  CA         7.9840    7.7200    8.2290 C.3   324  GLU324      0.1602
    100  C          8.2430    6.6240    7.2180 C.2   324  GLU324      0.2287
    101  O          9.2910    6.5920    6.6020 O.2   324  GLU324     -0.2864
    102  CB         8.4080    7.2350    9.6070 C.3   324  GLU324      0.0415
    103  CG         8.4060    8.3290   10.6850 C.3   324  GLU324      0.1163
    104  CD         9.2470    9.5480   10.2390 C.2   324  GLU324      0.3649
    105  OE1       10.1350    9.3810    9.3680 O.co2 324  GLU324     -0.2457
    106  OE2        9.1000   10.6350   10.7940 O.co2 324  GLU324     -0.2457
    107  N          8.0670    8.4620   22.6060 N.3   377  GLU377     -0.1245
    108  CA         9.4600    8.5760   22.2420 C.3   377  GLU377      0.1567
    109  C         10.0900    7.1930   21.9040 C.2   377  GLU377      0.2260
    110  O         11.0910    7.1430   21.1790 O.2   377  GLU377     -0.2867
    111  CB        10.2510    9.4320   23.2740 C.3   377  GLU377      0.0388
    112  CG         9.7740   10.8590   23.3770 C.3   377  GLU377      0.1160
    113  CD         9.9920   11.6940   22.1570 C.2   377  GLU377      0.3649
    114  OE1       10.7900   11.3160   21.2590 O.co2 377  GLU377     -0.2457
    115  OE2        9.4310   12.8000   22.1580 O.co2 377  GLU377     -0.2457
    116  N          9.5090    5.1300   17.5700 N.3   380  TYR380     -0.1241
    117  CA        10.1620    5.4460   16.3160 C.3   380  TYR380      0.1605
    118  C         11.1500    4.3030   16.0330 C.2   380  TYR380      0.2264
    119  O         12.3210    4.4330   16.2700 O.2   380  TYR380     -0.2867
    120  CB        10.8810    6.7800   16.4340 C.3   380  TYR380      0.0534
    121  CG         9.8920    7.9280   16.3960 C.ar  380  TYR380     -0.0201
    122  CD1        9.6370    8.5930   15.1930 C.ar  380  TYR380     -0.0009
    123  CD2        9.1940    8.3030   17.5590 C.ar  380  TYR380     -0.0009
    124  CE1        8.6770    9.6970   15.1550 C.ar  380  TYR380      0.0417
    125  CE2        8.2560    9.3740   17.5510 C.ar  380  TYR380      0.0417
    126  CZ         7.9580    9.9980   16.3440 C.ar  380  TYR380      0.1957
    127  OH         7.0480   11.0380   16.3520 O.3   380  TYR380     -0.2866
    128  N          9.7340    2.3740   10.5360 N.3   385  TYR385     -0.1241
    129  CA        10.5050    3.0080    9.4610 C.3   385  TYR385      0.1605
    130  C         10.8070    2.0910    8.2970 C.2   385  TYR385      0.2264
    131  O         10.5370    2.4350    7.1420 O.2   385  TYR385     -0.2867
    132  CB        11.8560    3.5220    9.9700 C.3   385  TYR385      0.0534
    133  CG        11.7390    4.8810   10.6700 C.ar  385  TYR385     -0.0201
    134  CD1       12.3860    6.0130   10.1260 C.ar  385  TYR385     -0.0009
    135  CD2       10.9170    5.0540   11.8030 C.ar  385  TYR385     -0.0009
    136  CE1       12.3110    7.2800   10.7700 C.ar  385  TYR385      0.0417
    137  CE2       10.8360    6.3690   12.4650 C.ar  385  TYR385      0.0417
    138  CZ        11.5350    7.4410   11.9210 C.ar  385  TYR385      0.1957
    139  OH        11.4410    8.7550   12.4960 O.3   385  TYR385     -0.2866
    140  N         16.2690    8.7790   26.2680 N.3   839  MET839     -0.1245
    141  CA        16.1660    8.3200   24.8680 C.3   839  MET839      0.1570
    142  C         17.4560    7.6060   24.4230 C.2   839  MET839      0.2261
    143  O         17.4240    6.4810   23.8550 O.2   839  MET839     -0.2867
    144  CB        15.7610    9.4470   23.9130 C.3   839  MET839      0.0387
    145  CG        14.3700    9.9380   24.2520 C.3   839  MET839      0.0595
    146  SD        13.6800   11.3690   23.3480 S.3   839  MET839     -0.1393
    147  CE        12.9920   12.0980   24.8020 C.3   839  MET839      0.0692
@<TRIPOS>BOND
     1    60    61    1
     2    79    80    1
     3    61    62    1
     4    61    64    1
     5    81    80    1
     6    81    82    2
     7    63    62    2
     8    62    70   am
     9    72    73    2
    10    72    71    1
    11    80    83    1
    12    64    65    1
    13    70    71    1
    14    71    74    1
    15    65    66   ar
    16    65    67   ar
    17    83    84    1
    18    66    68   ar
    19    92    91    2
    20    74    75    1
    21   101   100    2
    22    84    85   ar
    23    84    86   ar
    24    85    87   ar
    25    68    69   ar
    26    67    69   ar
    27   131   130    2
    28    90    91    1
    29    90    89    1
    30    90    93    1
    31   100    99    1
    32    91    98   am
    33    86    88   ar
    34    75    76    1
    35    87    88   ar
    36    93    94    1
    37    98    99    1
    38    99   102    1
    39   130   129    1
    40    55    56    1
    41    55    52    1
    42    76    77   ar
    43    76    78   ar
    44    54    53    2
    45    56    57    1
    46    52    53    1
    47    52    51    1
    48   105   104   ar
    49    94    95    1
    50   129   132    1
    51   129   128    1
    52   102   103    1
    53   132   133    1
    54    57    59   ar
    55    57    58   ar
    56    95    96    1
    57   134   133   ar
    58   134   136   ar
    59   104   103    1
    60   104   106   ar
    61    42    39    1
    62    51    45   am
    63   133   135   ar
    64    46    45    2
    65   136   138   ar
    66    45    44    1
    67    96    97    1
    68    43    44    1
    69    43    40   am
    70   135   137   ar
    71    39    40    1
    72    39    38    1
    73   138   137   ar
    74   138   139    1
    75    44    47    1
    76    40    41    2
    77    37    36    2
    78    38    36   am
    79    36    35    1
    80    35    34    1
    81    50    49    1
    82    47    48    1
    83    17    16   ar
    84    34    29   am
    85    49    48    1
    86    18    16   ar
    87    16    15    1
    88    29    30    2
    89    29    28    1
    90   124   122   ar
    91   124   126   ar
    92   122   121   ar
    93    33    31    1
    94    31    28    1
    95    31    32    1
    96    15    14    1
    97   118   119    2
    98   118   117    1
    99    28    27    1
   100    14    11    1
   101   117   120    1
   102   117   116    1
   103   126   127    1
   104   126   125   ar
   105   121   120    1
   106   121   123   ar
   107     8     7    2
   108    27    21   am
   109     9     7   am
   110   125   123   ar
   111     7     6    1
   112    11    10    1
   113    11    12    1
   114    21    22    2
   115    21    20    1
   116    12    13    2
   117     6     5    1
   118     2     5    1
   119     2     3    1
   120     2     1    1
   121    19    20    1
   122    20    23    1
   123     3     4    2
   124    23    24    1
   125   110   109    2
   126   114   113   ar
   127    24    26   am
   128    24    25    2
   129   109   108    1
   130   113   115   ar
   131   113   112    1
   132   108   107    1
   133   108   111    1
   134   111   112    1
   135   146   145    1
   136   146   147    1
   137   143   142    2
   138   144   145    1
   139   144   141    1
   140   142   141    1
   141   141   140    1
