@<TRIPOS>MOLECULE
tmp/4k5oA00.pdb
 167 160 0 0 0
SMALL
GASTEIGER

@<TRIPOS>ATOM
      1  N         15.6260   17.2410   24.2840 N.3   110  THR110     -0.1218
      2  CA        14.2740   17.2470   23.7850 C.3   110  THR110      0.1862
      3  C         13.6880   18.5610   24.3270 C.2   110  THR110      0.2287
      4  O         14.1000   18.9650   25.4300 O.2   110  THR110     -0.2866
      5  CB        13.4870   15.9590   24.2560 C.3   110  THR110      0.1770
      6  OG1       12.1350   16.1030   23.7830 O.3   110  THR110     -0.2211
      7  CG2       13.3940   15.9050   25.7930 C.3   110  THR110      0.0375
      8  N         13.9670   20.5560   19.7760 N.3   122  GLN122     -0.1245
      9  CA        13.6160   19.3150   19.2020 C.3   122  GLN122      0.1566
     10  C         12.2340   18.9610   19.7800 C.2   122  GLN122      0.2260
     11  O         12.1030   18.5950   20.9930 O.2   122  GLN122     -0.2867
     12  CB        14.6810   18.2120   19.4950 C.3   122  GLN122      0.0367
     13  CG        14.1650   16.8420   19.0840 C.3   122  GLN122      0.0905
     14  CD        13.7410   16.8340   17.6290 C.2   122  GLN122      0.2608
     15  OE1       14.4330   17.4140   16.7220 O.2   122  GLN122     -0.2717
     16  NE2       12.5840   16.1990   17.3680 N.am  122  GLN122     -0.0878
     17  N          9.4680   16.9560   17.9700 N.3   124  GLU124     -0.1231
     18  CA         8.8810   15.5980   17.7390 C.3   124  GLU124      0.1699
     19  C          9.4050   14.5790   18.7870 C.2   124  GLU124      0.2592
     20  O         10.6270   14.5590   19.0780 O.2   124  GLU124     -0.2718
     21  CB         9.2350   15.0760   16.3510 C.3   124  GLU124      0.0402
     22  CG         8.2560   14.0010   15.9230 C.3   124  GLU124      0.1161
     23  CD         8.4630   13.5170   14.4940 C.2   124  GLU124      0.3649
     24  OE1        9.3270   14.0570   13.7550 O.co2 124  GLU124     -0.2457
     25  OE2        7.7500   12.5800   14.1010 O.co2 124  GLU124     -0.2457
     26  N          8.5220   13.7850   19.3830 N.am  125  ALA125     -0.1980
     27  CA         7.0700   13.8750   19.1740 C.3   125  ALA125      0.1597
     28  C          6.3820   14.7870   20.1570 C.2   125  ALA125      0.2287
     29  O          5.4560   15.4930   19.7910 O.2   125  ALA125     -0.2864
     30  CB         6.4710   12.5270   19.2570 C.3   125  ALA125      0.0319
     31  N         19.7610   13.4870   19.2090 N.3   263  ASN263     -0.1225
     32  CA        19.4460   12.0950   19.6080 C.3   263  ASN263      0.1785
     33  C         19.3980   11.1440   18.4070 C.2   263  ASN263      0.2597
     34  O         19.7300    9.9760   18.5190 O.2   263  ASN263     -0.2718
     35  CB        18.1880   12.0030   20.4340 C.3   263  ASN263      0.1169
     36  CG        18.3440   12.6110   21.7700 C.2   263  ASN263      0.2627
     37  OD1       19.4310   12.5820   22.3500 O.2   263  ASN263     -0.2716
     38  ND2       17.2670   13.1570   22.3120 N.am  263  ASN263     -0.0877
     39  N         18.9270   11.6420   17.2730 N.am  264  VAL264     -0.1966
     40  CA        18.8340   10.7740   16.0960 C.3   264  VAL264      0.1727
     41  C         19.6030   11.4250   14.9770 C.2   264  VAL264      0.2617
     42  O         20.5830   12.1340   15.2440 O.2   264  VAL264     -0.2715
     43  CB        17.3940   10.5090   15.7590 C.3   264  VAL264      0.0290
     44  CG1       16.6880    9.6480   16.8840 C.3   264  VAL264      0.0023
     45  CG2       16.5560   11.8690   15.5270 C.3   264  VAL264      0.0023
     46  N         19.1880   11.1980   13.7410 N.am  265  GLY265     -0.1940
     47  CA        19.8850   11.8170   12.5650 C.3   265  GLY265      0.2014
     48  C         19.4930   13.2770   12.2730 C.2   265  GLY265      0.2639
     49  O         20.3620   14.1320   12.0110 O.2   265  GLY265     -0.2714
     50  N         18.2000   13.5530   12.2150 N.am  266  ALA266     -0.1963
     51  CA        17.7290   14.8950   11.8890 C.3   266  ALA266      0.1728
     52  C         16.2500   15.0230   12.1080 C.2   266  ALA266      0.2616
     53  O         15.6080   14.0740   12.5590 O.2   266  ALA266     -0.2715
     54  CB        18.0530   15.1880   10.4600 C.3   266  ALA266      0.0334
     55  N         15.6970   16.1810   11.7220 N.am  267  MET267     -0.1963
     56  CA        14.3200   16.5070   12.0320 C.3   267  MET267      0.1736
     57  C         13.8120   17.4820   11.0230 C.2   267  MET267      0.2616
     58  O         14.5080   18.4760   10.7140 O.2   267  MET267     -0.2715
     59  CB        14.2370   17.1600   13.4350 C.3   267  MET267      0.0427
     60  CG        12.8450   17.6980   13.6820 C.3   267  MET267      0.0599
     61  SD        11.5710   16.3260   13.7330 S.3   267  MET267     -0.1393
     62  CE         9.9690   17.1110   13.2550 C.3   267  MET267      0.0692
     63  N         12.6140   17.2390   10.5200 N.am  268  GLU268     -0.1977
     64  CA        11.9940   18.0260    9.4100 C.3   268  GLU268      0.1602
     65  C         11.1820   19.2840    9.7400 C.2   268  GLU268      0.2287
     66  O         10.2050   19.6060    9.0200 O.2   268  GLU268     -0.2864
     67  CB        11.1010   17.1350    8.5790 C.3   268  GLU268      0.0415
     68  CG         9.7130   16.8300    9.2540 C.3   268  GLU268      0.1163
     69  CD         9.7470   15.6070   10.0930 C.2   268  GLU268      0.3649
     70  OE1       10.8450   15.3150   10.6280 O.co2 268  GLU268     -0.2457
     71  OE2        8.7050   14.8970   10.1630 O.co2 268  GLU268     -0.2457
     72  N         15.9200   12.5200    3.0750 N.3   301  HIS301     -0.1226
     73  CA        14.7940   12.1220    3.9350 C.3   301  HIS301      0.1752
     74  C         14.0280   13.3880    4.4690 C.2   301  HIS301      0.2595
     75  O         12.7890   13.4950    4.3500 O.2   301  HIS301     -0.2718
     76  CB        15.2960   11.3010    5.1380 C.3   301  HIS301      0.0759
     77  CG        14.2230   10.8370    6.0640 C.ar  301  HIS301      0.0818
     78  ND1       13.7220    9.5520    6.0230 N.ar  301  HIS301     -0.2268
     79  CD2       13.5560   11.4740    7.0740 C.ar  301  HIS301      0.1154
     80  CE1       12.8170    9.4070    6.9860 C.ar  301  HIS301      0.1986
     81  NE2       12.6710   10.5700    7.6110 N.ar  301  HIS301     -0.2212
     82  N         14.7390   14.3180    5.1240 N.am  302  GLU302     -0.1979
     83  CA        14.0750   15.5020    5.6980 C.3   302  GLU302      0.1602
     84  C         13.4220   16.4030    4.6320 C.2   302  GLU302      0.2287
     85  O         12.3770   17.0470    4.8840 O.2   302  GLU302     -0.2864
     86  CB        15.0430   16.3210    6.5490 C.3   302  GLU302      0.0415
     87  CG        15.7580   15.4740    7.6410 C.3   302  GLU302      0.1163
     88  CD        14.7960   14.6690    8.5250 C.2   302  GLU302      0.3649
     89  OE1       13.6120   14.9660    8.6310 O.co2 302  GLU302     -0.2457
     90  OE2       15.2510   13.6980    9.0780 O.co2 302  GLU302     -0.2457
     91  N         10.1190   14.9140    3.6110 N.3   305  HIS305     -0.1241
     92  CA         9.0630   15.0200    4.6470 C.3   305  HIS305      0.1621
     93  C          8.2430   16.2930    4.3250 C.2   305  HIS305      0.2264
     94  O          7.1210   16.4480    4.7870 O.2   305  HIS305     -0.2867
     95  CB         9.6290   15.1670    6.0520 C.3   305  HIS305      0.0745
     96  CG         9.7760   13.8840    6.8260 C.ar  305  HIS305      0.0817
     97  ND1        8.7340   12.9760    6.9550 N.ar  305  HIS305     -0.2268
     98  CD2       10.7720   13.4220    7.6210 C.ar  305  HIS305      0.1154
     99  CE1        9.1020   11.9870    7.7540 C.ar  305  HIS305      0.1986
    100  NE2       10.3690   12.1800    8.1270 N.ar  305  HIS305     -0.2212
    101  N          3.9290    8.5740    7.6320 N.3   323  LYS323     -0.1231
    102  CA         4.9220    9.6040    7.2560 C.3   323  LYS323      0.1693
    103  C          6.3020    9.0440    7.2570 C.2   323  LYS323      0.2591
    104  O          7.0460    9.3640    6.3820 O.2   323  LYS323     -0.2718
    105  CB         4.8480   10.9150    8.0470 C.3   323  LYS323      0.0285
    106  CG         5.4400   10.9940    9.4580 C.3   323  LYS323      0.0035
    107  CD         5.3670   12.4600   10.0090 C.3   323  LYS323      0.0206
    108  CE         5.9470   12.5780   11.4220 C.3   323  LYS323      0.1093
    109  NZ         7.4540   12.6810   11.4800 N.3   323  LYS323     -0.1314
    110  N          6.6410    8.1590    8.1850 N.am  324  GLU324     -0.1979
    111  CA         8.0560    7.7230    8.2150 C.3   324  GLU324      0.1602
    112  C          8.3350    6.6220    7.2140 C.2   324  GLU324      0.2287
    113  O          9.3370    6.6510    6.4690 O.2   324  GLU324     -0.2864
    114  CB         8.4830    7.2930    9.5960 C.3   324  GLU324      0.0415
    115  CG         8.4150    8.3480   10.6470 C.3   324  GLU324      0.1163
    116  CD         9.2510    9.5730   10.2320 C.2   324  GLU324      0.3649
    117  OE1       10.1050    9.4260    9.3300 O.co2 324  GLU324     -0.2457
    118  OE2        9.0090   10.6920   10.7370 O.co2 324  GLU324     -0.2457
    119  N          6.0560    7.4730   23.4830 N.3   376  MET376     -0.1230
    120  CA         6.3210    7.9390   22.1060 C.3   376  MET376      0.1702
    121  C          7.8260    8.0060   21.8670 C.2   376  MET376      0.2592
    122  O          8.2970    7.8910   20.7440 O.2   376  MET376     -0.2718
    123  CB         5.7520    9.3710   21.8510 C.3   376  MET376      0.0401
    124  CG         4.4510    9.4430   21.1030 C.3   376  MET376      0.0596
    125  SD         4.1200    8.0440   20.0090 S.3   376  MET376     -0.1393
    126  CE         5.0440    8.4330   18.5250 C.3   376  MET376      0.0692
    127  N          8.5850    8.2190   22.9380 N.am  377  GLU377     -0.1979
    128  CA        10.0410    8.2050   22.8070 C.3   377  GLU377      0.1602
    129  C         10.6080    6.8640   22.2650 C.2   377  GLU377      0.2287
    130  O         11.7230    6.8490   21.7150 O.2   377  GLU377     -0.2864
    131  CB        10.7100    8.6020   24.1440 C.3   377  GLU377      0.0415
    132  CG        10.2600    9.9820   24.6880 C.3   377  GLU377      0.1163
    133  CD        10.8060   10.4170   26.0140 C.2   377  GLU377      0.3649
    134  OE1       11.4370    9.7230   26.7640 O.co2 377  GLU377     -0.2457
    135  OE2       10.5570   11.5980   26.3160 O.co2 377  GLU377     -0.2457
    136  N          9.7450    5.1030   17.6200 N.3   380  TYR380     -0.1241
    137  CA        10.4000    5.3860   16.3560 C.3   380  TYR380      0.1605
    138  C         11.3630    4.2560   16.0600 C.2   380  TYR380      0.2264
    139  O         12.5410    4.3300   16.3720 O.2   380  TYR380     -0.2867
    140  CB        11.1410    6.7240   16.4360 C.3   380  TYR380      0.0534
    141  CG        10.1480    7.8560   16.4000 C.ar  380  TYR380     -0.0201
    142  CD1        9.9500    8.5860   15.2090 C.ar  380  TYR380     -0.0009
    143  CD2        9.3140    8.1130   17.4940 C.ar  380  TYR380     -0.0009
    144  CE1        8.9980    9.6670   15.1570 C.ar  380  TYR380      0.0417
    145  CE2        8.3300    9.1760   17.4540 C.ar  380  TYR380      0.0417
    146  CZ         8.1820    9.9210   16.3190 C.ar  380  TYR380      0.1957
    147  OH         7.1780   10.9390   16.3070 O.3   380  TYR380     -0.2866
    148  N          9.8570    2.3800   10.5180 N.3   385  TYR385     -0.1241
    149  CA        10.6270    3.0400    9.4520 C.3   385  TYR385      0.1605
    150  C         10.9580    2.0910    8.3510 C.2   385  TYR385      0.2264
    151  O         10.6340    2.3530    7.1790 O.2   385  TYR385     -0.2867
    152  CB        11.9240    3.5590   10.0310 C.3   385  TYR385      0.0534
    153  CG        11.7790    4.8990   10.6420 C.ar  385  TYR385     -0.0201
    154  CD1       12.4670    6.0050   10.0880 C.ar  385  TYR385     -0.0009
    155  CD2       10.9450    5.0770   11.7560 C.ar  385  TYR385     -0.0009
    156  CE1       12.3240    7.3090   10.6760 C.ar  385  TYR385      0.0417
    157  CE2       10.7800    6.3500   12.3410 C.ar  385  TYR385      0.0417
    158  CZ        11.4990    7.4460   11.8100 C.ar  385  TYR385      0.1957
    159  OH        11.3320    8.6860   12.3840 O.3   385  TYR385     -0.2866
    160  N         16.3780    8.7680   26.2090 N.3   839  MET839     -0.1301
    161  CA        16.2530    8.2840   24.8420 C.3   839  MET839      0.1256
    162  C         17.5110    7.4880   24.4120 C.3   839  MET839      0.2010
    163  O         17.4360    6.3370   23.8130 O.3   839  MET839     -0.2188
    164  CB        15.9990    9.3830   23.8350 C.3   839  MET839      0.0333
    165  CG        15.7220    8.7530   22.4410 C.3   839  MET839      0.0592
    166  SD        15.0020   10.0480   21.4140 S.3   839  MET839     -0.1393
    167  CE        13.9410   10.8380   22.6610 C.3   839  MET839      0.0692
@<TRIPOS>BOND
     1    72    73    1
     2    91    92    1
     3    73    74    1
     4    73    76    1
     5    93    92    1
     6    93    94    2
     7    75    74    2
     8    74    82   am
     9    84    85    2
    10    84    83    1
    11    92    95    1
    12    82    83    1
    13    76    77    1
    14    83    86    1
    15    78    77   ar
    16    78    80   ar
    17    95    96    1
    18    77    79   ar
    19   104   103    2
    20   113   112    2
    21    86    87    1
    22    96    97   ar
    23    96    98   ar
    24    97    99   ar
    25    80    81   ar
    26    79    81   ar
    27   151   150    2
    28   112   111    1
    29   102   103    1
    30   102   101    1
    31   102   105    1
    32   103   110   am
    33    98   100   ar
    34    87    88    1
    35    99   100   ar
    36   105   106    1
    37   110   111    1
    38   111   114    1
    39   150   149    1
    40    88    89   ar
    41    88    90   ar
    42    67    68    1
    43    67    64    1
    44    66    65    2
    45    68    69    1
    46   117   116   ar
    47    64    65    1
    48    64    63    1
    49   149   152    1
    50   149   148    1
    51   106   107    1
    52   114   115    1
    53   107   108    1
    54   152   153    1
    55   154   153   ar
    56   154   156   ar
    57    69    71   ar
    58    69    70   ar
    59   116   115    1
    60   116   118   ar
    61    54    51    1
    62    63    57   am
    63   153   155   ar
    64   156   158   ar
    65    58    57    2
    66    57    56    1
    67   108   109    1
    68    55    56    1
    69    55    52   am
    70   155   157   ar
    71   158   157   ar
    72   158   159    1
    73    51    52    1
    74    51    50    1
    75    49    48    2
    76    56    59    1
    77    52    53    2
    78    50    48   am
    79    48    47    1
    80    47    46    1
    81    62    61    1
    82    59    60    1
    83    60    61    1
    84    46    41   am
    85    24    23   ar
    86    25    23   ar
    87    23    22    1
    88    41    42    2
    89    41    40    1
    90   144   142   ar
    91   144   146   ar
    92   142   141   ar
    93    45    43    1
    94    43    40    1
    95    43    44    1
    96    22    21    1
    97   138   137    1
    98   138   139    2
    99    40    39    1
   100   147   146    1
   101   146   145   ar
   102    21    18    1
   103   137   140    1
   104   137   136    1
   105   141   140    1
   106   141   143   ar
   107    15    14    2
   108    39    33   am
   109    16    14   am
   110   145   143   ar
   111    14    13    1
   112    18    17    1
   113    18    19    1
   114    33    34    2
   115    33    32    1
   116   126   125    1
   117    19    20    2
   118    19    26   am
   119    13    12    1
   120    27    30    1
   121    27    26    1
   122    27    28    1
   123     9    12    1
   124     9     8    1
   125     9    10    1
   126    31    32    1
   127    32    35    1
   128    10    11    2
   129    29    28    2
   130   125   124    1
   131    35    36    1
   132   122   121    2
   133   124   123    1
   134   166   165    1
   135   166   167    1
   136   130   129    2
   137    36    38   am
   138    36    37    2
   139   123   120    1
   140   121   120    1
   141   121   127   am
   142   120   119    1
   143   129   128    1
   144   165   164    1
   145   128   127    1
   146   128   131    1
   147     6     5    1
   148     2     5    1
   149     2     1    1
   150     2     3    1
   151   163   162    1
   152   164   161    1
   153   131   132    1
   154     5     7    1
   155     3     4    2
   156   162   161    1
   157   132   133    1
   158   161   160    1
   159   133   135   ar
   160   133   134   ar
