@<TRIPOS>MOLECULE
tmp/4k5pA00.pdb
 143 137 0 0 0
SMALL
GASTEIGER

@<TRIPOS>ATOM
      1  N         13.9840   20.5730   19.7320 N.3   122  GLN122     -0.1245
      2  CA        13.6500   19.2850   19.1870 C.3   122  GLN122      0.1566
      3  C         12.2800   18.9600   19.7510 C.2   122  GLN122      0.2260
      4  O         12.1190   18.6360   20.9540 O.2   122  GLN122     -0.2867
      5  CB        14.6620   18.1990   19.5280 C.3   122  GLN122      0.0367
      6  CG        14.2440   16.7670   19.1130 C.3   122  GLN122      0.0905
      7  CD        13.7960   16.7560   17.6760 C.2   122  GLN122      0.2608
      8  OE1       14.4770   17.3270   16.8050 O.2   122  GLN122     -0.2717
      9  NE2       12.6400   16.1270   17.3960 N.am  122  GLN122     -0.0878
     10  N          9.5720   16.9060   18.0360 N.3   124  GLU124     -0.1231
     11  CA         8.9220   15.5530   17.8050 C.3   124  GLU124      0.1699
     12  C          9.4040   14.4780   18.8190 C.2   124  GLU124      0.2592
     13  O         10.6220   14.3550   19.1020 O.2   124  GLU124     -0.2718
     14  CB         9.2390   15.0540   16.3760 C.3   124  GLU124      0.0402
     15  CG         8.3810   13.8320   16.0080 C.3   124  GLU124      0.1161
     16  CD         8.5100   13.4100   14.5240 C.2   124  GLU124      0.3649
     17  OE1        9.2940   13.9870   13.7470 O.co2 124  GLU124     -0.2457
     18  OE2        7.8280   12.4720   14.1170 O.co2 124  GLU124     -0.2457
     19  N          8.4960   13.6920   19.3870 N.am  125  ALA125     -0.1980
     20  CA         7.0630   13.8000   19.1990 C.3   125  ALA125      0.1597
     21  C          6.3950   14.6780   20.2430 C.2   125  ALA125      0.2287
     22  O          5.4700   15.4090   19.9160 O.2   125  ALA125     -0.2864
     23  CB         6.4550   12.4440   19.1810 C.3   125  ALA125      0.0319
     24  N         19.6670   13.3990   19.3010 N.3   263  ASN263     -0.1225
     25  CA        19.3480   12.0060   19.6760 C.3   263  ASN263      0.1785
     26  C         19.3180   11.0560   18.4840 C.2   263  ASN263      0.2597
     27  O         19.6440    9.8740   18.6160 O.2   263  ASN263     -0.2718
     28  CB        18.0340   11.9240   20.4560 C.3   263  ASN263      0.1169
     29  CG        18.1750   12.5060   21.7850 C.2   263  ASN263      0.2627
     30  OD1       19.3010   12.5530   22.3410 O.2   263  ASN263     -0.2716
     31  ND2       17.0730   12.9340   22.3380 N.am  263  ASN263     -0.0877
     32  N         18.9540   11.5750   17.3060 N.am  264  VAL264     -0.1966
     33  CA        18.8860   10.6770   16.1320 C.3   264  VAL264      0.1727
     34  C         19.6310   11.3580   14.9850 C.2   264  VAL264      0.2617
     35  O         20.6100   12.0310   15.2280 O.2   264  VAL264     -0.2715
     36  CB        17.4110   10.4190   15.7860 C.3   264  VAL264      0.0290
     37  CG1       16.7420    9.6050   16.8910 C.3   264  VAL264      0.0023
     38  CG2       16.6150   11.7900   15.4980 C.3   264  VAL264      0.0023
     39  N         19.2500   11.0780   13.7400 N.am  265  GLY265     -0.1940
     40  CA        19.9180   11.6570   12.5680 C.3   265  GLY265      0.2014
     41  C         19.5160   13.1220   12.3060 C.2   265  GLY265      0.2639
     42  O         20.3720   13.9660   12.0740 O.2   265  GLY265     -0.2714
     43  N         18.2250   13.4250   12.2720 N.am  266  ALA266     -0.1963
     44  CA        17.7940   14.8110   11.9590 C.3   266  ALA266      0.1728
     45  C         16.3200   14.9100   12.1940 C.2   266  ALA266      0.2616
     46  O         15.7130   13.9250   12.6550 O.2   266  ALA266     -0.2715
     47  CB        18.1210   15.2050   10.5290 C.3   266  ALA266      0.0334
     48  N         15.7500   16.0620   11.8280 N.am  267  MET267     -0.1963
     49  CA        14.3410   16.3870   12.1410 C.3   267  MET267      0.1736
     50  C         13.8680   17.3500   11.1210 C.2   267  MET267      0.2616
     51  O         14.5590   18.3580   10.8240 O.2   267  MET267     -0.2715
     52  CB        14.2380   17.0980   13.4930 C.3   267  MET267      0.0427
     53  CG        12.8380   17.6580   13.7270 C.3   267  MET267      0.0599
     54  SD        11.6850   16.2490   13.8540 S.3   267  MET267     -0.1393
     55  CE        10.0630   16.9010   13.3490 C.3   267  MET267      0.0692
     56  N         12.7140   17.0610   10.5670 N.am  268  GLU268     -0.1977
     57  CA        12.0340   17.9500    9.6570 C.3   268  GLU268      0.1602
     58  C         11.2390   18.8680   10.5990 C.2   268  GLU268      0.2287
     59  O         10.7440   18.4230   11.6950 O.2   268  GLU268     -0.2864
     60  CB        11.1710   17.1940    8.6430 C.3   268  GLU268      0.0415
     61  CG         9.7560   16.7760    9.1840 C.3   268  GLU268      0.1163
     62  CD         9.7640   15.5670   10.1040 C.2   268  GLU268      0.3649
     63  OE1       10.8310   15.2150   10.6320 O.co2 268  GLU268     -0.2457
     64  OE2        8.6790   14.9320   10.2320 O.co2 268  GLU268     -0.2457
     65  N         15.8800   12.5010    3.0440 N.3   301  HIS301     -0.1226
     66  CA        14.7750   12.1180    3.9020 C.3   301  HIS301      0.1752
     67  C         14.0480   13.3910    4.4520 C.2   301  HIS301      0.2595
     68  O         12.8180   13.5010    4.3620 O.2   301  HIS301     -0.2718
     69  CB        15.3350   11.3030    5.0670 C.3   301  HIS301      0.0759
     70  CG        14.2920   10.8330    6.0200 C.ar  301  HIS301      0.0818
     71  ND1       13.8130    9.5370    6.0070 N.ar  301  HIS301     -0.2268
     72  CD2       13.6610   11.4670    7.0450 C.ar  301  HIS301      0.1154
     73  CE1       12.9320    9.3840    6.9930 C.ar  301  HIS301      0.1986
     74  NE2       12.8080   10.5460    7.6220 N.ar  301  HIS301     -0.2212
     75  N         14.7750   14.2550    5.1460 N.am  302  GLU302     -0.1979
     76  CA        14.1440   15.4800    5.7060 C.3   302  GLU302      0.1602
     77  C         13.5050   16.3840    4.6520 C.2   302  GLU302      0.2287
     78  O         12.4260   16.9780    4.9300 O.2   302  GLU302     -0.2864
     79  CB        15.0720   16.3290    6.6280 C.3   302  GLU302      0.0415
     80  CG        15.8020   15.4700    7.7600 C.3   302  GLU302      0.1163
     81  CD        14.8740   14.5480    8.5750 C.2   302  GLU302      0.3649
     82  OE1       13.6670   14.7940    8.7200 O.co2 302  GLU302     -0.2457
     83  OE2       15.3980   13.5670    9.0730 O.co2 302  GLU302     -0.2457
     84  N         10.0950   14.8540    3.5490 N.3   305  HIS305     -0.1241
     85  CA         9.0700   15.0220    4.5620 C.3   305  HIS305      0.1621
     86  C          8.3120   16.2950    4.2280 C.2   305  HIS305      0.2264
     87  O          7.2030   16.4670    4.7110 O.2   305  HIS305     -0.2867
     88  CB         9.6440   15.1570    5.9920 C.3   305  HIS305      0.0745
     89  CG         9.7930   13.8550    6.7680 C.ar  305  HIS305      0.0817
     90  ND1        8.7250   12.9840    7.0060 N.ar  305  HIS305     -0.2268
     91  CD2       10.8120   13.3890    7.5150 C.ar  305  HIS305      0.1154
     92  CE1        9.1300   11.9800    7.7740 C.ar  305  HIS305      0.1986
     93  NE2       10.4100   12.1770    8.0950 N.ar  305  HIS305     -0.2212
     94  N          6.6550    8.1450    8.1930 N.3   324  GLU324     -0.1245
     95  CA         8.0570    7.7100    8.2500 C.3   324  GLU324      0.1567
     96  C          8.3120    6.6250    7.2340 C.2   324  GLU324      0.2260
     97  O          9.2920    6.6600    6.4780 O.2   324  GLU324     -0.2867
     98  CB         8.4300    7.2170    9.6270 C.3   324  GLU324      0.0388
     99  CG         8.4980    8.2920   10.6920 C.3   324  GLU324      0.1160
    100  CD         9.3740    9.4860   10.2320 C.2   324  GLU324      0.3649
    101  OE1       10.2300    9.3780    9.3260 O.co2 324  GLU324     -0.2457
    102  OE2        9.1770   10.5950   10.7200 O.co2 324  GLU324     -0.2457
    103  N          8.5600    8.1090   22.7970 N.3   377  GLU377     -0.1245
    104  CA         9.9880    8.1630   22.5090 C.3   377  GLU377      0.1567
    105  C         10.5630    6.7870   22.1480 C.2   377  GLU377      0.2260
    106  O         11.6940    6.7320   21.6550 O.2   377  GLU377     -0.2867
    107  CB        10.7830    8.8040   23.6600 C.3   377  GLU377      0.0388
    108  CG        10.7750   10.3660   23.6590 C.3   377  GLU377      0.1160
    109  CD        11.4570   10.9770   24.9160 C.2   377  GLU377      0.3649
    110  OE1       11.9040   12.1590   24.8590 O.co2 377  GLU377     -0.2457
    111  OE2       11.5320   10.2820   25.9610 O.co2 377  GLU377     -0.2457
    112  N          9.7130    5.0510   17.7120 N.3   380  TYR380     -0.1241
    113  CA        10.4220    5.3110   16.4850 C.3   380  TYR380      0.1605
    114  C         11.4070    4.1580   16.2130 C.2   380  TYR380      0.2264
    115  O         12.5650    4.2550   16.5930 O.2   380  TYR380     -0.2867
    116  CB        11.1460    6.6820   16.5940 C.3   380  TYR380      0.0534
    117  CG        10.1610    7.8580   16.4860 C.ar  380  TYR380     -0.0201
    118  CD1        9.9850    8.5550   15.2850 C.ar  380  TYR380     -0.0009
    119  CD2        9.3410    8.1970   17.5720 C.ar  380  TYR380     -0.0009
    120  CE1        9.0340    9.6500   15.2040 C.ar  380  TYR380      0.0417
    121  CE2        8.4250    9.2350   17.5070 C.ar  380  TYR380      0.0417
    122  CZ         8.2550    9.9530   16.3420 C.ar  380  TYR380      0.1957
    123  OH         7.2980   10.9660   16.3060 O.3   380  TYR380     -0.2866
    124  N          9.9000    2.3220   10.6940 N.3   385  TYR385     -0.1241
    125  CA        10.5890    2.9450    9.5740 C.3   385  TYR385      0.1605
    126  C         10.9050    2.0190    8.4070 C.2   385  TYR385      0.2264
    127  O         10.6430    2.3710    7.2650 O.2   385  TYR385     -0.2867
    128  CB        11.9260    3.5260   10.0410 C.3   385  TYR385      0.0534
    129  CG        11.7800    4.8640   10.6850 C.ar  385  TYR385     -0.0201
    130  CD1       12.4680    5.9830   10.1310 C.ar  385  TYR385     -0.0009
    131  CD2       10.9550    5.0430   11.8380 C.ar  385  TYR385     -0.0009
    132  CE1       12.2940    7.2550   10.6990 C.ar  385  TYR385      0.0417
    133  CE2       10.8300    6.3350   12.4340 C.ar  385  TYR385      0.0417
    134  CZ        11.5320    7.4110   11.8590 C.ar  385  TYR385      0.1957
    135  OH        11.4610    8.7360   12.4030 O.3   385  TYR385     -0.2866
    136  N         16.3300    8.6610   26.2240 N.3   839  MET839     -0.1245
    137  CA        16.2480    8.1800   24.8430 C.3   839  MET839      0.1570
    138  C         17.5280    7.4130   24.4360 C.2   839  MET839      0.2261
    139  O         17.4500    6.2990   23.9220 O.2   839  MET839     -0.2867
    140  CB        15.9430    9.2580   23.8180 C.3   839  MET839      0.0387
    141  CG        15.7370    8.6320   22.3950 C.3   839  MET839      0.0595
    142  SD        15.0810    9.9160   21.2380 S.3   839  MET839     -0.1393
    143  CE        14.0840   10.9670   22.3560 C.3   839  MET839      0.0692
@<TRIPOS>BOND
     1    65    66    1
     2    84    85    1
     3    66    67    1
     4    66    69    1
     5    86    85    1
     6    86    87    2
     7    68    67    2
     8    67    75   am
     9    85    88    1
    10    77    78    2
    11    77    76    1
    12    69    70    1
    13    75    76    1
    14    76    79    1
    15    88    89    1
    16    71    70   ar
    17    71    73   ar
    18    70    72   ar
    19    97    96    2
    20    79    80    1
    21    89    90   ar
    22    89    91   ar
    23    73    74   ar
    24    90    92   ar
    25    72    74   ar
    26    96    95    1
    27   127   126    2
    28    91    93   ar
    29    80    81    1
    30    92    93   ar
    31    94    95    1
    32    95    98    1
    33   126   125    1
    34    81    82   ar
    35    81    83   ar
    36    60    61    1
    37    60    57    1
    38    61    62    1
    39   101   100   ar
    40   125   128    1
    41   125   124    1
    42    98    99    1
    43    57    56    1
    44    57    58    1
    45   128   129    1
    46    62    64   ar
    47    62    63   ar
    48   130   129   ar
    49   130   132   ar
    50   100    99    1
    51   100   102   ar
    52    47    44    1
    53    56    50   am
    54    58    59    2
    55   129   131   ar
    56   132   134   ar
    57    51    50    2
    58    50    49    1
    59    48    49    1
    60    48    45   am
    61   131   133   ar
    62   134   135    1
    63   134   133   ar
    64    44    45    1
    65    44    43    1
    66    42    41    2
    67    49    52    1
    68    45    46    2
    69    43    41   am
    70    41    40    1
    71    40    39    1
    72    55    54    1
    73    52    53    1
    74    53    54    1
    75    39    34   am
    76    17    16   ar
    77    18    16   ar
    78    16    15    1
    79    34    35    2
    80    34    33    1
    81   120   118   ar
    82   120   122   ar
    83   118   117   ar
    84    38    36    1
    85    36    33    1
    86    36    37    1
    87    15    14    1
    88    33    32    1
    89   114   113    1
    90   114   115    2
    91   123   122    1
    92   122   121   ar
    93    14    11    1
    94   113   116    1
    95   113   112    1
    96   117   116    1
    97   117   119   ar
    98     8     7    2
    99    32    26   am
   100     9     7   am
   101   121   119   ar
   102     7     6    1
   103    11    10    1
   104    11    12    1
   105    26    27    2
   106    26    25    1
   107    12    13    2
   108    12    19   am
   109     6     5    1
   110    23    20    1
   111     2     5    1
   112     2     1    1
   113     2     3    1
   114    20    19    1
   115    20    21    1
   116    24    25    1
   117    25    28    1
   118     3     4    2
   119    22    21    2
   120    28    29    1
   121   142   143    1
   122   142   141    1
   123   106   105    2
   124    29    31   am
   125    29    30    2
   126   105   104    1
   127   141   140    1
   128   104   103    1
   129   104   107    1
   130   108   107    1
   131   108   109    1
   132   140   137    1
   133   139   138    2
   134   138   137    1
   135   137   136    1
   136   110   109   ar
   137   109   111   ar
