@<TRIPOS>MOLECULE
tmp/4k5uA00.pdb
 118 116 0 0 0
SMALL
GASTEIGER

@<TRIPOS>ATOM
      1  N         28.0980   -6.3160   27.0530 N.3    83  TRP83      -0.1241
      2  CA        28.9320   -5.8010   28.1610 C.3    83  TRP83       0.1605
      3  C         28.3740   -6.3050   29.4620 C.2    83  TRP83       0.2264
      4  O         27.2800   -5.9050   29.8720 O.2    83  TRP83      -0.2867
      5  CB        28.8900   -4.2470   28.2110 C.3    83  TRP83       0.0550
      6  CG        29.3480   -3.5230   27.0230 C.ar   83  TRP83       0.0003
      7  CD1       28.5440   -2.8460   26.0840 C.ar   83  TRP83       0.0946
      8  CD2       30.6720   -3.4710   26.5030 C.ar   83  TRP83       0.0152
      9  NE1       29.3470   -2.3310   25.0650 N.ar   83  TRP83      -0.2442
     10  CE2       30.6300   -2.7480   25.2820 C.ar   83  TRP83       0.0810
     11  CE3       31.8970   -4.0210   26.9330 C.ar   83  TRP83       0.0012
     12  CZ2       31.7900   -2.4770   24.5090 C.ar   83  TRP83       0.0191
     13  CZ3       33.0640   -3.7510   26.1480 C.ar   83  TRP83       0.0001
     14  CH2       32.9770   -3.0060   24.9540 C.ar   83  TRP83       0.0015
     15  N         30.5060   -6.3520   32.2440 N.3    85  ASN85      -0.1240
     16  CA        31.5660   -5.9060   33.2150 C.3    85  ASN85       0.1653
     17  C         30.8830   -5.6490   34.5830 C.2    85  ASN85       0.2266
     18  O         29.7800   -5.0740   34.6540 O.2    85  ASN85      -0.2867
     19  CB        32.0920   -4.5150   32.8470 C.3    85  ASN85       0.1155
     20  CG        32.5630   -4.3550   31.4140 C.2    85  ASN85       0.2627
     21  OD1       32.1400   -5.0470   30.5100 O.2    85  ASN85      -0.2716
     22  ND2       33.4610   -3.3520   31.2050 N.am   85  ASN85      -0.0877
     23  N         33.2600   -8.0940   23.5510 N.3   106  LEU106     -0.1231
     24  CA        32.7300   -8.8340   24.7210 C.3   106  LEU106      0.1693
     25  C         33.4590   -8.4290   25.9720 C.2   106  LEU106      0.2592
     26  O         34.6790   -8.6590   26.0730 O.2   106  LEU106     -0.2718
     27  CB        32.9170  -10.3430   24.4920 C.3   106  LEU106      0.0284
     28  CG        32.4750  -11.2990   25.6170 C.3   106  LEU106      0.0019
     29  CD1       30.9840  -11.0160   26.0980 C.3   106  LEU106      0.0001
     30  CD2       32.7120  -12.7530   25.1600 C.3   106  LEU106      0.0001
     31  N         32.7010   -7.8290   26.8940 N.am  107  GLY107     -0.1957
     32  CA        33.3110   -7.3260   28.1750 C.3   107  GLY107      0.1869
     33  C         32.9140   -8.2050   29.3120 C.2   107  GLY107      0.2309
     34  O         31.7080   -8.3520   29.6370 O.2   107  GLY107     -0.2863
     35  N         34.9660   -8.1580   32.2430 N.3   109  CYS109     -0.1221
     36  CA        35.9000   -7.7700   33.3440 C.3   109  CYS109      0.1808
     37  C         35.2300   -7.4890   34.6680 C.2   109  CYS109      0.2601
     38  O         34.0180   -7.2890   34.7550 O.2   109  CYS109     -0.2717
     39  CB        36.7100   -6.5310   32.9280 C.3   109  CYS109      0.0970
     40  SG        35.8740   -4.9450   33.4340 S.3   109  CYS109     -0.0800
     41  N         36.0550   -7.5390   35.7290 N.am  110  CYS110     -0.1970
     42  CA        35.6640   -6.9790   37.0300 C.3   110  CYS110      0.1712
     43  C         34.5480   -7.7790   37.6530 C.2   110  CYS110      0.2296
     44  O         33.6290   -7.2080   38.2690 O.2   110  CYS110     -0.2864
     45  CB        35.3040   -5.5090   36.8250 C.3   110  CYS110      0.0983
     46  SG        36.4550   -4.5760   35.6300 S.3   110  CYS110     -0.0798
     47  N         37.3890   -7.6370   20.3150 N.3   129  GLN129     -0.1245
     48  CA        37.8820   -7.1590   21.6490 C.3   129  GLN129      0.1566
     49  C         37.2710   -8.0460   22.7360 C.2   129  GLN129      0.2260
     50  O         36.0500   -8.2420   22.8020 O.2   129  GLN129     -0.2867
     51  CB        37.5230   -5.6140   21.8110 C.3   129  GLN129      0.0367
     52  CG        38.1540   -4.7760   20.6530 C.3   129  GLN129      0.0905
     53  CD        38.3640   -3.2780   20.9320 C.2   129  GLN129      0.2608
     54  OE1       38.3540   -2.8380   22.0780 O.2   129  GLN129     -0.2717
     55  NE2       38.5930   -2.5100   19.8820 N.am  129  GLN129     -0.0878
     56  N         37.5340   -8.5780   26.9510 N.3   131  GLY131     -0.1225
     57  CA        38.0490   -8.0950   28.3120 C.3   131  GLY131      0.1811
     58  C         37.8110   -9.2020   29.3240 C.2   131  GLY131      0.2280
     59  O         36.6520   -9.5270   29.6540 O.2   131  GLY131     -0.2866
     60  N         40.0210   -9.0820   32.1240 N.3   133  ASP133     -0.1225
     61  CA        40.8120   -8.5170   33.3040 C.3   133  ASP133      0.1805
     62  C         40.0030   -8.4340   34.6040 C.2   133  ASP133      0.2594
     63  O         38.7760   -8.2570   34.6350 O.2   133  ASP133     -0.2718
     64  CB        41.3380   -7.1500   32.9520 C.3   133  ASP133      0.1424
     65  CG        40.2480   -6.1680   32.4550 C.2   133  ASP133      0.3668
     66  OD1       39.6000   -6.4620   31.4020 O.co2 133  ASP133     -0.2456
     67  OD2       40.0130   -5.0980   33.0720 O.co2 133  ASP133     -0.2456
     68  N         40.7230   -8.4810   35.6940 N.am  134  GLN134     -0.2033
     69  CA        40.1050   -8.2430   37.0260 C.3   134  GLN134      0.1287
     70  C         39.0210   -9.3040   37.4130 C.3   134  GLN134      0.2036
     71  O         37.8270   -9.0310   37.8060 O.3   134  GLN134     -0.2185
     72  CB        39.6020   -6.8220   37.1150 C.3   134  GLN134      0.0340
     73  CG        40.5570   -5.7550   36.7660 C.3   134  GLN134      0.0904
     74  CD        39.9660   -4.3530   36.7540 C.2   134  GLN134      0.2608
     75  OE1       39.5610   -3.7980   37.8300 O.2   134  GLN134     -0.2717
     76  NE2       39.8890   -3.7610   35.5680 N.am  134  GLN134     -0.0878
     77  N         42.3250   -8.1310   27.1180 N.3   155  TRP155     -0.1241
     78  CA        42.8330   -7.6420   28.4510 C.3   155  TRP155      0.1605
     79  C         42.8480   -8.8830   29.3360 C.2   155  TRP155      0.2264
     80  O         41.8850   -9.6420   29.4700 O.2   155  TRP155     -0.2867
     81  CB        41.7710   -6.6940   28.9970 C.3   155  TRP155      0.0550
     82  CG        41.6200   -5.3400   28.3850 C.ar  155  TRP155      0.0003
     83  CD1       41.9960   -4.1280   28.9650 C.ar  155  TRP155      0.0946
     84  CD2       40.9850   -4.9950   27.1480 C.ar  155  TRP155      0.0152
     85  NE1       41.6630   -3.0870   28.1790 N.ar  155  TRP155     -0.2442
     86  CE2       41.0500   -3.5760   27.0250 C.ar  155  TRP155      0.0810
     87  CE3       40.3780   -5.7760   26.1070 C.ar  155  TRP155      0.0012
     88  CZ2       40.4680   -2.8890   25.9640 C.ar  155  TRP155      0.0191
     89  CZ3       39.8210   -5.0830   24.9980 C.ar  155  TRP155      0.0001
     90  CH2       39.8910   -3.6490   24.9420 C.ar  155  TRP155      0.0015
     91  N         44.9360   -8.7590   32.4540 N.3   157  HIS157     -0.1241
     92  CA        45.5760   -8.3780   33.7310 C.3   157  HIS157      0.1621
     93  C         44.6570   -8.4150   34.8930 C.2   157  HIS157      0.2264
     94  O         43.4520   -8.5310   34.8160 O.2   157  HIS157     -0.2867
     95  CB        46.1370   -6.9760   33.5900 C.3   157  HIS157      0.0745
     96  CG        45.0870   -5.9140   33.4740 C.ar  157  HIS157      0.0817
     97  ND1       44.3980   -5.4130   34.5720 N.ar  157  HIS157     -0.2268
     98  CD2       44.5680   -5.2940   32.3870 C.ar  157  HIS157      0.1154
     99  CE1       43.5250   -4.5170   34.1510 C.ar  157  HIS157      0.1986
    100  NE2       43.5940   -4.4200   32.8340 N.ar  157  HIS157     -0.2212
    101  N         43.5530   -0.7620   30.0030 N.3   185  GLY185     -0.1210
    102  CA        42.9970    0.5560   29.9140 C.3   185  GLY185      0.1956
    103  C         41.8150    0.6450   28.9750 C.2   185  GLY185      0.2611
    104  O         41.4830   -0.3430   28.2910 O.2   185  GLY185     -0.2717
    105  N         41.1010    1.7880   29.0810 N.am  186  TRP186     -0.1976
    106  CA        40.0200    2.0540   28.1790 C.3   186  TRP186      0.1640
    107  C         40.1280    3.4410   27.6170 C.2   186  TRP186      0.2290
    108  O         40.1150    4.4500   28.3690 O.2   186  TRP186     -0.2864
    109  CB        38.6620    1.8860   28.8960 C.3   186  TRP186      0.0576
    110  CG        37.5430    1.9950   27.9670 C.ar  186  TRP186      0.0006
    111  CD1       36.6040    2.9910   27.9330 C.ar  186  TRP186      0.0946
    112  CD2       37.2230    1.0870   26.8620 C.ar  186  TRP186      0.0152
    113  NE1       35.7050    2.7440   26.8940 N.ar  186  TRP186     -0.2442
    114  CE2       36.0850    1.6080   26.2140 C.ar  186  TRP186      0.0810
    115  CE3       37.7980   -0.1000   26.3800 C.ar  186  TRP186      0.0012
    116  CZ2       35.4900    0.9720   25.0900 C.ar  186  TRP186      0.0191
    117  CZ3       37.2120   -0.7370   25.2620 C.ar  186  TRP186      0.0001
    118  CH2       36.0780   -0.1870   24.6250 C.ar  186  TRP186      0.0015
@<TRIPOS>BOND
     1    55    53   am
     2    47    48    1
     3    52    53    1
     4    52    51    1
     5    53    54    2
     6    48    51    1
     7    48    49    1
     8    49    50    2
     9    23    24    1
    10    27    24    1
    11    27    28    1
    12    12    14   ar
    13    12    10   ar
    14   118   116   ar
    15   118   117   ar
    16    24    25    1
    17    90    89   ar
    18    90    88   ar
    19    14    13   ar
    20    89    87   ar
    21     9    10   ar
    22     9     7   ar
    23   116   114   ar
    24    30    28    1
    25   117   115   ar
    26    10     8   ar
    27    28    29    1
    28    88    86   ar
    29    25    26    2
    30    25    31   am
    31     7     6   ar
    32    87    84   ar
    33    13    11   ar
    34   114   112   ar
    35   114   113   ar
    36   115   112   ar
    37     8    11   ar
    38     8     6   ar
    39   112   110   ar
    40    31    32    1
    41   113   111   ar
    42    56    57    1
    43     6     5    1
    44    86    84   ar
    45    86    85   ar
    46     1     2    1
    47    77    78    1
    48    84    82   ar
    49   107   106    1
    50   107   108    2
    51   111   110   ar
    52   110   109    1
    53     2     5    1
    54     2     3    1
    55    32    33    1
    56   106   109    1
    57   106   105    1
    58    85    83   ar
    59   104   103    2
    60    57    58    1
    61    82    83   ar
    62    82    81    1
    63    78    81    1
    64    78    79    1
    65   103   105   am
    66   103   102    1
    67    33    34    2
    68    58    59    2
    69    79    80    2
    70     3     4    2
    71   102   101    1
    72    21    20    2
    73    22    20   am
    74    66    65   ar
    75    20    19    1
    76    60    61    1
    77    35    36    1
    78    15    16    1
    79    98   100   ar
    80    98    96   ar
    81    91    92    1
    82    65    64    1
    83    65    67   ar
    84   100    99   ar
    85    19    16    1
    86    39    36    1
    87    39    40    1
    88    64    61    1
    89    16    17    1
    90    61    62    1
    91    36    37    1
    92    40    46    1
    93    96    95    1
    94    96    97   ar
    95    95    92    1
    96    92    93    1
    97    99    97   ar
    98    17    18    2
    99    62    63    2
   100    62    68   am
   101    37    38    2
   102    37    41   am
   103    94    93    2
   104    76    74   am
   105    46    45    1
   106    68    69    1
   107    41    42    1
   108    74    73    1
   109    74    75    2
   110    73    72    1
   111    45    42    1
   112    69    72    1
   113    69    70    1
   114    42    43    1
   115    70    71    1
   116    43    44    2
