@<TRIPOS>MOLECULE
tmp/4k5yB03.pdb
 115 112 0 0 0
SMALL
GASTEIGER

@<TRIPOS>ATOM
      1  N        -48.8210   10.4510   12.5370 N.3    93  PHE93      -0.1241
      2  CA       -49.6180    9.2720   12.3570 C.3    93  PHE93       0.1605
      3  C        -50.9790    9.3960   13.0260 C.2    93  PHE93       0.2264
      4  O        -51.9840    9.1000   12.4490 O.2    93  PHE93      -0.2867
      5  CB       -48.8590    8.1180   12.9890 C.3    93  PHE93       0.0534
      6  CG       -49.6020    6.8070   13.0400 C.ar   93  PHE93      -0.0203
      7  CD1      -49.9510    6.1330   11.8820 C.ar   93  PHE93      -0.0042
      8  CD2      -49.8640    6.2070   14.2620 C.ar   93  PHE93      -0.0042
      9  CE1      -50.5980    4.9090   11.9450 C.ar   93  PHE93      -0.0003
     10  CE2      -50.5010    4.9870   14.3340 C.ar   93  PHE93      -0.0003
     11  CZ       -50.8680    4.3330   13.1750 C.ar   93  PHE93      -0.0000
     12  N        -54.5820    8.9600   11.6460 N.3    97  CYS97      -0.1235
     13  CA       -55.3590    7.9480   12.3100 C.3    97  CYS97       0.1677
     14  C        -56.7340    8.4820   12.6520 C.2    97  CYS97       0.2270
     15  O        -57.7480    7.8300   12.4400 O.2    97  CYS97      -0.2867
     16  CB       -54.6970    7.5340   13.6190 C.3    97  CYS97       0.0956
     17  SG       -53.4910    6.2380   13.4430 S.3    97  CYS97      -0.0801
     18  N        -58.7240    9.3150    9.0800 N.3   100  HIS100     -0.1226
     19  CA       -59.2320    8.1270    8.4500 C.3   100  HIS100      0.1752
     20  C        -60.5350    7.6580    9.0900 C.2   100  HIS100      0.2596
     21  O        -61.5420    7.5090    8.4180 O.2   100  HIS100     -0.2718
     22  CB       -58.1910    6.9920    8.4940 C.3   100  HIS100      0.0759
     23  CG       -58.5730    5.7750    7.7010 C.ar  100  HIS100      0.0818
     24  ND1      -59.4100    4.7930    8.1930 N.ar  100  HIS100     -0.2268
     25  CD2      -58.2150    5.3710    6.4600 C.ar  100  HIS100      0.1154
     26  CE1      -59.5600    3.8480    7.2850 C.ar  100  HIS100      0.1986
     27  NE2      -58.8450    4.1720    6.2220 N.ar  100  HIS100     -0.2212
     28  N        -60.5410    7.5460   10.4200 N.am  101  THR101     -0.1953
     29  CA       -61.7650    7.1900   11.1490 C.3   101  THR101      0.1897
     30  C        -62.8500    8.2700   11.0400 C.2   101  THR101      0.2313
     31  O        -64.0150    7.9720   10.9420 O.2   101  THR101     -0.2863
     32  CB       -61.5150    6.7820   12.6310 C.3   101  THR101      0.1794
     33  OG1      -60.7040    7.7660   13.2860 O.3   101  THR101     -0.2208
     34  CG2      -60.8220    5.4360   12.6970 C.3   101  THR101      0.0378
     35  N        -56.7310    8.0710   23.6120 N.3   273  MET273     -0.1230
     36  CA       -56.2240    7.1050   22.6440 C.3   273  MET273      0.1702
     37  C        -55.0520    7.6530   21.8090 C.2   273  MET273      0.2592
     38  O        -54.0380    7.0020   21.6440 O.2   273  MET273     -0.2718
     39  CB       -57.3540    6.6420   21.7230 C.3   273  MET273      0.0401
     40  CG       -56.9650    5.5090   20.7950 C.3   273  MET273      0.0596
     41  SD       -56.2650    4.1020   21.6870 S.3   273  MET273     -0.1393
     42  CE       -57.5340    3.8380   22.9270 C.3   273  MET273      0.0692
     43  N        -55.1920    8.8930   21.3570 N.am  274  PHE274     -0.1976
     44  CA       -54.1480    9.5990   20.6090 C.3   274  PHE274      0.1639
     45  C        -52.8970    9.9150   21.4490 C.2   274  PHE274      0.2290
     46  O        -51.7890    9.9200   20.9560 O.2   274  PHE274     -0.2864
     47  CB       -54.7220   10.8450   19.9240 C.3   274  PHE274      0.0560
     48  CG       -55.7370   10.5150   18.8740 C.ar  274  PHE274     -0.0200
     49  CD1      -55.3320   10.1590   17.5990 C.ar  274  PHE274     -0.0042
     50  CD2      -57.0870   10.4920   19.1760 C.ar  274  PHE274     -0.0042
     51  CE1      -56.2540    9.8210   16.6330 C.ar  274  PHE274     -0.0003
     52  CE2      -58.0160   10.1510   18.2130 C.ar  274  PHE274     -0.0003
     53  CZ       -57.5980    9.8160   16.9410 C.ar  274  PHE274     -0.0000
     54  N        -51.7230    8.0390   23.9750 N.3   276  CYS276     -0.1221
     55  CA       -50.9240    6.8230   23.9890 C.3   276  CYS276      0.1808
     56  C        -50.0370    6.6650   22.7820 C.2   276  CYS276      0.2601
     57  O        -48.9100    6.2920   22.8970 O.2   276  CYS276     -0.2717
     58  CB       -51.7910    5.5740   24.1910 C.3   276  CYS276      0.0970
     59  SG       -52.2290    5.2530   25.9170 S.3   276  CYS276     -0.0800
     60  N        -50.5570    6.9210   21.6120 N.am  277  ILE277     -0.1979
     61  CA       -49.7870    6.7320   20.4100 C.3   277  ILE277      0.1595
     62  C        -48.7210    7.7930   20.3010 C.2   277  ILE277      0.2287
     63  O        -47.5560    7.5200   20.1760 O.2   277  ILE277     -0.2864
     64  CB       -50.6860    6.7540   19.1470 C.3   277  ILE277      0.0276
     65  CG1      -51.7580    5.6640   19.2280 C.3   277  ILE277      0.0022
     66  CG2      -49.8500    6.5850   17.8850 C.3   277  ILE277      0.0022
     67  CD1      -52.6660    5.6100   18.0210 C.3   277  ILE277      0.0001
     68  N        -46.9200    8.0720   24.5590 N.3   280  GLY280     -0.1210
     69  CA       -46.6220    6.9040   25.2960 C.3   280  GLY280      0.1956
     70  C        -46.0490    5.7640   24.5570 C.2   280  GLY280      0.2611
     71  O        -45.3260    4.9930   25.1470 O.2   280  GLY280     -0.2717
     72  N        -46.3470    5.5910   23.2960 N.am  281  VAL281     -0.1979
     73  CA       -45.8910    4.4100   22.6190 C.3   281  VAL281      0.1595
     74  C        -44.4450    4.5380   22.2360 C.2   281  VAL281      0.2287
     75  O        -43.7770    3.5320   22.2970 O.2   281  VAL281     -0.2864
     76  CB       -46.7550    4.1040   21.3490 C.3   281  VAL281      0.0276
     77  CG1      -46.0650    3.1140   20.4240 C.3   281  VAL281      0.0022
     78  CG2      -48.0950    3.5520   21.7420 C.3   281  VAL281      0.0022
     79  N        -42.0640    5.7850   23.9930 N.3   283  PHE283     -0.1228
     80  CA       -41.3510    5.5710   25.2120 C.3   283  PHE283      0.1721
     81  C        -40.6700    4.2060   25.3410 C.2   283  PHE283      0.2437
     82  O        -39.4680    4.1690   25.4780 O.2   283  PHE283     -0.2733
     83  CB       -42.1390    5.9560   26.4780 C.3   283  PHE283      0.0547
     84  CG       -41.2560    6.1220   27.6790 C.ar  283  PHE283     -0.0202
     85  CD1      -40.4240    7.2220   27.7730 C.ar  283  PHE283     -0.0042
     86  CD2      -41.2080    5.1660   28.6790 C.ar  283  PHE283     -0.0042
     87  CE1      -39.5780    7.3820   28.8480 C.ar  283  PHE283     -0.0003
     88  CE2      -40.3600    5.3250   29.7660 C.ar  283  PHE283     -0.0003
     89  CZ       -39.5440    6.4330   29.8460 C.ar  283  PHE283     -0.0000
     90  N        -41.3240    3.0180   25.2470 N.am  284  PRO284     -0.2729
     91  CA       -40.6480    1.7360   25.3050 C.3   284  PRO284      0.1401
     92  C        -39.6410    1.6090   24.1930 C.2   284  PRO284      0.2269
     93  O        -38.6380    0.9640   24.3760 O.2   284  PRO284     -0.2865
     94  CB       -41.7880    0.7350   25.1050 C.3   284  PRO284      0.0296
     95  CG       -42.9720    1.4270   25.6440 C.3   284  PRO284      0.0237
     96  CD       -42.7850    2.8510   25.2260 C.3   284  PRO284      0.0939
     97  N        -47.8070    2.9890    7.0310 N.3   322  ILE322     -0.1245
     98  CA       -49.2100    2.8890    7.3620 C.3   322  ILE322      0.1561
     99  C        -49.9690    4.2100    7.0760 C.2   322  ILE322      0.2260
    100  O        -51.0900    4.2120    6.6000 O.2   322  ILE322     -0.2867
    101  CB       -49.4000    2.4580    8.8360 C.3   322  ILE322      0.0252
    102  CG1      -48.7270    1.1020    9.0800 C.3   322  ILE322      0.0019
    103  CG2      -50.8750    2.4050    9.2030 C.3   322  ILE322      0.0019
    104  CD1      -48.8290    0.6070   10.5050 C.3   322  ILE322      0.0001
    105  N        -53.2790    4.8590    4.8100 N.3   326  PHE326     -0.1241
    106  CA       -54.4130    5.7000    5.1740 C.3   326  PHE326      0.1605
    107  C        -54.6970    6.7740    4.1530 C.2   326  PHE326      0.2264
    108  O        -55.8230    6.9780    3.7910 O.2   326  PHE326     -0.2867
    109  CB       -54.1230    6.4190    6.4990 C.3   326  PHE326      0.0534
    110  CG       -54.1980    5.5390    7.7140 C.ar  326  PHE326     -0.0203
    111  CD1      -54.6940    4.2520    7.6250 C.ar  326  PHE326     -0.0042
    112  CD2      -53.7850    6.0110    8.9520 C.ar  326  PHE326     -0.0042
    113  CE1      -54.7690    3.4470    8.7420 C.ar  326  PHE326     -0.0003
    114  CE2      -53.8570    5.2100   10.0740 C.ar  326  PHE326     -0.0003
    115  CZ       -54.3500    3.9240    9.9680 C.ar  326  PHE326     -0.0000
@<TRIPOS>BOND
     1   108   107    2
     2   107   106    1
     3   105   106    1
     4   106   109    1
     5    27    25   ar
     6    27    26   ar
     7    25    23   ar
     8   109   110    1
     9   100    99    2
    10    97    98    1
    11    99    98    1
    12    26    24   ar
    13    98   101    1
    14   111   110   ar
    15   111   113   ar
    16    23    24   ar
    17    23    22    1
    18   110   112   ar
    19    21    20    2
    20    19    22    1
    21    19    18    1
    22    19    20    1
    23   113   115   ar
    24   101   102    1
    25   101   103    1
    26   112   114   ar
    27   102   104    1
    28    20    28   am
    29   115   114   ar
    30    28    29    1
    31    31    30    2
    32    30    29    1
    33    29    32    1
    34    12    13    1
    35     7     9   ar
    36     7     6   ar
    37     9    11   ar
    38    13    14    1
    39    13    16    1
    40     2     1    1
    41     2     5    1
    42     2     3    1
    43    15    14    2
    44     4     3    2
    45    32    34    1
    46    32    33    1
    47     5     6    1
    48     6     8   ar
    49    11    10   ar
    50    17    16    1
    51     8    10   ar
    52    51    53   ar
    53    51    49   ar
    54    53    52   ar
    55    49    48   ar
    56    66    64    1
    57    67    65    1
    58    52    50   ar
    59    48    50   ar
    60    48    47    1
    61    64    65    1
    62    64    61    1
    63    47    44    1
    64    63    62    2
    65    62    61    1
    66    61    60    1
    67    77    76    1
    68    44    43    1
    69    44    45    1
    70    40    41    1
    71    40    39    1
    72    46    45    2
    73    76    78    1
    74    76    73    1
    75    43    37   am
    76    60    56   am
    77    38    37    2
    78    41    42    1
    79    39    36    1
    80    37    36    1
    81    74    75    2
    82    74    73    1
    83    73    72    1
    84    36    35    1
    85    56    57    2
    86    56    55    1
    87    72    70   am
    88    54    55    1
    89    55    58    1
    90    79    80    1
    91    58    59    1
    92    92    93    2
    93    92    91    1
    94    70    71    2
    95    70    69    1
    96    68    69    1
    97    94    91    1
    98    94    95    1
    99    80    81    1
   100    80    83    1
   101    96    90    1
   102    96    95    1
   103    90    91    1
   104    90    81   am
   105    81    82    2
   106    83    84    1
   107    84    85   ar
   108    84    86   ar
   109    85    87   ar
   110    86    88   ar
   111    87    89   ar
   112    88    89   ar
