@<TRIPOS>MOLECULE
tmp/4k5yB07.pdb
 86 84 0 0 0
SMALL
GASTEIGER

@<TRIPOS>ATOM
      1  N        -72.8680    2.8860   25.2420 N.3   116  GLU116     -0.1245
      2  CA       -73.3720    1.5060   25.2780 C.3   116  GLU116      0.1567
      3  C        -72.3530    0.3720   24.9810 C.2   116  GLU116      0.2260
      4  O        -72.4930   -0.7400   25.4520 O.2   116  GLU116     -0.2867
      5  CB       -74.5770    1.3740   24.3440 C.3   116  GLU116      0.0388
      6  CG       -75.7120    2.3300   24.6740 C.3   116  GLU116      0.1160
      7  CD       -76.8990    2.1690   23.7490 C.2   116  GLU116      0.3649
      8  OE1      -76.8470    1.2880   22.8610 O.co2 116  GLU116     -0.2457
      9  OE2      -77.8820    2.9240   23.9120 O.co2 116  GLU116     -0.2457
     10  N        -74.4170   -1.8340   18.1050 N.3   134  ILE134     -0.1231
     11  CA       -74.6420   -0.9480   19.2250 C.3   134  ILE134      0.1692
     12  C        -76.0520   -1.1500   19.7400 C.2   134  ILE134      0.2593
     13  O        -76.9270   -0.3060   19.6140 O.2   134  ILE134     -0.2718
     14  CB       -74.3980    0.5400   18.8810 C.3   134  ILE134      0.0266
     15  CG1      -73.0240    0.7320   18.2450 C.3   134  ILE134      0.0019
     16  CG2      -74.4860    1.4020   20.1350 C.3   134  ILE134      0.0020
     17  CD1      -72.6220    2.1940   18.0890 C.3   134  ILE134      0.0001
     18  N        -76.2560   -2.3370   20.2980 N.am  135  GLY135     -0.1942
     19  CA       -77.4690   -2.7370   20.9060 C.3   135  GLY135      0.2014
     20  C        -78.6300   -2.8070   19.9910 C.2   135  GLY135      0.2639
     21  O        -79.6850   -2.3580   20.3950 O.2   135  GLY135     -0.2714
     22  N        -78.5340   -3.3640   18.8000 N.am  136  HIS136     -0.1959
     23  CA       -79.7060   -3.3730   17.9850 C.3   136  HIS136      0.1787
     24  C        -80.2090   -4.7650   17.9910 C.2   136  HIS136      0.2620
     25  O        -79.4630   -5.6760   18.2360 O.2   136  HIS136     -0.2715
     26  CB       -79.2610   -2.9520   16.5780 C.3   136  HIS136      0.0785
     27  CG       -80.2210   -3.3040   15.4880 C.ar  136  HIS136      0.0821
     28  ND1      -81.2680   -2.4840   15.1190 N.ar  136  HIS136     -0.2267
     29  CD2      -80.2670   -4.3670   14.6550 C.ar  136  HIS136      0.1154
     30  CE1      -81.9270   -3.0390   14.1210 C.ar  136  HIS136      0.1986
     31  NE2      -81.3410   -4.1850   13.8190 N.ar  136  HIS136     -0.2212
     32  N        -81.5090   -4.9000   17.8550 N.am  137  LEU137     -0.1977
     33  CA       -82.1320   -6.1700   18.0760 C.3   137  LEU137      0.1596
     34  C        -82.7780   -6.6330   16.8100 C.2   137  LEU137      0.2287
     35  O        -83.2390   -5.8480   15.9940 O.2   137  LEU137     -0.2864
     36  CB       -83.2080   -5.9770   19.1510 C.3   137  LEU137      0.0297
     37  CG       -84.1140   -7.1190   19.6070 C.3   137  LEU137      0.0022
     38  CD1      -83.2920   -8.1280   20.3400 C.3   137  LEU137      0.0001
     39  CD2      -85.2350   -6.6010   20.5020 C.3   137  LEU137      0.0001
     40  N        -81.6470    2.6310   13.5330 N.3   175  ASP175     -0.1239
     41  CA       -82.1320    2.8480   14.8730 C.3   175  ASP175      0.1674
     42  C        -82.2450    4.3300   15.2370 C.2   175  ASP175      0.2266
     43  O        -83.1640    4.7270   15.9200 O.2   175  ASP175     -0.2867
     44  CB       -81.2150    2.1570   15.8960 C.3   175  ASP175      0.1410
     45  CG       -81.2380    0.6370   15.7900 C.2   175  ASP175      0.3668
     46  OD1      -82.3210    0.0540   15.5600 O.co2 175  ASP175     -0.2456
     47  OD2      -80.1600    0.0260   15.9500 O.co2 175  ASP175     -0.2456
     48  N        -83.1210    8.7620   24.6500 N.3   208  VAL208     -0.1231
     49  CA       -84.1010    7.8590   24.0490 C.3   208  VAL208      0.1692
     50  C        -83.5810    6.4120   23.9660 C.2   208  VAL208      0.2592
     51  O        -84.2660    5.4520   24.2520 O.2   208  VAL208     -0.2718
     52  CB       -84.5860    8.3700   22.6690 C.3   208  VAL208      0.0266
     53  CG1      -85.4760    7.3450   21.9880 C.3   208  VAL208      0.0020
     54  CG2      -85.3350    9.6740   22.8370 C.3   208  VAL208      0.0020
     55  N        -82.3260    6.2790   23.6140 N.am  209  PHE209     -0.1962
     56  CA       -81.6410    5.0040   23.5810 C.3   209  PHE209      0.1771
     57  C        -81.5470    4.3700   24.9880 C.2   209  PHE209      0.2619
     58  O        -81.7220    3.1790   25.1640 O.2   209  PHE209     -0.2715
     59  CB       -80.2400    5.1780   23.0100 C.3   209  PHE209      0.0574
     60  CG       -80.1300    4.8890   21.5410 C.ar  209  PHE209     -0.0200
     61  CD1      -80.4690    5.8460   20.5990 C.ar  209  PHE209     -0.0042
     62  CD2      -79.6480    3.6700   21.1030 C.ar  209  PHE209     -0.0042
     63  CE1      -80.3450    5.5810   19.2450 C.ar  209  PHE209     -0.0003
     64  CE2      -79.5140    3.4100   19.7570 C.ar  209  PHE209     -0.0003
     65  CZ       -79.8680    4.3580   18.8270 C.ar  209  PHE209     -0.0000
     66  N        -81.2810    5.1970   25.9910 N.am  210  GLN210     -0.1963
     67  CA       -81.1930    4.7500   27.3680 C.3   210  GLN210      0.1733
     68  C        -82.4900    4.5780   28.1790 C.2   210  GLN210      0.2616
     69  O        -82.7040    3.5530   28.8030 O.2   210  GLN210     -0.2715
     70  CB       -80.2090    5.6510   28.1340 C.3   210  GLN210      0.0408
     71  CG       -79.8850    5.1910   29.5510 C.3   210  GLN210      0.0908
     72  CD       -78.7850    6.0150   30.2060 C.2   210  GLN210      0.2608
     73  OE1      -78.3940    7.0650   29.6950 O.2   210  GLN210     -0.2717
     74  NE2      -78.2820    5.5390   31.3420 N.am  210  GLN210     -0.0878
     75  N        -83.3300    5.6100   28.2100 N.am  211  MET211     -0.1963
     76  CA       -84.5560    5.5950   28.9900 C.3   211  MET211      0.1736
     77  C        -85.7720    5.2580   28.1170 C.2   211  MET211      0.2617
     78  O        -86.7600    4.7380   28.5840 O.2   211  MET211     -0.2715
     79  CB       -84.7900    6.9630   29.6320 C.3   211  MET211      0.0427
     80  CG       -83.5800    7.5470   30.3190 C.3   211  MET211      0.0599
     81  SD       -84.0040    9.0810   31.1510 S.3   211  MET211     -0.1393
     82  CE       -84.6790    9.9800   29.7720 C.3   211  MET211      0.0692
     83  N        -85.7430    5.6640   26.8770 N.am  212  GLY212     -0.1955
     84  CA       -86.9160    5.5500   26.0120 C.3   212  GLY212      0.1869
     85  C        -87.6570    6.8670   25.8300 C.2   212  GLY212      0.2309
     86  O        -87.4680    7.7580   26.6200 O.2   212  GLY212     -0.2863
@<TRIPOS>BOND
     1    40    41    1
     2    31    30   ar
     3    31    29   ar
     4    30    28   ar
     5    29    27   ar
     6    41    42    1
     7    41    44    1
     8    28    27   ar
     9    42    43    2
    10    27    26    1
    11    46    45   ar
    12    45    44    1
    13    45    47   ar
    14    35    34    2
    15    26    23    1
    16    34    33    1
    17    32    24   am
    18    32    33    1
    19    23    24    1
    20    23    22    1
    21    24    25    2
    22    33    36    1
    23    17    15    1
    24    10    11    1
    25    15    14    1
    26    22    20   am
    27    65    63   ar
    28    65    64   ar
    29    14    11    1
    30    14    16    1
    31    36    37    1
    32    11    12    1
    33    63    61   ar
    34    37    38    1
    35    37    39    1
    36    13    12    2
    37    12    18   am
    38    64    62   ar
    39    20    21    2
    40    20    19    1
    41    18    19    1
    42    61    60   ar
    43    62    60   ar
    44    60    59    1
    45    53    52    1
    46    52    54    1
    47    52    49    1
    48     8     7   ar
    49    59    56    1
    50    56    55    1
    51    56    57    1
    52    55    50   am
    53     7     9   ar
    54     7     6    1
    55    50    49    1
    56    50    51    2
    57    49    48    1
    58     5     6    1
    59     5     2    1
    60     3     2    1
    61     3     4    2
    62    57    58    2
    63    57    66   am
    64     1     2    1
    65    85    84    1
    66    85    86    2
    67    66    67    1
    68    84    83    1
    69    83    77   am
    70    67    70    1
    71    67    68    1
    72    77    78    2
    73    77    76    1
    74    70    71    1
    75    68    75   am
    76    68    69    2
    77    75    76    1
    78    76    79    1
    79    71    72    1
    80    79    80    1
    81    73    72    2
    82    82    81    1
    83    72    74   am
    84    80    81    1
