@<TRIPOS>MOLECULE
tmp/4k5yB05.pdb
 102 93 0 0 0
SMALL
GASTEIGER

@<TRIPOS>ATOM
      1  N        -30.4200   30.1270   12.8700 N.3    11  LEU11      -0.1245
      2  CA       -31.4610   31.0540   12.4460 C.3    11  LEU11       0.1561
      3  C        -32.7440   30.3510   12.1060 C.2    11  LEU11       0.2260
      4  O        -33.7980   30.7480   12.5140 O.2    11  LEU11      -0.2867
      5  CB       -30.9930   31.9060   11.2580 C.3    11  LEU11       0.0270
      6  CG       -32.0050   32.9310   10.7320 C.3    11  LEU11       0.0019
      7  CD1      -32.4340   33.8940   11.8240 C.3    11  LEU11       0.0001
      8  CD2      -31.4510   33.7030    9.5480 C.3    11  LEU11       0.0001
      9  N        -34.4500   28.8750   15.2000 N.3    14  CYS14      -0.1221
     10  CA       -35.0220   29.9290   16.0110 C.3    14  CYS14       0.1808
     11  C        -36.3300   30.4400   15.4290 C.2    14  CYS14       0.2601
     12  O        -37.2460   30.7470   16.1490 O.2    14  CYS14      -0.2717
     13  CB       -34.0480   31.1010   16.1310 C.3    14  CYS14       0.0970
     14  SG       -32.5730   30.7490   17.0790 S.3    14  CYS14      -0.0800
     15  N        -36.4170   30.5200   14.1180 N.am   15  ILE15      -0.1979
     16  CA       -37.6450   30.9210   13.4620 C.3    15  ILE15       0.1595
     17  C        -38.7410   29.8980   13.6530 C.2    15  ILE15       0.2287
     18  O        -39.8680   30.2130   13.9470 O.2    15  ILE15      -0.2864
     19  CB       -37.4170   31.1900   11.9530 C.3    15  ILE15       0.0276
     20  CG1      -36.4440   32.3570   11.7610 C.3    15  ILE15       0.0022
     21  CG2      -38.7410   31.4680   11.2450 C.3    15  ILE15       0.0022
     22  CD1      -35.9020   32.4740   10.3530 C.3    15  ILE15       0.0001
     23  N        -40.0940   29.6890   17.4060 N.3    18  VAL18      -0.1231
     24  CA       -41.0050   30.8000   17.6390 C.3    18  VAL18       0.1692
     25  C        -42.3390   30.6090   16.9260 C.2    18  VAL18       0.2591
     26  O        -43.3760   30.7920   17.5030 O.2    18  VAL18      -0.2718
     27  CB       -40.3650   32.1760   17.2890 C.3    18  VAL18       0.0266
     28  CG1      -41.3670   33.3020   17.4760 C.3    18  VAL18       0.0020
     29  CG2      -39.1560   32.4280   18.1600 C.3    18  VAL18       0.0020
     30  N        -42.2990   30.1900   15.6740 N.am   19  ALA19      -0.1980
     31  CA       -43.4900   29.9000   14.8930 C.3    19  ALA19       0.1597
     32  C        -44.3800   28.8390   15.5030 C.2    19  ALA19       0.2287
     33  O        -45.5720   29.0100   15.5920 O.2    19  ALA19      -0.2864
     34  CB       -43.1180   29.5370   13.4600 C.3    19  ALA19       0.0319
     35  N        -46.0120   30.3290   18.7880 N.3    22  VAL22      -0.1231
     36  CA       -47.0910   31.2200   18.4320 C.3    22  VAL22       0.1692
     37  C        -48.2990   30.4110   18.0680 C.2    22  VAL22       0.2591
     38  O        -49.3710   30.6420   18.5690 O.2    22  VAL22      -0.2718
     39  CB       -46.6990   32.1630   17.2650 C.3    22  VAL22       0.0266
     40  CG1      -47.9190   32.8740   16.7070 C.3    22  VAL22       0.0020
     41  CG2      -45.6790   33.1780   17.7280 C.3    22  VAL22       0.0020
     42  N        -48.0810   29.3810   17.2760 N.am   23  ALA23      -0.1980
     43  CA       -49.1240   28.4870   16.9060 C.3    23  ALA23       0.1597
     44  C        -49.7060   27.7650   18.1000 C.2    23  ALA23       0.2287
     45  O        -50.8940   27.6670   18.2330 O.2    23  ALA23      -0.2864
     46  CB       -48.6210   27.4860   15.8850 C.3    23  ALA23       0.0319
     47  N        -52.0320   30.1000   19.9610 N.3    26  LEU26      -0.1245
     48  CA       -53.2940   30.2040   19.2330 C.3    26  LEU26       0.1561
     49  C        -54.2500   29.0450   19.5260 C.2    26  LEU26       0.2260
     50  O        -55.4280   29.2640   19.8060 O.2    26  LEU26      -0.2867
     51  CB       -53.0450   30.2800   17.7230 C.3    26  LEU26       0.0270
     52  CG       -52.2640   31.4820   17.1870 C.3    26  LEU26       0.0019
     53  CD1      -52.3940   31.5870   15.6720 C.3    26  LEU26       0.0001
     54  CD2      -52.7130   32.7670   17.8610 C.3    26  LEU26       0.0001
     55  N        -55.7740   29.3580   23.2430 N.3    29  ARG29      -0.1245
     56  CA       -56.7760   30.4090   23.4500 C.3    29  ARG29       0.1563
     57  C        -58.1530   30.1230   22.7990 C.2    29  ARG29       0.2260
     58  O        -59.1880   30.5110   23.3300 O.2    29  ARG29      -0.2867
     59  CB       -56.2490   31.7910   23.0220 C.3    29  ARG29       0.0307
     60  CG       -57.2350   32.9240   23.3450 C.3    29  ARG29       0.0489
     61  CD       -56.8410   34.3040   22.7980 C.3    29  ARG29       0.2205
     62  NE       -57.8690   35.3140   23.0900 N.pl3  29  ARG29      -0.0865
     63  CZ       -58.9340   35.5600   22.3270 C.cat  29  ARG29       0.5346
     64  NH1      -59.1290   34.8780   21.2040 N.pl3  29  ARG29       0.1354
     65  NH2      -59.8080   36.4920   22.6890 N.pl3  29  ARG29       0.1354
     66  N        -41.1960   25.3260   11.1300 N.3   385  PHE385     -0.1241
     67  CA       -42.0180   26.3840   10.5140 C.3   385  PHE385      0.1605
     68  C        -43.1120   25.8100    9.6070 C.2   385  PHE385      0.2264
     69  O        -44.2330   26.2660    9.5910 O.2   385  PHE385     -0.2867
     70  CB       -41.1010   27.3090    9.7180 C.3   385  PHE385      0.0534
     71  CG       -41.8010   28.4580    9.0640 C.ar  385  PHE385     -0.0203
     72  CD1      -42.0550   29.6210    9.7700 C.ar  385  PHE385     -0.0042
     73  CD2      -42.1710   28.3930    7.7320 C.ar  385  PHE385     -0.0042
     74  CE1      -42.6850   30.6920    9.1640 C.ar  385  PHE385     -0.0003
     75  CE2      -42.7990   29.4570    7.1230 C.ar  385  PHE385     -0.0003
     76  CZ       -43.0580   30.6080    7.8420 C.ar  385  PHE385     -0.0000
     77  N        -46.0490   24.6140   11.6460 N.3   388  SER388     -0.1217
     78  CA       -46.8770   25.7130   12.1210 C.3   388  SER388      0.1889
     79  C        -47.8350   26.2510   11.0920 C.2   388  SER388      0.2288
     80  O        -48.9860   26.4650   11.3800 O.2   388  SER388     -0.2866
     81  CB       -46.0030   26.8540   12.6340 C.3   388  SER388      0.2089
     82  OG       -45.2970   27.4440   11.5620 O.3   388  SER388     -0.2183
     83  N        -51.8570   25.8450   11.5350 N.3   392  CYS392     -0.1235
     84  CA       -52.5630   27.1070   11.4240 C.3   392  CYS392      0.1677
     85  C        -53.5510   27.1550   10.2310 C.2   392  CYS392      0.2270
     86  O        -54.6790   27.6410   10.3440 O.2   392  CYS392     -0.2867
     87  CB       -51.5970   28.2970   11.4320 C.3   392  CYS392      0.0956
     88  SG       -50.9210   28.6650   13.0830 S.3   392  CYS392     -0.0801
     89  N        -56.6770   24.7220   11.3570 N.3   395  ASN395     -0.1225
     90  CA       -57.5530   25.3330   12.3500 C.3   395  ASN395      0.1785
     91  C        -58.4120   26.4990   11.7930 C.2   395  ASN395      0.2597
     92  O        -59.6290   26.5100   11.9710 O.2   395  ASN395     -0.2718
     93  CB       -56.7610   25.7740   13.5880 C.3   395  ASN395      0.1169
     94  CG       -57.6610   26.2080   14.7390 C.2   395  ASN395      0.2627
     95  OD1      -58.8530   25.8930   14.7640 O.2   395  ASN395     -0.2716
     96  ND2      -57.0890   26.9300   15.7010 N.am  395  ASN395     -0.0877
     97  N        -57.7490   27.4800   11.1400 N.am  396  SER396     -0.1952
     98  CA       -58.4150   28.6940   10.5920 C.3   396  SER396      0.1924
     99  C        -59.4030   29.4470   11.5310 C.2   396  SER396      0.2314
    100  O        -60.2470   30.2270   11.0070 O.2   396  SER396     -0.2863
    101  CB       -59.0700   28.4150    9.2300 C.3   396  SER396      0.2116
    102  OG       -60.3670   27.8590    9.3710 O.3   396  SER396     -0.2180
@<TRIPOS>BOND
     1    75    73   ar
     2    75    76   ar
     3    73    71   ar
     4    76    74   ar
     5    71    70    1
     6    71    72   ar
     7    74    72   ar
     8   101   102    1
     9   101    98    1
    10     8     6    1
    11    69    68    2
    12    68    67    1
    13    70    67    1
    14    85    86    2
    15    85    84    1
    16    22    20    1
    17    67    66    1
    18    98    97    1
    19    98    99    1
    20     6     5    1
    21     6     7    1
    22   100    99    2
    23    79    80    2
    24    79    78    1
    25    97    91   am
    26    21    19    1
    27     5     2    1
    28    89    90    1
    29    84    87    1
    30    84    83    1
    31    87    88    1
    32    82    81    1
    33    77    78    1
    34    20    19    1
    35    91    92    2
    36    91    90    1
    37    19    16    1
    38     3     2    1
    39     3     4    2
    40    78    81    1
    41    90    93    1
    42     2     1    1
    43    34    31    1
    44    16    17    1
    45    16    15    1
    46    93    94    1
    47    17    18    2
    48    15    11   am
    49    94    95    2
    50    94    96   am
    51    31    32    1
    52    31    30    1
    53     9    10    1
    54    11    10    1
    55    11    12    2
    56    32    33    2
    57    53    52    1
    58    30    25   am
    59    46    43    1
    60    10    13    1
    61    13    14    1
    62    40    39    1
    63    43    42    1
    64    43    44    1
    65    25    26    2
    66    25    24    1
    67    52    51    1
    68    52    54    1
    69    39    41    1
    70    39    36    1
    71    42    37   am
    72    27    28    1
    73    27    24    1
    74    27    29    1
    75    23    24    1
    76    51    48    1
    77    37    36    1
    78    37    38    2
    79    44    45    2
    80    36    35    1
    81    48    49    1
    82    48    47    1
    83    49    50    2
    84    64    63    1
    85    63    65    1
    86    63    62    2
    87    61    62    1
    88    61    60    1
    89    57    58    2
    90    57    56    1
    91    59    60    1
    92    59    56    1
    93    55    56    1
