@<TRIPOS>MOLECULE
tmp/4k5yA02.pdb
 111 105 0 0 0
SMALL
GASTEIGER

@<TRIPOS>ATOM
      1  N        -51.4330  -17.7350   53.9250 N.3    15  ILE15      -0.1245
      2  CA       -50.1570  -18.3900   54.1620 C.3    15  ILE15       0.1561
      3  C        -49.0740  -17.9730   53.2050 C.2    15  ILE15       0.2260
      4  O        -48.0500  -17.4860   53.6520 O.2    15  ILE15      -0.2867
      5  CB       -50.2860  -19.9280   54.2220 C.3    15  ILE15       0.0252
      6  CG1      -51.0830  -20.3360   55.4630 C.3    15  ILE15       0.0019
      7  CG2      -48.9090  -20.5770   54.2500 C.3    15  ILE15       0.0019
      8  CD1      -51.4400  -21.7990   55.5010 C.3    15  ILE15       0.0001
      9  N        -47.9580  -14.1780   53.8790 N.3    18  VAL18      -0.1231
     10  CA       -47.0900  -14.0890   55.0370 C.3    18  VAL18       0.1692
     11  C        -45.6970  -14.6360   54.7610 C.2    18  VAL18       0.2591
     12  O        -44.7080  -14.0440   55.1150 O.2    18  VAL18      -0.2718
     13  CB       -47.7110  -14.7740   56.2840 C.3    18  VAL18       0.0266
     14  CG1      -46.7140  -14.8290   57.4340 C.3    18  VAL18       0.0020
     15  CG2      -48.9510  -14.0310   56.7220 C.3    18  VAL18       0.0020
     16  N        -45.6330  -15.7790   54.1010 N.am   19  ALA19      -0.1980
     17  CA       -44.3750  -16.4090   53.7340 C.3    19  ALA19       0.1597
     18  C        -43.4860  -15.5370   52.8590 C.2    19  ALA19       0.2287
     19  O        -42.3250  -15.3340   53.1430 O.2    19  ALA19      -0.2864
     20  CB       -44.6310  -17.7530   53.0720 C.3    19  ALA19       0.0319
     21  N        -42.1540  -12.5660   54.7990 N.3    22  VAL22      -0.1231
     22  CA       -41.0420  -12.9740   55.6500 C.3    22  VAL22       0.1692
     23  C        -39.7610  -13.1320   54.8440 C.2    22  VAL22       0.2591
     24  O        -38.7070  -12.6910   55.2560 O.2    22  VAL22      -0.2718
     25  CB       -41.3620  -14.3080   56.3790 C.3    22  VAL22       0.0266
     26  CG1      -40.0860  -14.9880   56.8850 C.3    22  VAL22       0.0020
     27  CG2      -42.3410  -14.0710   57.5160 C.3    22  VAL22       0.0020
     28  N        -39.8800  -13.7250   53.6570 N.am   23  ALA23      -0.1980
     29  CA       -38.7480  -13.9110   52.7620 C.3    23  ALA23       0.1597
     30  C        -38.1680  -12.5920   52.2790 C.2    23  ALA23       0.2287
     31  O        -36.9910  -12.4180   52.1880 O.2    23  ALA23      -0.2864
     32  CB       -39.1340  -14.7950   51.5920 C.3    23  ALA23       0.0319
     33  N        -36.1980  -10.9130   55.0320 N.3    26  LEU26      -0.1231
     34  CA       -34.9470  -11.6430   55.0850 C.3    26  LEU26       0.1693
     35  C        -33.9320  -11.1260   54.0640 C.2    26  LEU26       0.2592
     36  O        -32.8000  -10.8210   54.4100 O.2    26  LEU26      -0.2718
     37  CB       -35.1800  -13.1460   54.8940 C.3    26  LEU26       0.0284
     38  CG       -35.7700  -13.8850   56.0970 C.3    26  LEU26       0.0019
     39  CD1      -35.9240  -15.3660   55.8100 C.3    26  LEU26       0.0001
     40  CD2      -34.9140  -13.6730   57.3340 C.3    26  LEU26       0.0001
     41  N        -34.3390  -11.0080   52.8140 N.am   27  PHE27      -0.1976
     42  CA       -33.4500  -10.5620   51.7680 C.3    27  PHE27       0.1639
     43  C        -33.0140   -9.1040   51.9700 C.2    27  PHE27       0.2290
     44  O        -31.8680   -8.7750   51.7800 O.2    27  PHE27      -0.2864
     45  CB       -34.0910  -10.7460   50.3900 C.3    27  PHE27       0.0560
     46  CG       -33.9810  -12.1430   49.8500 C.ar   27  PHE27      -0.0200
     47  CD1      -32.8160  -12.5740   49.2380 C.ar   27  PHE27      -0.0042
     48  CD2      -35.0400  -13.0260   49.9530 C.ar   27  PHE27      -0.0042
     49  CE1      -32.7100  -13.8590   48.7410 C.ar   27  PHE27      -0.0003
     50  CE2      -34.9380  -14.3140   49.4610 C.ar   27  PHE27      -0.0003
     51  CZ       -33.7730  -14.7280   48.8530 C.ar   27  PHE27      -0.0000
     52  N        -30.2660   -9.0450   54.9390 N.3    30  ALA30      -0.1245
     53  CA       -29.0110   -9.5610   54.4160 C.3    30  ALA30       0.1562
     54  C        -28.0730   -8.4650   53.8470 C.2    30  ALA30       0.2260
     55  O        -28.4940   -7.5940   53.0810 O.2    30  ALA30      -0.2867
     56  CB       -29.2760  -10.6350   53.3650 C.3    30  ALA30       0.0290
     57  N        -46.1910  -19.6030   48.5240 N.3   396  PHE396     -0.1241
     58  CA       -45.3810  -20.2070   49.5580 C.3   396  PHE396      0.1605
     59  C        -44.1760  -20.9510   48.9420 C.2   396  PHE396      0.2264
     60  O        -43.0510  -20.8510   49.3950 O.2   396  PHE396     -0.2867
     61  CB       -46.2750  -21.1700   50.3540 C.3   396  PHE396      0.0534
     62  CG       -45.5630  -21.9270   51.4390 C.ar  396  PHE396     -0.0203
     63  CD1      -45.2910  -21.3230   52.6560 C.ar  396  PHE396     -0.0042
     64  CD2      -45.2030  -23.2540   51.2580 C.ar  396  PHE396     -0.0042
     65  CE1      -44.6480  -22.0180   53.6630 C.ar  396  PHE396     -0.0003
     66  CE2      -44.5590  -23.9570   52.2610 C.ar  396  PHE396     -0.0003
     67  CZ       -44.2810  -23.3360   53.4660 C.ar  396  PHE396     -0.0000
     68  N        -41.5320  -18.5840   48.1000 N.3   399  SER399     -0.1202
     69  CA       -40.7970  -18.1040   49.2630 C.3   399  SER399      0.2020
     70  C        -39.7330  -19.0620   49.7440 C.2   399  SER399      0.2618
     71  O        -38.5990  -18.6990   49.9840 O.2   399  SER399     -0.2717
     72  CB       -41.7580  -17.8000   50.4100 C.3   399  SER399      0.2103
     73  OG       -42.3680  -18.9910   50.8610 O.3   399  SER399     -0.2182
     74  N        -40.1070  -20.3180   49.8290 N.am  400  VAL400     -0.1979
     75  CA       -39.1770  -21.3680   50.1510 C.3   400  VAL400      0.1595
     76  C        -38.0390  -21.4550   49.1450 C.2   400  VAL400      0.2287
     77  O        -36.8830  -21.6110   49.4890 O.2   400  VAL400     -0.2864
     78  CB       -39.9070  -22.7280   50.2700 C.3   400  VAL400      0.0276
     79  CG1      -38.9190  -23.8840   50.3280 C.3   400  VAL400      0.0022
     80  CG2      -40.7930  -22.7300   51.4970 C.3   400  VAL400      0.0022
     81  N        -35.4700  -18.5300   49.2140 N.3   403  CYS403     -0.1221
     82  CA       -34.6650  -18.7670   50.3980 C.3   403  CYS403      0.1808
     83  C        -33.6650  -19.8990   50.2310 C.2   403  CYS403      0.2601
     84  O        -32.5400  -19.7710   50.6580 O.2   403  CYS403     -0.2717
     85  CB       -35.5330  -18.9430   51.6500 C.3   403  CYS403      0.0970
     86  SG       -36.3900  -17.4250   52.1670 S.3   403  CYS403     -0.0800
     87  N        -34.0740  -21.0020   49.6070 N.am  404  PHE404     -0.1976
     88  CA       -33.1650  -22.1210   49.3570 C.3   404  PHE404      0.1639
     89  C        -31.9480  -21.7070   48.4950 C.2   404  PHE404      0.2290
     90  O        -30.8100  -22.0130   48.8030 O.2   404  PHE404     -0.2864
     91  CB       -33.9160  -23.2810   48.7030 C.3   404  PHE404      0.0560
     92  CG       -33.0550  -24.4760   48.4110 C.ar  404  PHE404     -0.0200
     93  CD1      -32.5700  -25.2680   49.4400 C.ar  404  PHE404     -0.0042
     94  CD2      -32.7400  -24.8160   47.1050 C.ar  404  PHE404     -0.0042
     95  CE1      -31.7810  -26.3700   49.1710 C.ar  404  PHE404     -0.0003
     96  CE2      -31.9540  -25.9170   46.8290 C.ar  404  PHE404     -0.0003
     97  CZ       -31.4730  -26.6960   47.8630 C.ar  404  PHE404     -0.0000
     98  N        -30.7190  -18.6180   48.2070 N.3   406  ASN406     -0.1225
     99  CA       -29.9200  -17.7320   49.0410 C.3   406  ASN406      0.1785
    100  C        -29.1200  -18.4980   50.1310 C.2   406  ASN406      0.2597
    101  O        -27.9390  -18.2420   50.3400 O.2   406  ASN406     -0.2718
    102  CB       -30.8080  -16.6550   49.6760 C.3   406  ASN406      0.1169
    103  CG       -30.0070  -15.5580   50.3590 C.2   406  ASN406      0.2627
    104  OD1      -28.8880  -15.2370   49.9490 O.2   406  ASN406     -0.2716
    105  ND2      -30.5810  -14.9730   51.4090 N.am  406  ASN406     -0.0877
    106  N        -29.8130  -19.4500   50.7830 N.am  407  SER407     -0.1952
    107  CA       -29.3080  -20.3450   51.8480 C.3   407  SER407      0.1924
    108  C        -28.5250  -19.8000   53.0610 C.2   407  SER407      0.2314
    109  O        -28.9060  -20.1880   54.2020 O.2   407  SER407     -0.2863
    110  CB       -28.5160  -21.5100   51.2330 C.3   407  SER407      0.2116
    111  OG       -27.2560  -21.0810   50.7470 O.3   407  SER407     -0.2180
@<TRIPOS>BOND
     1    96    94   ar
     2    96    97   ar
     3    94    92   ar
     4    97    95   ar
     5    68    69    1
     6    98    99    1
     7    92    91    1
     8    92    93   ar
     9    89    90    2
    10    89    88    1
    11    57    58    1
    12    91    88    1
    13    49    51   ar
    14    49    47   ar
    15    51    50   ar
    16    59    60    2
    17    59    58    1
    18    99   102    1
    19    99   100    1
    20    76    77    2
    21    76    75    1
    22    95    93   ar
    23    81    82    1
    24    47    46   ar
    25    69    70    1
    26    69    72    1
    27    88    87    1
    28    50    48   ar
    29    58    61    1
    30    87    83   am
    31   102   103    1
    32    70    74   am
    33    70    71    2
    34    74    75    1
    35    46    48   ar
    36    46    45    1
    37   104   103    2
    38   100   101    2
    39   100   106   am
    40    75    78    1
    41    83    82    1
    42    83    84    2
    43    78    79    1
    44    78    80    1
    45    61    62    1
    46   103   105   am
    47    45    42    1
    48    82    85    1
    49    72    73    1
    50   111   110    1
    51   106   107    1
    52   110   107    1
    53    64    62   ar
    54    64    66   ar
    55    62    63   ar
    56    32    29    1
    57    85    86    1
    58    42    43    1
    59    42    41    1
    60    44    43    2
    61   107   108    1
    62    31    30    2
    63    66    67   ar
    64    30    29    1
    65    63    65   ar
    66    29    28    1
    67    41    35   am
    68    18    19    2
    69    18    17    1
    70   108   109    2
    71    20    17    1
    72    55    54    2
    73     3     4    2
    74     3     2    1
    75    56    53    1
    76    67    65   ar
    77    28    23   am
    78    17    16    1
    79    54    53    1
    80     9    10    1
    81     1     2    1
    82    35    36    2
    83    35    34    1
    84    16    11   am
    85     2     5    1
    86     5     7    1
    87     5     6    1
    88    53    52    1
    89    11    10    1
    90    11    12    2
    91    21    22    1
    92    23    24    2
    93    23    22    1
    94    37    34    1
    95    37    38    1
    96    33    34    1
    97    10    13    1
    98     6     8    1
    99    22    25    1
   100    39    38    1
   101    38    40    1
   102    13    15    1
   103    13    14    1
   104    25    26    1
   105    25    27    1
