@<TRIPOS>MOLECULE
tmp/4k5yB04.pdb
 159 153 0 0 0
SMALL
GASTEIGER

@<TRIPOS>ATOM
      1  N        -44.3770   28.0620   18.7470 N.3    21  LEU21      -0.1245
      2  CA       -44.8600   28.6140   20.0020 C.3    21  LEU21       0.1561
      3  C        -46.0610   29.5100   19.8230 C.2    21  LEU21       0.2260
      4  O        -47.0080   29.4440   20.5720 O.2    21  LEU21      -0.2867
      5  CB       -43.7420   29.3870   20.7190 C.3    21  LEU21       0.0270
      6  CG       -42.6870   28.5470   21.4450 C.3    21  LEU21       0.0019
      7  CD1      -41.5790   29.4110   22.0140 C.3    21  LEU21       0.0001
      8  CD2      -43.3360   27.7400   22.5480 C.3    21  LEU21       0.0001
      9  N        -48.8770   27.3050   19.0040 N.3    24  PHE24      -0.1227
     10  CA       -49.3430   26.6640   20.2100 C.3    24  PHE24       0.1736
     11  C        -50.2220   27.5930   21.0570 C.2    24  PHE24       0.2595
     12  O        -51.2890   27.2370   21.4990 O.2    24  PHE24      -0.2718
     13  CB       -48.1270   26.2190   21.0190 C.3    24  PHE24       0.0547
     14  CG       -48.4520   25.3100   22.1620 C.ar   24  PHE24      -0.0202
     15  CD1      -48.8780   24.0120   21.9320 C.ar   24  PHE24      -0.0042
     16  CD2      -48.3070   25.7430   23.4700 C.ar   24  PHE24      -0.0042
     17  CE1      -49.1690   23.1700   22.9870 C.ar   24  PHE24      -0.0003
     18  CE2      -48.5930   24.9060   24.5240 C.ar   24  PHE24      -0.0003
     19  CZ       -49.0260   23.6170   24.2850 C.ar   24  PHE24      -0.0000
     20  N        -49.7980   28.8180   21.2420 N.am   25  VAL25      -0.1980
     21  CA       -50.6120   29.8090   21.9190 C.3    25  VAL25       0.1595
     22  C        -51.9900   29.9650   21.2800 C.2    25  VAL25       0.2287
     23  O        -52.9970   29.9110   21.9580 O.2    25  VAL25      -0.2864
     24  CB       -49.8900   31.1670   22.0740 C.3    25  VAL25       0.0276
     25  CG1      -50.8600   32.2460   22.5450 C.3    25  VAL25       0.0022
     26  CG2      -48.7530   31.0310   23.0640 C.3    25  VAL25       0.0022
     27  N        -54.3360   27.0640   22.1520 N.3    28  LEU28      -0.1245
     28  CA       -54.7960   27.1340   23.5230 C.3    28  LEU28       0.1561
     29  C        -55.9130   28.1560   23.7870 C.2    28  LEU28       0.2260
     30  O        -56.8630   27.8830   24.5030 O.2    28  LEU28      -0.2867
     31  CB       -53.6130   27.3680   24.4680 C.3    28  LEU28       0.0270
     32  CG       -52.5440   26.2730   24.4190 C.3    28  LEU28       0.0019
     33  CD1      -51.5220   26.4460   25.5250 C.3    28  LEU28       0.0001
     34  CD2      -53.1850   24.9030   24.5010 C.3    28  LEU28       0.0001
     35  N        -60.1070   24.3080   20.6780 N.3    33  ILE33      -0.1245
     36  CA       -59.3900   23.3920   21.5630 C.3    33  ILE33       0.1561
     37  C        -60.2770   22.3070   22.1450 C.2    33  ILE33       0.2260
     38  O        -59.8490   21.2010   22.4080 O.2    33  ILE33      -0.2867
     39  CB       -58.5590   24.1040   22.6740 C.3    33  ILE33       0.0252
     40  CG1      -57.4790   23.1560   23.2180 C.3    33  ILE33       0.0019
     41  CG2      -59.4510   24.6190   23.7890 C.3    33  ILE33       0.0019
     42  CD1      -56.7150   23.6930   24.4120 C.3    33  ILE33       0.0001
     43  N        -57.2640   19.1030   19.7060 N.3    39  ILE39      -0.1245
     44  CA       -56.4700   18.4640   20.7550 C.3    39  ILE39       0.1561
     45  C        -55.2600   17.7550   20.1480 C.2    39  ILE39       0.2260
     46  O        -54.1510   17.9270   20.6030 O.2    39  ILE39      -0.2867
     47  CB       -57.3060   17.4920   21.6130 C.3    39  ILE39       0.0252
     48  CG1      -58.2430   18.2720   22.5390 C.3    39  ILE39       0.0019
     49  CG2      -56.4020   16.5920   22.4360 C.3    39  ILE39       0.0019
     50  CD1      -59.1450   17.3990   23.3920 C.3    39  ILE39       0.0001
     51  N        -52.6060   20.4940   18.7640 N.3    42  ALA42      -0.1231
     52  CA       -51.8070   21.1290   19.8110 C.3    42  ALA42       0.1694
     53  C        -50.7300   20.2120   20.3870 C.2    42  ALA42       0.2592
     54  O        -49.6170   20.6120   20.6310 O.2    42  ALA42      -0.2718
     55  CB       -52.7090   21.6590   20.9190 C.3    42  ALA42       0.0304
     56  N        -51.0750   18.9520   20.5740 N.am   43  ASN43      -0.1974
     57  CA       -50.1200   17.9170   20.9250 C.3    43  ASN43       0.1688
     58  C        -49.0090   17.7730   19.9100 C.2    43  ASN43       0.2292
     59  O        -47.8740   17.6570   20.2730 O.2    43  ASN43      -0.2864
     60  CB       -50.8310   16.5760   21.1310 C.3    43  ASN43       0.1181
     61  CG       -51.4260   16.4320   22.5200 C.2    43  ASN43       0.2629
     62  OD1      -50.7470   16.0240   23.4620 O.2    43  ASN43      -0.2716
     63  ND2      -52.7010   16.7600   22.6510 N.am   43  ASN43      -0.0877
     64  N        -46.7730   20.8440   20.0460 N.3    46  ALA46      -0.1245
     65  CA       -45.9800   20.6260   21.2610 C.3    46  ALA46       0.1562
     66  C        -44.8390   19.6520   21.0460 C.2    46  ALA46       0.2260
     67  O        -43.7370   19.8760   21.4530 O.2    46  ALA46      -0.2867
     68  CB       -46.8710   20.1480   22.3950 C.3    46  ALA46       0.0290
     69  N        -42.2640   21.4320   19.1450 N.3    49  ILE49      -0.1231
     70  CA       -41.6380   22.4350   20.0140 C.3    49  ILE49       0.1692
     71  C        -40.5250   21.8460   20.8610 C.2    49  ILE49       0.2591
     72  O        -39.4650   22.4050   20.9840 O.2    49  ILE49      -0.2718
     73  CB       -42.6870   23.0930   20.9570 C.3    49  ILE49       0.0266
     74  CG1      -43.6540   23.9820   20.1730 C.3    49  ILE49       0.0019
     75  CG2      -42.0060   23.9090   22.0430 C.3    49  ILE49       0.0020
     76  CD1      -44.8470   24.4570   20.9800 C.3    49  ILE49       0.0001
     77  N        -40.7850   20.6980   21.4430 N.am   50  LEU50      -0.1980
     78  CA       -39.8240   20.0160   22.2430 C.3    50  LEU50       0.1596
     79  C        -38.6570   19.4830   21.4370 C.2    50  LEU50       0.2287
     80  O        -37.5380   19.6460   21.8390 O.2    50  LEU50      -0.2864
     81  CB       -40.4910   18.8830   23.0320 C.3    50  LEU50       0.0297
     82  CG       -41.5380   19.3300   24.0600 C.3    50  LEU50       0.0022
     83  CD1      -42.2230   18.1460   24.7210 C.3    50  LEU50       0.0001
     84  CD2      -40.9120   20.2290   25.1100 C.3    50  LEU50       0.0001
     85  N        -36.1150   10.6490   21.0770 N.3    83  TYR83      -0.1227
     86  CA       -37.4820   10.4020   21.5410 C.3    83  TYR83       0.1736
     87  C        -38.4600   11.3400   20.8940 C.2    83  TYR83       0.2595
     88  O        -39.4340   10.9220   20.3200 O.2    83  TYR83      -0.2718
     89  CB       -37.5480   10.5480   23.0640 C.3    83  TYR83       0.0548
     90  CG       -38.9470   10.4670   23.6290 C.ar   83  TYR83      -0.0200
     91  CD1      -39.5630    9.2380   23.8310 C.ar   83  TYR83      -0.0009
     92  CD2      -39.6570   11.6210   23.9580 C.ar   83  TYR83      -0.0009
     93  CE1      -40.8430    9.1580   24.3380 C.ar   83  TYR83       0.0417
     94  CE2      -40.9360   11.5470   24.4670 C.ar   83  TYR83       0.0417
     95  CZ       -41.5210   10.3130   24.6530 C.ar   83  TYR83       0.1957
     96  OH       -42.7910   10.2460   25.1620 O.3    83  TYR83      -0.2866
     97  N        -38.1070   12.5980   20.8730 N.am   84  PHE84      -0.1976
     98  CA       -38.8990   13.6280   20.2540 C.3    84  PHE84       0.1639
     99  C        -39.1330   13.3820   18.7710 C.2    84  PHE84       0.2290
    100  O        -40.2170   13.5410   18.2890 O.2    84  PHE84      -0.2864
    101  CB       -38.3560   15.0170   20.6000 C.3    84  PHE84       0.0560
    102  CG       -38.5610   15.3770   22.0460 C.ar   84  PHE84      -0.0200
    103  CD1      -39.7790   15.1200   22.6550 C.ar   84  PHE84      -0.0042
    104  CD2      -37.5440   15.9310   22.8030 C.ar   84  PHE84      -0.0042
    105  CE1      -39.9880   15.4260   23.9770 C.ar   84  PHE84      -0.0003
    106  CE2      -37.7490   16.2410   24.1370 C.ar   84  PHE84      -0.0003
    107  CZ       -38.9730   15.9860   24.7220 C.ar   84  PHE84      -0.0000
    108  N        -62.9970   14.4480   24.8550 N.3   268  ARG268     -0.1245
    109  CA       -62.0880   14.3650   25.9730 C.3   268  ARG268      0.1563
    110  C        -61.6420   12.9240   26.2310 C.2   268  ARG268      0.2260
    111  O        -60.4620   12.6410   26.3610 O.2   268  ARG268     -0.2867
    112  CB       -62.7360   14.9510   27.2300 C.3   268  ARG268      0.0307
    113  CG       -61.9180   14.7440   28.4870 C.3   268  ARG268      0.0489
    114  CD       -62.5260   15.4780   29.6610 C.3   268  ARG268      0.2205
    115  NE       -61.7330   15.2970   30.8720 N.pl3 268  ARG268     -0.0865
    116  CZ       -62.2460   15.0960   32.0790 C.cat 268  ARG268      0.5346
    117  NH1      -63.5610   15.0380   32.2460 N.pl3 268  ARG268      0.1354
    118  NH2      -61.4390   14.9490   33.1180 N.pl3 268  ARG268      0.1354
    119  N        -59.3870   11.4740   23.1580 N.3   271  ALA271     -0.1231
    120  CA       -58.0880   12.1030   23.1100 C.3   271  ALA271      0.1694
    121  C        -57.0400   11.2250   23.7310 C.2   271  ALA271      0.2592
    122  O        -55.9410   11.1130   23.2420 O.2   271  ALA271     -0.2718
    123  CB       -58.1210   13.4660   23.7900 C.3   271  ALA271      0.0304
    124  N        -57.4170   10.5660   24.8020 N.am  272  TRP272     -0.1976
    125  CA       -56.5300    9.6320   25.4750 C.3   272  TRP272      0.1640
    126  C        -55.9440    8.5780   24.5240 C.2   272  TRP272      0.2290
    127  O        -54.7800    8.2460   24.5860 O.2   272  TRP272     -0.2864
    128  CB       -57.1920    9.0010   26.7050 C.3   272  TRP272      0.0576
    129  CG       -57.1920    9.9740   27.8370 C.ar  272  TRP272      0.0006
    130  CD1      -58.2470   10.7080   28.3040 C.ar  272  TRP272      0.0946
    131  CD2      -56.0490   10.3900   28.5850 C.ar  272  TRP272      0.0152
    132  NE1      -57.8250   11.5370   29.3230 N.ar  272  TRP272     -0.2442
    133  CE2      -56.4790   11.3590   29.5110 C.ar  272  TRP272      0.0810
    134  CE3      -54.7010   10.0250   28.5690 C.ar  272  TRP272      0.0012
    135  CZ2      -55.6100   11.9640   30.4140 C.ar  272  TRP272      0.0191
    136  CZ3      -53.8430   10.6200   29.4580 C.ar  272  TRP272      0.0001
    137  CH2      -54.2980   11.5830   30.3720 C.ar  272  TRP272      0.0015
    138  N        -53.0970   10.1880   22.7330 N.3   275  ILE275     -0.1245
    139  CA       -52.0110   10.4350   23.6710 C.3   275  ILE275      0.1561
    140  C        -51.1290    9.2140   23.8620 C.2   275  ILE275      0.2260
    141  O        -49.9200    9.3090   23.8470 O.2   275  ILE275     -0.2867
    142  CB       -52.5430   10.9450   25.0280 C.3   275  ILE275      0.0252
    143  CG1      -52.9810   12.4040   24.9010 C.3   275  ILE275      0.0019
    144  CG2      -51.4850   10.8230   26.1090 C.3   275  ILE275      0.0019
    145  CD1      -53.6430   12.9420   26.1340 C.3   275  ILE275      0.0001
    146  N        -47.3120    9.9390   22.6130 N.3   279  TRP279     -0.1241
    147  CA       -46.2410   10.1130   23.5570 C.3   279  TRP279      0.1605
    148  C        -45.9170    8.8310   24.2510 C.2   279  TRP279      0.2264
    149  O        -44.7800    8.5130   24.4980 O.2   279  TRP279     -0.2867
    150  CB       -46.6970   11.0120   24.7020 C.3   279  TRP279      0.0550
    151  CG       -47.1480   12.3640   24.3670 C.ar  279  TRP279      0.0003
    152  CD1      -48.4310   12.8240   24.3430 C.ar  279  TRP279      0.0946
    153  CD2      -46.3130   13.4730   24.0640 C.ar  279  TRP279      0.0152
    154  NE1      -48.4440   14.1600   24.0180 N.ar  279  TRP279     -0.2442
    155  CE2      -47.1500   14.5810   23.8410 C.ar  279  TRP279      0.0810
    156  CE3      -44.9320   13.6370   23.9440 C.ar  279  TRP279      0.0012
    157  CZ2      -46.6530   15.8330   23.5060 C.ar  279  TRP279      0.0191
    158  CZ3      -44.4410   14.8710   23.6150 C.ar  279  TRP279      0.0001
    159  CH2      -45.2960   15.9580   23.3980 C.ar  279  TRP279      0.0015
@<TRIPOS>BOND
     1   100    99    2
     2     1     2    1
     3    51    52    1
     4    99    98    1
     5     9    10    1
     6    69    70    1
     7    43    44    1
     8    52    53    1
     9    52    55    1
    10     3     2    1
    11     3     4    2
    12    58    59    2
    13    58    57    1
    14     2     5    1
    15    70    71    1
    16    70    73    1
    17    64    65    1
    18    45    46    2
    19    45    44    1
    20    74    73    1
    21    74    76    1
    22    10    13    1
    23    10    11    1
    24    98   101    1
    25    98    97    1
    26    88    87    2
    27    53    56   am
    28    53    54    2
    29    56    57    1
    30   101   102    1
    31    35    36    1
    32     5     6    1
    33    44    47    1
    34    71    72    2
    35    71    77   am
    36    97    87   am
    37    87    86    1
    38    57    60    1
    39    73    75    1
    40    13    14    1
    41    66    65    1
    42    66    67    2
    43    11    20   am
    44    11    12    2
    45    85    86    1
    46    60    61    1
    47    20    21    1
    48    65    68    1
    49    22    21    1
    50    22    23    2
    51    79    80    2
    52    79    78    1
    53    77    78    1
    54     6     7    1
    55     6     8    1
    56    86    89    1
    57    36    37    1
    58    36    39    1
    59    47    49    1
    60    47    48    1
    61    21    24    1
    62    15    14   ar
    63    15    17   ar
    64   102   103   ar
    65   102   104   ar
    66    24    25    1
    67    24    26    1
    68    37    38    2
    69    27    28    1
    70    14    16   ar
    71    78    81    1
    72    61    63   am
    73    61    62    2
    74    48    50    1
    75   146   147    1
    76   103   105   ar
    77    39    40    1
    78    39    41    1
    79   138   139    1
    80   104   106   ar
    81    17    19   ar
    82    81    82    1
    83    89    90    1
    84   120   119    1
    85   120   121    1
    86   120   123    1
    87    40    42    1
    88   122   121    2
    89   159   157   ar
    90   159   158   ar
    91    16    18   ar
    92   157   155   ar
    93    28    29    1
    94    28    31    1
    95   147   148    1
    96   147   150    1
    97   158   156   ar
    98    90    91   ar
    99    90    92   ar
   100   139   140    1
   101   139   142    1
   102   121   124   am
   103    29    30    2
   104    91    93   ar
   105   155   154   ar
   106   155   153   ar
   107   141   140    2
   108   156   153   ar
   109    92    94   ar
   110   105   107   ar
   111   154   152   ar
   112    82    83    1
   113    82    84    1
   114   153   151   ar
   115   106   107   ar
   116   148   149    2
   117    19    18   ar
   118    93    95   ar
   119   152   151   ar
   120   151   150    1
   121    32    31    1
   122    32    34    1
   123    32    33    1
   124    94    95   ar
   125   126   127    2
   126   126   125    1
   127    95    96    1
   128   124   125    1
   129   108   109    1
   130   143   142    1
   131   143   145    1
   132   142   144    1
   133   125   128    1
   134   109   110    1
   135   109   112    1
   136   110   111    2
   137   128   129    1
   138   112   113    1
   139   129   130   ar
   140   129   131   ar
   141   130   132   ar
   142   113   114    1
   143   134   131   ar
   144   134   136   ar
   145   131   133   ar
   146   132   133   ar
   147   136   137   ar
   148   133   135   ar
   149   114   115    1
   150   137   135   ar
   151   115   116    2
   152   116   117    1
   153   116   118    1
