@<TRIPOS>MOLECULE
tmp/4k5yC01.pdb
 198 190 0 0 0
SMALL
GASTEIGER

@<TRIPOS>ATOM
      1  N        -45.1380  -17.4740   70.7310 N.3    46  PHE46      -0.1241
      2  CA       -45.7470  -16.2390   70.2950 C.3    46  PHE46       0.1605
      3  C        -46.2480  -16.3210   68.8590 C.2    46  PHE46       0.2264
      4  O        -47.3050  -15.8370   68.5330 O.2    46  PHE46      -0.2867
      5  CB       -44.8530  -15.0310   70.5700 C.3    46  PHE46       0.0534
      6  CG       -44.9550  -14.5430   71.9820 C.ar   46  PHE46      -0.0203
      7  CD1      -44.2500  -15.1740   72.9910 C.ar   46  PHE46      -0.0042
      8  CD2      -45.7940  -13.4920   72.3120 C.ar   46  PHE46      -0.0042
      9  CE1      -44.3580  -14.7500   74.3020 C.ar   46  PHE46      -0.0003
     10  CE2      -45.9060  -13.0630   73.6230 C.ar   46  PHE46      -0.0003
     11  CZ       -45.1850  -13.6940   74.6190 C.ar   46  PHE46      -0.0000
     12  N        -46.8810  -18.9970   76.2670 N.3    86  ASN86      -0.1225
     13  CA       -46.1950  -17.7120   76.3000 C.3    86  ASN86       0.1785
     14  C        -45.6760  -17.3520   77.6920 C.2    86  ASN86       0.2597
     15  O        -44.5240  -17.0250   77.8630 O.2    86  ASN86      -0.2718
     16  CB       -47.1500  -16.5950   75.8630 C.3    86  ASN86       0.1169
     17  CG       -47.5640  -16.6950   74.4030 C.2    86  ASN86       0.2627
     18  OD1      -47.3460  -17.7090   73.7380 O.2    86  ASN86      -0.2716
     19  ND2      -48.1750  -15.6280   73.9010 N.am   86  ASN86      -0.0877
     20  N        -46.5230  -17.4660   78.6930 N.am   87  PHE87      -0.1976
     21  CA       -46.1430  -17.1560   80.0580 C.3    87  PHE87       0.1639
     22  C        -45.0590  -18.0880   80.5470 C.2    87  PHE87       0.2290
     23  O        -44.0660  -17.6740   81.0930 O.2    87  PHE87      -0.2864
     24  CB       -47.3560  -17.2080   80.9790 C.3    87  PHE87       0.0560
     25  CG       -48.1050  -15.9140   81.0490 C.ar   87  PHE87      -0.0200
     26  CD1      -48.6940  -15.3770   79.9160 C.ar   87  PHE87      -0.0042
     27  CD2      -48.2150  -15.2320   82.2450 C.ar   87  PHE87      -0.0042
     28  CE1      -49.3800  -14.1870   79.9760 C.ar   87  PHE87      -0.0003
     29  CE2      -48.8990  -14.0460   82.3120 C.ar   87  PHE87      -0.0003
     30  CZ       -49.4840  -13.5210   81.1740 C.ar   87  PHE87      -0.0000
     31  N        -41.7290  -17.3480   78.8600 N.3    90  MET90      -0.1230
     32  CA       -41.1630  -16.1870   79.5230 C.3    90  MET90       0.1702
     33  C        -40.5240  -16.5620   80.8590 C.2    90  MET90       0.2592
     34  O        -39.4290  -16.1740   81.1600 O.2    90  MET90      -0.2718
     35  CB       -42.2460  -15.1160   79.7410 C.3    90  MET90       0.0401
     36  CG       -42.6310  -14.2980   78.5000 C.3    90  MET90       0.0596
     37  SD       -41.2300  -13.3510   77.8640 S.3    90  MET90      -0.1393
     38  CE       -42.0150  -12.2730   76.6660 C.3    90  MET90       0.0692
     39  N        -41.1920  -17.3950   81.6260 N.am   91  PHE91      -0.1976
     40  CA       -40.6270  -17.9670   82.8510 C.3    91  PHE91       0.1639
     41  C        -39.4120  -18.8910   82.5820 C.2    91  PHE91       0.2290
     42  O        -38.5200  -19.0300   83.3960 O.2    91  PHE91      -0.2864
     43  CB       -41.7090  -18.8080   83.4880 C.3    91  PHE91       0.0560
     44  CG       -41.2860  -19.5540   84.7170 C.ar   91  PHE91      -0.0200
     45  CD1      -41.1320  -18.9020   85.9250 C.ar   91  PHE91      -0.0042
     46  CD2      -41.1000  -20.9240   84.6740 C.ar   91  PHE91      -0.0042
     47  CE1      -40.7620  -19.5980   87.0620 C.ar   91  PHE91      -0.0003
     48  CE2      -40.7360  -21.6250   85.8010 C.ar   91  PHE91      -0.0003
     49  CZ       -40.5670  -20.9620   87.0000 C.ar   91  PHE91      -0.0000
     50  N        -37.2000  -18.0770   80.2720 N.3    93  GLU93      -0.1231
     51  CA       -36.1790  -17.0390   80.2340 C.3    93  GLU93       0.1699
     52  C        -35.7740  -16.6130   81.6320 C.2    93  GLU93       0.2592
     53  O        -34.6150  -16.4320   81.9350 O.2    93  GLU93      -0.2718
     54  CB       -36.7070  -15.8030   79.5050 C.3    93  GLU93       0.0402
     55  CG       -36.9520  -15.9950   78.0300 C.3    93  GLU93       0.1161
     56  CD       -35.6710  -16.0070   77.2380 C.2    93  GLU93       0.3649
     57  OE1      -34.6690  -15.4430   77.7280 O.co2  93  GLU93      -0.2457
     58  OE2      -35.6660  -16.5860   76.1310 O.co2  93  GLU93      -0.2457
     59  N        -36.7500  -16.4370   82.4950 N.am   94  GLY94      -0.1957
     60  CA       -36.4800  -16.0250   83.8260 C.3    94  GLY94       0.1869
     61  C        -35.6280  -16.9910   84.5710 C.2    94  GLY94       0.2309
     62  O        -34.7100  -16.5700   85.2480 O.2    94  GLY94      -0.2863
     63  N        -31.9880  -16.8530   83.2080 N.3    97  LEU97      -0.1245
     64  CA       -31.3880  -15.5810   83.5990 C.3    97  LEU97       0.1561
     65  C        -31.0240  -15.5340   85.0740 C.2    97  LEU97       0.2260
     66  O        -29.8820  -15.3030   85.4370 O.2    97  LEU97      -0.2867
     67  CB       -32.3240  -14.4210   83.2590 C.3    97  LEU97       0.0270
     68  CG       -31.7280  -13.0280   83.4600 C.3    97  LEU97       0.0019
     69  CD1      -30.5050  -12.8490   82.5740 C.3    97  LEU97       0.0001
     70  CD2      -32.7620  -11.9500   83.1810 C.3    97  LEU97       0.0001
     71  N        -46.8020  -18.1660   87.7260 N.3   160  VAL160     -0.1231
     72  CA       -45.5640  -18.1500   86.9770 C.3   160  VAL160      0.1692
     73  C        -44.9640  -16.7400   86.9030 C.2   160  VAL160      0.2591
     74  O        -43.8020  -16.5320   87.1810 O.2   160  VAL160     -0.2718
     75  CB       -45.7850  -18.8050   85.6200 C.3   160  VAL160      0.0266
     76  CG1      -44.6620  -18.5110   84.6970 C.3   160  VAL160      0.0020
     77  CG2      -45.9350  -20.2960   85.8260 C.3   160  VAL160      0.0020
     78  N        -45.8050  -15.7580   86.5990 N.am  161  LEU161     -0.1980
     79  CA       -45.4060  -14.3570   86.5870 C.3   161  LEU161      0.1596
     80  C        -44.8670  -13.9140   87.9260 C.2   161  LEU161      0.2287
     81  O        -43.8770  -13.2100   88.0030 O.2   161  LEU161     -0.2864
     82  CB       -46.5920  -13.4750   86.1790 C.3   161  LEU161      0.0297
     83  CG       -46.3670  -11.9620   86.1450 C.3   161  LEU161      0.0022
     84  CD1      -45.1560  -11.6220   85.2940 C.3   161  LEU161      0.0001
     85  CD2      -47.5980  -11.2390   85.6220 C.3   161  LEU161      0.0001
     86  N        -41.5490  -15.1380   88.7760 N.3   164  ASN164     -0.1225
     87  CA       -40.6490  -14.4620   87.8680 C.3   164  ASN164      0.1785
     88  C        -40.2450  -13.0920   88.4010 C.2   164  ASN164      0.2597
     89  O        -39.1110  -12.6840   88.2790 O.2   164  ASN164     -0.2718
     90  CB       -41.2810  -14.3390   86.4780 C.3   164  ASN164      0.1169
     91  CG       -40.2950  -14.6350   85.3600 C.2   164  ASN164      0.2627
     92  OD1      -39.3430  -15.3970   85.5380 O.2   164  ASN164     -0.2716
     93  ND2      -40.5220  -14.0320   84.1970 N.am  164  ASN164     -0.0877
     94  N        -41.2110  -12.3760   88.9840 N.am  165  PHE165     -0.1976
     95  CA       -40.9440  -11.1010   89.6590 C.3   165  PHE165      0.1639
     96  C        -39.9710  -11.2430   90.7900 C.2   165  PHE165      0.2290
     97  O        -39.0920  -10.4180   90.9540 O.2   165  PHE165     -0.2864
     98  CB       -42.2530  -10.5720   90.2670 C.3   165  PHE165      0.0560
     99  CG       -43.1310   -9.8360   89.2960 C.ar  165  PHE165     -0.0200
    100  CD1      -42.6060   -9.3010   88.1330 C.ar  165  PHE165     -0.0042
    101  CD2      -44.4820   -9.6660   89.5560 C.ar  165  PHE165     -0.0042
    102  CE1      -43.4130   -8.6210   87.2460 C.ar  165  PHE165     -0.0003
    103  CE2      -45.2950   -8.9830   88.6700 C.ar  165  PHE165     -0.0003
    104  CZ       -44.7580   -8.4590   87.5110 C.ar  165  PHE165     -0.0000
    105  N        -37.6730  -13.4980   90.9470 N.3   167  PHE167     -0.1227
    106  CA       -36.3880  -13.6210   90.2860 C.3   167  PHE167      0.1736
    107  C        -35.8500  -12.2800   89.8250 C.2   167  PHE167      0.2595
    108  O        -34.6930  -11.9910   89.9990 O.2   167  PHE167     -0.2718
    109  CB       -36.5290  -14.5260   89.0530 C.3   167  PHE167      0.0547
    110  CG       -36.7230  -15.9820   89.3770 C.ar  167  PHE167     -0.0202
    111  CD1      -36.3870  -16.4780   90.6240 C.ar  167  PHE167     -0.0042
    112  CD2      -37.2290  -16.8570   88.4270 C.ar  167  PHE167     -0.0042
    113  CE1      -36.5560  -17.8160   90.9250 C.ar  167  PHE167     -0.0003
    114  CE2      -37.4010  -18.1990   88.7220 C.ar  167  PHE167     -0.0003
    115  CZ       -37.0650  -18.6790   89.9750 C.ar  167  PHE167     -0.0000
    116  N        -36.6930  -11.4570   89.2350 N.am  168  LEU168     -0.1980
    117  CA       -36.2590  -10.1680   88.7560 C.3   168  LEU168      0.1596
    118  C        -35.7100   -9.3100   89.8690 C.2   168  LEU168      0.2287
    119  O        -34.6930   -8.6790   89.7060 O.2   168  LEU168     -0.2864
    120  CB       -37.4140   -9.4380   88.0650 C.3   168  LEU168      0.0297
    121  CG       -37.0780   -8.0580   87.4990 C.3   168  LEU168      0.0022
    122  CD1      -35.9310   -8.1640   86.5070 C.3   168  LEU168      0.0001
    123  CD2      -38.2970   -7.4130   86.8530 C.3   168  LEU168      0.0001
    124  N        -32.4140  -10.7690   90.9640 N.3   171  ILE171     -0.1245
    125  CA       -31.4680  -10.3970   89.9200 C.3   171  ILE171      0.1561
    126  C        -30.8690   -9.0150   90.1530 C.2   171  ILE171      0.2260
    127  O        -29.6700   -8.8730   90.2880 O.2   171  ILE171     -0.2867
    128  CB       -32.0660  -10.5110   88.5100 C.3   171  ILE171      0.0252
    129  CG1      -32.3080  -11.9790   88.1590 C.3   171  ILE171      0.0019
    130  CG2      -31.1070   -9.9350   87.5040 C.3   171  ILE171      0.0019
    131  CD1      -33.2370  -12.1810   86.9920 C.3   171  ILE171      0.0001
    132  N        -36.2180   -6.5480   80.0010 N.3   197  THR197     -0.1218
    133  CA       -37.3630   -7.0330   80.7710 C.3   197  THR197      0.1862
    134  C        -38.1160   -5.9040   81.4530 C.2   197  THR197      0.2287
    135  O        -39.3340   -5.8550   81.4540 O.2   197  THR197     -0.2866
    136  CB       -36.8980   -8.0620   81.8090 C.3   197  THR197      0.1770
    137  OG1      -36.4020   -9.2240   81.1290 O.3   197  THR197     -0.2211
    138  CG2      -38.0350   -8.4570   82.7160 C.3   197  THR197      0.0375
    139  N        -40.1070   -4.1810   78.6370 N.3   200  LEU200     -0.1231
    140  CA       -41.1490   -5.0670   78.1000 C.3   200  LEU200      0.1693
    141  C        -42.3310   -5.3100   79.0240 C.2   200  LEU200      0.2591
    142  O        -43.4640   -5.4820   78.5970 O.2   200  LEU200     -0.2718
    143  CB       -40.5320   -6.4060   77.6790 C.3   200  LEU200      0.0284
    144  CG       -41.4420   -7.3490   76.8910 C.3   200  LEU200      0.0019
    145  CD1      -41.9640   -6.6770   75.6270 C.3   200  LEU200      0.0001
    146  CD2      -40.7230   -8.6430   76.5480 C.3   200  LEU200      0.0001
    147  N        -42.0250   -5.4660   80.2960 N.am  201  LEU201     -0.1980
    148  CA       -43.0420   -5.7880   81.2650 C.3   201  LEU201      0.1596
    149  C        -44.1660   -4.7600   81.3090 C.2   201  LEU201      0.2287
    150  O        -45.3150   -5.1380   81.2420 O.2   201  LEU201     -0.2864
    151  CB       -42.4150   -6.0010   82.6530 C.3   201  LEU201      0.0297
    152  CG       -43.3600   -6.2490   83.8290 C.3   201  LEU201      0.0022
    153  CD1      -43.9950   -7.6290   83.7370 C.3   201  LEU201      0.0001
    154  CD2      -42.6320   -6.0680   85.1510 C.3   201  LEU201      0.0001
    155  N        -46.4920   -5.1800   77.7070 N.3   204  LEU204     -0.1231
    156  CA       -47.3630   -6.3250   77.8410 C.3   204  LEU204      0.1693
    157  C        -48.3790   -6.1470   78.9740 C.2   204  LEU204      0.2592
    158  O        -49.5590   -6.4200   78.8330 O.2   204  LEU204     -0.2718
    159  CB       -46.5300   -7.5950   78.0460 C.3   204  LEU204      0.0284
    160  CG       -45.3770   -7.7740   77.0510 C.3   204  LEU204      0.0019
    161  CD1      -44.6980   -9.1240   77.2110 C.3   204  LEU204      0.0001
    162  CD2      -45.8520   -7.5950   75.6200 C.3   204  LEU204      0.0001
    163  N        -47.8640   -5.7450   80.1270 N.am  205  GLY205     -0.1957
    164  CA       -48.5920   -5.6380   81.3560 C.3   205  GLY205      0.1869
    165  C        -49.7420   -4.6970   81.3670 C.2   205  GLY205      0.2309
    166  O        -50.7760   -5.0370   81.9320 O.2   205  GLY205     -0.2863
    167  N        -52.7890   -6.5030   79.8690 N.3   208  TYR208     -0.1241
    168  CA       -53.4570   -7.3770   80.8160 C.3   208  TYR208      0.1605
    169  C        -54.3320   -6.5970   81.8130 C.2   208  TYR208      0.2264
    170  O        -55.4420   -7.0020   82.1460 O.2   208  TYR208     -0.2867
    171  CB       -52.4640   -8.3270   81.4890 C.3   208  TYR208      0.0534
    172  CG       -51.9090   -9.3200   80.4930 C.ar  208  TYR208     -0.0201
    173  CD1      -52.5520  -10.5280   80.2560 C.ar  208  TYR208     -0.0009
    174  CD2      -50.7770   -9.0260   79.7440 C.ar  208  TYR208     -0.0009
    175  CE1      -52.0660  -11.4280   79.3210 C.ar  208  TYR208      0.0417
    176  CE2      -50.2860   -9.9180   78.8050 C.ar  208  TYR208      0.0417
    177  CZ       -50.9370  -11.1190   78.6000 C.ar  208  TYR208      0.1957
    178  OH       -50.4540  -12.0080   77.6710 O.3   208  TYR208     -0.2866
    179  N        -48.2230   -7.1000   70.5330 N.3   236  GLN236     -0.1245
    180  CA       -47.4810   -7.8760   71.5030 C.3   236  GLN236      0.1566
    181  C        -46.3650   -8.6400   70.8510 C.2   236  GLN236      0.2260
    182  O        -45.2900   -8.7350   71.3820 O.2   236  GLN236     -0.2867
    183  CB       -48.3950   -8.8330   72.2670 C.3   236  GLN236      0.0367
    184  CG       -48.8980   -8.2960   73.5930 C.3   236  GLN236      0.0905
    185  CD       -49.0980   -9.4000   74.6070 C.2   236  GLN236      0.2608
    186  OE1      -48.4940  -10.4690   74.4960 O.2   236  GLN236     -0.2717
    187  NE2      -49.9490   -9.1560   75.5970 N.am  236  GLN236     -0.0878
    188  N        -37.4720   -7.6120   71.5830 N.3   243  PHE243     -0.1241
    189  CA       -36.8160   -8.0160   72.8130 C.3   243  PHE243      0.1605
    190  C        -35.8430   -9.2210   72.6310 C.2   243  PHE243      0.2264
    191  O        -34.7060   -9.2090   73.1030 O.2   243  PHE243     -0.2867
    192  CB       -37.9530   -8.2830   73.8190 C.3   243  PHE243      0.0534
    193  CG       -37.6060   -9.1910   74.9600 C.ar  243  PHE243     -0.0203
    194  CD1      -37.1240   -8.6770   76.1510 C.ar  243  PHE243     -0.0042
    195  CD2      -37.8580  -10.5500   74.8790 C.ar  243  PHE243     -0.0042
    196  CE1      -36.8440   -9.5100   77.2180 C.ar  243  PHE243     -0.0003
    197  CE2      -37.5780  -11.3880   75.9410 C.ar  243  PHE243     -0.0003
    198  CZ       -37.0710  -10.8690   77.1120 C.ar  243  PHE243     -0.0000
@<TRIPOS>BOND
     1     4     3    2
     2     3     2    1
     3     2     5    1
     4     2     1    1
     5   179   180    1
     6     5     6    1
     7   181   182    2
     8   181   180    1
     9   180   183    1
    10   188   189    1
    11     6     8   ar
    12     6     7   ar
    13   183   184    1
    14     8    10   ar
    15   190   189    1
    16   190   191    2
    17   189   192    1
    18     7     9   ar
    19   184   185    1
    20    10    11   ar
    21    18    17    2
    22   192   193    1
    23    19    17   am
    24     9    11   ar
    25    17    16    1
    26   186   185    2
    27   185   187   am
    28   195   193   ar
    29   195   197   ar
    30   193   194   ar
    31   162   160    1
    32   145   144    1
    33    16    13    1
    34   197   198   ar
    35    58    56   ar
    36   194   196   ar
    37    12    13    1
    38    13    14    1
    39   146   144    1
    40    38    37    1
    41   144   143    1
    42   160   161    1
    43   160   159    1
    44   198   196   ar
    45    56    57   ar
    46    56    55    1
    47   178   177    1
    48   143   140    1
    49    14    15    2
    50    14    20   am
    51   155   156    1
    52   156   159    1
    53   156   157    1
    54    37    36    1
    55    55    54    1
    56   140   139    1
    57   140   141    1
    58    36    35    1
    59   142   141    2
    60   177   176   ar
    61   177   175   ar
    62    20    21    1
    63   176   174   ar
    64   158   157    2
    65    31    32    1
    66   157   163   am
    67   141   147   am
    68   175   173   ar
    69    54    51    1
    70    32    35    1
    71    32    33    1
    72   174   172   ar
    73   167   168    1
    74    26    28   ar
    75    26    25   ar
    76    28    30   ar
    77   132   133    1
    78    21    22    1
    79    21    24    1
    80   163   164    1
    81    51    50    1
    82    51    52    1
    83   173   172   ar
    84   147   148    1
    85   172   171    1
    86    22    23    2
    87   133   134    1
    88   133   136    1
    89   168   171    1
    90   168   169    1
    91    33    34    2
    92    33    39   am
    93    24    25    1
    94    25    27   ar
    95   137   136    1
    96    30    29   ar
    97   150   149    2
    98   148   149    1
    99   148   151    1
   100   164   165    1
   101   165   166    2
   102   134   135    2
   103    39    40    1
   104    52    53    2
   105    52    59   am
   106   136   138    1
   107   169   170    2
   108    27    29   ar
   109    59    60    1
   110    69    68    1
   111    41    40    1
   112    41    42    2
   113   151   152    1
   114    40    43    1
   115    70    68    1
   116    63    64    1
   117    67    68    1
   118    67    64    1
   119    43    44    1
   120    64    65    1
   121   153   152    1
   122    60    61    1
   123   152   154    1
   124    93    91   am
   125    61    62    2
   126    46    44   ar
   127    46    48   ar
   128    76    75    1
   129    44    45   ar
   130    65    66    2
   131    84    83    1
   132    91    92    2
   133    91    90    1
   134    75    77    1
   135    75    72    1
   136    85    83    1
   137    48    49   ar
   138    45    47   ar
   139    83    82    1
   140    82    79    1
   141    90    87    1
   142   122   121    1
   143    79    78    1
   144    79    80    1
   145    78    73   am
   146   123   121    1
   147    73    72    1
   148    73    74    2
   149    72    71    1
   150   131   129    1
   151    49    47   ar
   152   102   104   ar
   153   102   100   ar
   154   121   120    1
   155   130   128    1
   156   104   103   ar
   157    87    88    1
   158    87    86    1
   159    80    81    2
   160   120   117    1
   161   100    99   ar
   162   129   128    1
   163    89    88    2
   164    88    94   am
   165   112   114   ar
   166   112   110   ar
   167   128   125    1
   168   103   101   ar
   169   114   115   ar
   170   117   116    1
   171   117   118    1
   172    94    95    1
   173   109   110    1
   174   109   106    1
   175   116   107   am
   176    99   101   ar
   177    99    98    1
   178   110   111   ar
   179    95    98    1
   180    95    96    1
   181   119   118    2
   182   107   108    2
   183   107   106    1
   184   125   126    1
   185   125   124    1
   186   115   113   ar
   187   126   127    2
   188   106   105    1
   189   111   113   ar
   190    96    97    2
