@<TRIPOS>MOLECULE
tmp/4k5yB01.pdb
 125 119 0 0 0
SMALL
GASTEIGER

@<TRIPOS>ATOM
      1  N        -17.9500   10.3650   26.8650 N.3    70  ASN70      -0.1240
      2  CA       -19.2900    9.9470   26.7090 C.3    70  ASN70       0.1653
      3  C        -19.8150    9.9440   28.0810 C.2    70  ASN70       0.2266
      4  O        -19.1670    9.4350   28.9710 O.2    70  ASN70      -0.2867
      5  CB       -19.1970    8.5070   26.2110 C.3    70  ASN70       0.1155
      6  CG       -20.5140    7.9210   25.8150 C.2    70  ASN70       0.2627
      7  OD1      -21.3230    8.5700   25.1680 O.2    70  ASN70      -0.2716
      8  ND2      -20.7340    6.6640   26.1940 N.am   70  ASN70      -0.0877
      9  N        -23.2690   10.7330   30.8550 N.3    72  GLY72      -0.1225
     10  CA       -24.6720   10.6320   30.9930 C.3    72  GLY72       0.1811
     11  C        -25.4100   11.7870   30.4790 C.2    72  GLY72       0.2280
     12  O        -26.4230   11.6060   29.8550 O.2    72  GLY72      -0.2866
     13  N        -25.6380   11.5170   26.6240 N.3    75  ARG75      -0.1231
     14  CA       -26.4590   10.4040   26.2300 C.3    75  ARG75       0.1694
     15  C        -27.9130   10.6190   26.5100 C.2    75  ARG75       0.2591
     16  O        -28.7590   10.3040   25.7060 O.2    75  ARG75      -0.2718
     17  CB       -25.9520    9.1020   26.8630 C.3    75  ARG75       0.0321
     18  CG       -24.6990    8.5680   26.1810 C.3    75  ARG75       0.0489
     19  CD       -24.1210    7.3630   26.8960 C.3    75  ARG75       0.2205
     20  NE       -23.6290    7.6800   28.2320 N.pl3  75  ARG75      -0.0865
     21  CZ       -22.9100    6.8430   28.9710 C.cat  75  ARG75       0.5346
     22  NH1      -22.5970    5.6430   28.4980 N.pl3  75  ARG75       0.1354
     23  NH2      -22.5010    7.2080   30.1780 N.pl3  75  ARG75       0.1354
     24  N        -28.2030   11.2130   27.6520 N.am   76  LEU76      -0.1980
     25  CA       -29.5480   11.5790   28.0220 C.3    76  LEU76       0.1596
     26  C        -30.1290   12.5300   27.0010 C.2    76  LEU76       0.2287
     27  O        -31.2360   12.3880   26.5650 O.2    76  LEU76      -0.2864
     28  CB       -29.6000   12.2170   29.4120 C.3    76  LEU76       0.0297
     29  CG       -31.0290   12.3020   29.9660 C.3    76  LEU76       0.0022
     30  CD1      -31.3480   11.0670   30.7920 C.3    76  LEU76       0.0001
     31  CD2      -31.2830   13.5760   30.7650 C.3    76  LEU76       0.0001
     32  N        -30.7840   10.7540   23.7200 N.3    79  ALA79      -0.1231
     33  CA       -31.9620    9.9080   23.9130 C.3    79  ALA79       0.1694
     34  C        -33.2660   10.7090   23.8340 C.2    79  ALA79       0.2591
     35  O        -34.1540   10.3970   23.0750 O.2    79  ALA79      -0.2718
     36  CB       -31.8700    9.1470   25.2280 C.3    79  ALA79       0.0304
     37  N        -33.3070   11.8130   24.5720 N.am   80  ALA80      -0.1980
     38  CA       -34.4180   12.7520   24.5790 C.3    80  ALA80       0.1597
     39  C        -34.6860   13.3430   23.2120 C.2    80  ALA80       0.2287
     40  O        -35.7980   13.4290   22.7730 O.2    80  ALA80      -0.2864
     41  CB       -34.1640   13.8600   25.5870 C.3    80  ALA80       0.0319
     42  N        -36.1150   10.6490   21.0770 N.3    83  TYR83      -0.1227
     43  CA       -37.4820   10.4020   21.5410 C.3    83  TYR83       0.1736
     44  C        -38.4600   11.3400   20.8940 C.2    83  TYR83       0.2595
     45  O        -39.4340   10.9220   20.3200 O.2    83  TYR83      -0.2718
     46  CB       -37.5480   10.5480   23.0640 C.3    83  TYR83       0.0548
     47  CG       -38.9470   10.4670   23.6290 C.ar   83  TYR83      -0.0200
     48  CD1      -39.5630    9.2380   23.8310 C.ar   83  TYR83      -0.0009
     49  CD2      -39.6570   11.6210   23.9580 C.ar   83  TYR83      -0.0009
     50  CE1      -40.8430    9.1580   24.3380 C.ar   83  TYR83       0.0417
     51  CE2      -40.9360   11.5470   24.4670 C.ar   83  TYR83       0.0417
     52  CZ       -41.5210   10.3130   24.6530 C.ar   83  TYR83       0.1957
     53  OH       -42.7910   10.2460   25.1620 O.3    83  TYR83      -0.2866
     54  N        -38.1070   12.5980   20.8730 N.am   84  PHE84      -0.1976
     55  CA       -38.8990   13.6280   20.2540 C.3    84  PHE84       0.1639
     56  C        -39.1330   13.3820   18.7710 C.2    84  PHE84       0.2290
     57  O        -40.2170   13.5410   18.2890 O.2    84  PHE84      -0.2864
     58  CB       -38.3560   15.0170   20.6000 C.3    84  PHE84       0.0560
     59  CG       -38.5610   15.3770   22.0460 C.ar   84  PHE84      -0.0200
     60  CD1      -39.7790   15.1200   22.6550 C.ar   84  PHE84      -0.0042
     61  CD2      -37.5440   15.9310   22.8030 C.ar   84  PHE84      -0.0042
     62  CE1      -39.9880   15.4260   23.9770 C.ar   84  PHE84      -0.0003
     63  CE2      -37.7490   16.2410   24.1370 C.ar   84  PHE84      -0.0003
     64  CZ       -38.9730   15.9860   24.7220 C.ar   84  PHE84      -0.0000
     65  N        -42.0640    5.7850   23.9930 N.3   283  PHE283     -0.1241
     66  CA       -41.3510    5.5710   25.2120 C.3   283  PHE283      0.1605
     67  C        -40.6700    4.2060   25.3410 C.2   283  PHE283      0.2264
     68  O        -39.4680    4.1690   25.4780 O.2   283  PHE283     -0.2867
     69  CB       -42.1390    5.9560   26.4780 C.3   283  PHE283      0.0534
     70  CG       -41.2560    6.1220   27.6790 C.ar  283  PHE283     -0.0203
     71  CD1      -40.4240    7.2220   27.7730 C.ar  283  PHE283     -0.0042
     72  CD2      -41.2080    5.1660   28.6790 C.ar  283  PHE283     -0.0042
     73  CE1      -39.5780    7.3820   28.8480 C.ar  283  PHE283     -0.0003
     74  CE2      -40.3600    5.3250   29.7660 C.ar  283  PHE283     -0.0003
     75  CZ       -39.5440    6.4330   29.8460 C.ar  283  PHE283     -0.0000
     76  N        -37.7020    3.9660   22.7400 N.3   286  ILE286     -0.1231
     77  CA       -36.4840    4.6110   23.2120 C.3   286  ILE286      0.1692
     78  C        -35.7750    3.8420   24.3080 C.2   286  ILE286      0.2591
     79  O        -34.5920    3.6760   24.2820 O.2   286  ILE286     -0.2718
     80  CB       -36.7000    6.1030   23.5930 C.3   286  ILE286      0.0266
     81  CG1      -36.6850    6.9680   22.3310 C.3   286  ILE286      0.0019
     82  CG2      -35.6050    6.5940   24.5210 C.3   286  ILE286      0.0020
     83  CD1      -35.3340    7.0020   21.6320 C.3   286  ILE286      0.0001
     84  N        -36.5050    3.3340   25.2670 N.am  287  VAL287     -0.1980
     85  CA       -35.9210    2.5540   26.3380 C.3   287  VAL287      0.1595
     86  C        -35.1990    1.3340   25.7860 C.2   287  VAL287      0.2287
     87  O        -34.0640    1.1010   26.0950 O.2   287  VAL287     -0.2864
     88  CB       -36.9740    2.1560   27.4080 C.3   287  VAL287      0.0276
     89  CG1      -36.3740    1.2230   28.4460 C.3   287  VAL287      0.0022
     90  CG2      -37.5210    3.3970   28.0890 C.3   287  VAL287      0.0022
     91  N        -32.0210    2.5790   23.9510 N.3   290  ALA290     -0.1245
     92  CA       -31.0370    2.9660   24.9020 C.3   290  ALA290      0.1562
     93  C        -30.3700    1.7710   25.4870 C.2   290  ALA290      0.2260
     94  O        -29.1820    1.7430   25.6320 O.2   290  ALA290     -0.2867
     95  CB       -31.6700    3.8080   25.9890 C.3   290  ALA290      0.0290
     96  N        -26.5370    0.7610   25.1560 N.3   294  LEU294     -0.1245
     97  CA       -25.7890    0.4610   26.3700 C.3   294  LEU294      0.1561
     98  C        -24.9810   -0.8310   26.2830 C.2   294  LEU294      0.2260
     99  O        -23.7970   -0.8380   26.5100 O.2   294  LEU294     -0.2867
    100  CB       -26.7700    0.3640   27.5430 C.3   294  LEU294      0.0270
    101  CG       -26.3290    0.8740   28.9100 C.3   294  LEU294      0.0019
    102  CD1      -25.8190    2.2850   28.7710 C.3   294  LEU294      0.0001
    103  CD2      -27.4840    0.8370   29.8990 C.3   294  LEU294      0.0001
    104  N        -21.7720    1.7700   22.2600 N.3   298  ASN298     -0.1240
    105  CA       -21.6940    2.5990   23.4650 C.3   298  ASN298      0.1653
    106  C        -20.9030    3.9100   23.3610 C.2   298  ASN298      0.2266
    107  O        -20.4420    4.4290   24.3780 O.2   298  ASN298     -0.2867
    108  CB       -21.2140    1.7730   24.6580 C.3   298  ASN298      0.1155
    109  CG       -21.9160    2.1590   25.9460 C.2   298  ASN298      0.2627
    110  OD1      -22.9480    2.8240   25.9230 O.2   298  ASN298     -0.2716
    111  ND2      -21.3610    1.7380   27.0760 N.am  298  ASN298     -0.0877
    112  N        -23.9450    8.2100   21.7980 N.3   302  TRP302     -0.1241
    113  CA       -25.0060    7.4800   21.1640 C.3   302  TRP302      0.1605
    114  C        -25.3940    8.0780   19.8090 C.2   302  TRP302      0.2264
    115  O        -26.4640    7.8330   19.2720 O.2   302  TRP302     -0.2867
    116  CB       -26.2500    7.3010   22.0520 C.3   302  TRP302      0.0550
    117  CG       -26.0000    6.4510   23.2570 C.ar  302  TRP302      0.0003
    118  CD1      -24.8620    5.7550   23.5400 C.ar  302  TRP302      0.0946
    119  CD2      -26.9010    6.2070   24.3490 C.ar  302  TRP302      0.0152
    120  NE1      -24.9960    5.0910   24.7360 N.ar  302  TRP302     -0.2442
    121  CE2      -26.2410    5.3490   25.2520 C.ar  302  TRP302      0.0810
    122  CE3      -28.2010    6.6280   24.6510 C.ar  302  TRP302      0.0012
    123  CZ2      -26.8330    4.9050   26.4380 C.ar  302  TRP302      0.0191
    124  CZ3      -28.7880    6.1860   25.8270 C.ar  302  TRP302      0.0001
    125  CH2      -28.1040    5.3340   26.7060 C.ar  302  TRP302      0.0015
@<TRIPOS>BOND
     1    57    56    2
     2    56    55    1
     3   115   114    2
     4   114   113    1
     5    55    58    1
     6    55    54    1
     7    45    44    2
     8    58    59    1
     9    54    44   am
    10    44    43    1
    11    42    43    1
    12   113   112    1
    13   113   116    1
    14    43    46    1
    15    83    81    1
    16    59    60   ar
    17    59    61   ar
    18   116   117    1
    19   104   105    1
    20    81    80    1
    21    60    62   ar
    22    76    77    1
    23    40    39    2
    24    61    63   ar
    25    46    47    1
    26    35    34    2
    27    39    38    1
    28    77    80    1
    29    77    78    1
    30   117   118   ar
    31   117   119   ar
    32   106   105    1
    33   106   107    2
    34   105   108    1
    35   118   120   ar
    36    80    82    1
    37    47    48   ar
    38    47    49   ar
    39    32    33    1
    40    48    50   ar
    41    34    33    1
    42    34    37   am
    43    33    36    1
    44    91    92    1
    45    49    51   ar
    46    62    64   ar
    47    65    66    1
    48    63    64   ar
    49    79    78    2
    50    78    84   am
    51    50    52   ar
    52   119   122   ar
    53   119   121   ar
    54    51    52   ar
    55    37    38    1
    56    38    41    1
    57   122   124   ar
    58    52    53    1
    59   108   109    1
    60   120   121   ar
    61    92    93    1
    62    92    95    1
    63    96    97    1
    64     7     6    2
    65    66    67    1
    66    66    69    1
    67   121   123   ar
    68    84    85    1
    69    67    68    2
    70    93    94    2
    71    16    15    2
    72    86    87    2
    73    86    85    1
    74     6     8   am
    75     6     5    1
    76   124   125   ar
    77   110   109    2
    78   109   111   am
    79    18    17    1
    80    18    19    1
    81     5     2    1
    82    14    15    1
    83    14    13    1
    84    14    17    1
    85    98    97    1
    86    98    99    2
    87    85    88    1
    88    97   100    1
    89   123   125   ar
    90    69    70    1
    91    15    24   am
    92    27    26    2
    93     2     1    1
    94     2     3    1
    95    19    20    1
    96    26    25    1
    97    88    90    1
    98    88    89    1
    99   100   101    1
   100    24    25    1
   101    70    71   ar
   102    70    72   ar
   103    71    73   ar
   104    25    28    1
   105     3     4    2
   106    20    21    2
   107    22    21    1
   108    72    74   ar
   109   102   101    1
   110    73    75   ar
   111   101   103    1
   112    21    23    1
   113    28    29    1
   114    74    75   ar
   115    12    11    2
   116    29    31    1
   117    29    30    1
   118    11    10    1
   119     9    10    1
