@<TRIPOS>MOLECULE
tmp/4k5yB06.pdb
 172 166 0 0 0
SMALL
GASTEIGER

@<TRIPOS>ATOM
      1  N        -38.8780   18.9010   20.2670 N.3    51  ARG51      -0.1245
      2  CA       -37.7570   18.5970   19.3820 C.3    51  ARG51       0.1563
      3  C        -36.8370   19.7910   19.0240 C.2    51  ARG51       0.2260
      4  O        -35.6370   19.6960   19.1430 O.2    51  ARG51      -0.2867
      5  CB       -38.1980   17.8530   18.1190 C.3    51  ARG51       0.0307
      6  CG       -37.0120   17.4810   17.2480 C.3    51  ARG51       0.0489
      7  CD       -37.3810   16.7080   15.9910 C.3    51  ARG51       0.2205
      8  NE       -36.2060   16.4760   15.1500 N.pl3  51  ARG51      -0.0865
      9  CZ       -35.2680   15.5710   15.4110 C.cat  51  ARG51       0.5346
     10  NH1      -35.3690   14.8110   16.4890 N.pl3  51  ARG51       0.1354
     11  NH2      -34.2280   15.4290   14.6010 N.pl3  51  ARG51       0.1354
     12  N        -33.6400   13.7100   22.5110 N.3    81  TYR81      -0.1227
     13  CA       -33.7510   14.2490   21.1720 C.3    81  TYR81       0.1736
     14  C        -34.3990   13.2650   20.2250 C.2    81  TYR81       0.2595
     15  O        -35.3530   13.5620   19.5630 O.2    81  TYR81      -0.2718
     16  CB       -32.3580   14.6030   20.6620 C.3    81  TYR81       0.0548
     17  CG       -32.3470   15.3190   19.3380 C.ar   81  TYR81      -0.0200
     18  CD1      -32.9990   16.5350   19.1820 C.ar   81  TYR81      -0.0009
     19  CD2      -31.6680   14.7930   18.2500 C.ar   81  TYR81      -0.0009
     20  CE1      -32.9840   17.1990   17.9750 C.ar   81  TYR81       0.0417
     21  CE2      -31.6480   15.4510   17.0420 C.ar   81  TYR81       0.0417
     22  CZ       -32.3070   16.6530   16.9090 C.ar   81  TYR81       0.1957
     23  OH       -32.2910   17.3150   15.7050 O.3    81  TYR81      -0.2866
     24  N        -33.8620   12.0730   20.2040 N.am   82  ASN82      -0.1974
     25  CA       -34.3480   10.9740   19.3960 C.3    82  ASN82       0.1688
     26  C        -35.7520   10.5360   19.7930 C.2    82  ASN82       0.2292
     27  O        -36.5040   10.1320   18.9490 O.2    82  ASN82      -0.2864
     28  CB       -33.3820    9.7840   19.4510 C.3    82  ASN82       0.1181
     29  CG       -32.1530    9.9850   18.5820 C.2    82  ASN82       0.2629
     30  OD1      -32.1740   10.7460   17.6120 O.2    82  ASN82      -0.2716
     31  ND2      -31.0750    9.2930   18.9210 N.am   82  ASN82      -0.0877
     32  N        -38.1280   12.9140   18.0590 N.3    85  HIS85      -0.1241
     33  CA       -38.2440   12.5900   16.6450 C.3    85  HIS85       0.1621
     34  C        -39.2960   11.5040   16.3960 C.2    85  HIS85       0.2264
     35  O        -40.1500   11.6110   15.5380 O.2    85  HIS85      -0.2867
     36  CB       -36.8760   12.0770   16.1670 C.3    85  HIS85       0.0745
     37  CG       -36.6370   12.2190   14.6960 C.ar   85  HIS85       0.0817
     38  ND1      -35.6860   11.4790   14.0280 N.ar   85  HIS85      -0.2268
     39  CD2      -37.2070   13.0220   13.7700 C.ar   85  HIS85       0.1154
     40  CE1      -35.6880   11.8130   12.7510 C.ar   85  HIS85       0.1986
     41  NE2      -36.6020   12.7480   12.5670 N.ar   85  HIS85      -0.2212
     42  N        -43.0890   11.7250   14.3660 N.3    89  PHE89      -0.1241
     43  CA       -43.6730   10.7600   13.4470 C.3    89  PHE89       0.1605
     44  C        -44.9740   10.1820   13.9340 C.2    89  PHE89       0.2264
     45  O        -45.8910   10.0310   13.1860 O.2    89  PHE89      -0.2867
     46  CB       -42.6770    9.6630   13.0890 C.3    89  PHE89       0.0534
     47  CG       -41.7970   10.0170   11.9310 C.ar   89  PHE89      -0.0203
     48  CD1      -40.9390   11.1080   11.9990 C.ar   89  PHE89      -0.0042
     49  CD2      -41.8300    9.2620   10.7710 C.ar   89  PHE89      -0.0042
     50  CE1      -40.1230   11.4320   10.9290 C.ar   89  PHE89      -0.0003
     51  CE2      -41.0220    9.5790    9.7000 C.ar   89  PHE89      -0.0003
     52  CZ       -40.1650   10.6670    9.7780 C.ar   89  PHE89      -0.0000
     53  N        -22.0810    7.8320   13.8480 N.3   305  LYS305     -0.1245
     54  CA       -22.1980    7.0720   12.6020 C.3   305  LYS305      0.1561
     55  C        -21.1860    5.9390   12.5860 C.2   305  LYS305      0.2260
     56  O        -20.0700    6.0850   13.0850 O.2   305  LYS305     -0.2867
     57  CB       -21.9600    7.9690   11.3860 C.3   305  LYS305      0.0271
     58  CG       -23.0850    8.9390   11.0860 C.3   305  LYS305      0.0035
     59  CD       -22.8500    9.6540    9.7620 C.3   305  LYS305      0.0206
     60  CE       -24.0460   10.5080    9.3550 C.3   305  LYS305      0.1093
     61  NZ       -23.8420   11.1620    8.0280 N.3   305  LYS305     -0.1314
     62  N        -31.8730    1.3940   14.2290 N.3   310  TYR310     -0.1241
     63  CA       -32.9970    0.8020   13.5540 C.3   310  TYR310      0.1605
     64  C        -34.0810    0.5470   14.5500 C.2   310  TYR310      0.2264
     65  O        -35.2510    0.5610   14.2300 O.2   310  TYR310     -0.2867
     66  CB       -32.5820   -0.4680   12.8120 C.3   310  TYR310      0.0534
     67  CG       -31.9540   -0.1990   11.4570 C.ar  310  TYR310     -0.0201
     68  CD1      -31.3030    1.0020   11.1880 C.ar  310  TYR310     -0.0009
     69  CD2      -32.0310   -1.1380   10.4390 C.ar  310  TYR310     -0.0009
     70  CE1      -30.7320    1.2510    9.9480 C.ar  310  TYR310      0.0417
     71  CE2      -31.4670   -0.8950    9.1930 C.ar  310  TYR310      0.0417
     72  CZ       -30.8150    0.3050    8.9540 C.ar  310  TYR310      0.1957
     73  OH       -30.2410    0.5750    7.7270 O.3   310  TYR310     -0.2866
     74  N        -35.2920    2.5270   16.7680 N.3   312  TYR312     -0.1227
     75  CA       -36.2750    3.6160   16.7350 C.3   312  TYR312      0.1736
     76  C        -36.6880    4.0730   15.3240 C.2   312  TYR312      0.2595
     77  O        -37.8570    4.2690   15.0500 O.2   312  TYR312     -0.2718
     78  CB       -35.8660    4.7880   17.6450 C.3   312  TYR312      0.0548
     79  CG       -34.8530    5.7580   17.0760 C.ar  312  TYR312     -0.0200
     80  CD1      -33.4940    5.5960   17.3120 C.ar  312  TYR312     -0.0009
     81  CD2      -35.2630    6.8620   16.3400 C.ar  312  TYR312     -0.0009
     82  CE1      -32.5700    6.4980   16.8100 C.ar  312  TYR312      0.0417
     83  CE2      -34.3500    7.7630   15.8330 C.ar  312  TYR312      0.0417
     84  CZ       -33.0060    7.5790   16.0710 C.ar  312  TYR312      0.1957
     85  OH       -32.1060    8.4860   15.5600 O.3   312  TYR312     -0.2866
     86  N        -35.7160    4.1600   14.4200 N.am  313  GLN313     -0.1965
     87  CA       -35.9080    4.4880   13.0110 C.3   313  GLN313      0.1733
     88  C        -36.8840    3.5460   12.3120 C.2   313  GLN313      0.2616
     89  O        -37.7450    3.9550   11.5580 O.2   313  GLN313     -0.2715
     90  CB       -34.5650    4.5480   12.2780 C.3   313  GLN313      0.0408
     91  CG       -33.7040    5.7300   12.7040 C.3   313  GLN313      0.0908
     92  CD       -32.2980    5.6760   12.1420 C.2   313  GLN313      0.2608
     93  OE1      -31.9350    4.7440   11.4260 O.2   313  GLN313     -0.2717
     94  NE2      -31.4980    6.6820   12.4670 N.am  313  GLN313     -0.0878
     95  N        -36.7590    2.2650   12.6180 N.am  314  GLY314     -0.1955
     96  CA       -37.6310    1.2320   12.1540 C.3   314  GLY314      0.1869
     97  C        -39.0690    1.5390   12.3910 C.2   314  GLY314      0.2309
     98  O        -39.7550    1.6730   11.4080 O.2   314  GLY314     -0.2863
     99  N        -40.4510    4.3200   13.0790 N.3   316  MET316     -0.1230
    100  CA       -40.7820    5.5460   12.4210 C.3   316  MET316      0.1702
    101  C        -41.1420    5.3100   10.9610 C.2   316  MET316      0.2592
    102  O        -42.1310    5.7940   10.4570 O.2   316  MET316     -0.2718
    103  CB       -39.6350    6.5610   12.5600 C.3   316  MET316      0.0401
    104  CG       -39.3350    6.9650   14.0050 C.3   316  MET316      0.0596
    105  SD       -37.8520    7.9760   14.2110 S.3   316  MET316     -0.1393
    106  CE       -38.1940    9.3440   13.1130 C.3   316  MET316      0.0692
    107  N        -40.3450    4.4930   10.3030 N.am  317  ALA317     -0.1980
    108  CA       -40.6020    4.1050    8.9320 C.3   317  ALA317      0.1597
    109  C        -41.9050    3.3350    8.7980 C.2   317  ALA317      0.2287
    110  O        -42.7020    3.5830    7.9280 O.2   317  ALA317     -0.2864
    111  CB       -39.4410    3.2750    8.4020 C.3   317  ALA317      0.0319
    112  N        -44.8240    5.6190    9.0190 N.3   320  LEU320     -0.1231
    113  CA       -44.9450    6.3780    7.7770 C.3   320  LEU320      0.1693
    114  C        -45.6680    5.5940    6.6940 C.2   320  LEU320      0.2591
    115  O        -46.5400    6.0920    6.0240 O.2   320  LEU320     -0.2718
    116  CB       -43.5590    6.8010    7.2760 C.3   320  LEU320      0.0284
    117  CG       -43.5180    7.7250    6.0580 C.3   320  LEU320      0.0019
    118  CD1      -44.2110    9.0350    6.3550 C.3   320  LEU320      0.0001
    119  CD2      -42.0920    7.9870    5.6290 C.3   320  LEU320      0.0001
    120  N        -45.2950    4.3350    6.5500 N.am  321  LEU321     -0.1980
    121  CA       -45.9090    3.4030    5.6080 C.3   321  LEU321      0.1596
    122  C        -47.4050    3.2400    5.8040 C.2   321  LEU321      0.2287
    123  O        -48.1870    3.3860    4.8950 O.2   321  LEU321     -0.2864
    124  CB       -45.2300    2.0330    5.7010 C.3   321  LEU321      0.0297
    125  CG       -45.5360    1.0520    4.5710 C.3   321  LEU321      0.0022
    126  CD1      -44.8430    1.5070    3.2990 C.3   321  LEU321      0.0001
    127  CD2      -45.1250   -0.3680    4.9390 C.3   321  LEU321      0.0001
    128  N        -49.2600    6.3230    4.6970 N.3   324  PHE324     -0.1241
    129  CA       -49.4730    6.2920    3.2470 C.3   324  PHE324      0.1605
    130  C        -50.6730    5.4070    2.8780 C.2   324  PHE324      0.2264
    131  O        -51.4880    5.7730    2.0610 O.2   324  PHE324     -0.2867
    132  CB       -48.2130    5.8440    2.5150 C.3   324  PHE324      0.0534
    133  CG       -47.2690    6.9660    2.2070 C.ar  324  PHE324     -0.0203
    134  CD1      -47.6110    7.9400    1.2810 C.ar  324  PHE324     -0.0042
    135  CD2      -46.0450    7.0530    2.8450 C.ar  324  PHE324     -0.0042
    136  CE1      -46.7440    8.9740    0.9940 C.ar  324  PHE324     -0.0003
    137  CE2      -45.1720    8.0830    2.5610 C.ar  324  PHE324     -0.0003
    138  CZ       -45.5220    9.0480    1.6360 C.ar  324  PHE324     -0.0000
    139  N        -35.5100   13.5230    4.2920 N.3   367  TYR367     -0.1227
    140  CA       -35.2620   12.1210    4.6600 C.3   367  TYR367      0.1736
    141  C        -34.7740   11.2960    3.4890 C.2   367  TYR367      0.2595
    142  O        -33.8720   10.4940    3.6320 O.2   367  TYR367     -0.2718
    143  CB       -36.5190   11.4810    5.2680 C.3   367  TYR367      0.0548
    144  CG       -36.8990   12.1070    6.5840 C.ar  367  TYR367     -0.0200
    145  CD1      -36.3580   11.6470    7.7730 C.ar  367  TYR367     -0.0009
    146  CD2      -37.7590   13.1920    6.6330 C.ar  367  TYR367     -0.0009
    147  CE1      -36.6770   12.2400    8.9750 C.ar  367  TYR367      0.0417
    148  CE2      -38.0830   13.7940    7.8300 C.ar  367  TYR367      0.0417
    149  CZ       -37.5390   13.3130    8.9970 C.ar  367  TYR367      0.1957
    150  OH       -37.8560   13.9110   10.1900 O.3   367  TYR367     -0.2866
    151  N        -35.3690   11.4980    2.3120 N.am  368  MET368     -0.1979
    152  CA       -34.8930   10.8070    1.1290 C.3   368  MET368      0.1605
    153  C        -33.4380   11.1040    0.8530 C.2   368  MET368      0.2287
    154  O        -32.6650   10.2330    0.5280 O.2   368  MET368     -0.2864
    155  CB       -35.7020   11.2260   -0.1030 C.3   368  MET368      0.0413
    156  CG       -37.1320   10.7310   -0.1470 C.3   368  MET368      0.0598
    157  SD       -38.0060   11.3460   -1.6120 S.3   368  MET368     -0.1393
    158  CE       -37.1710   10.4650   -2.9290 C.3   368  MET368      0.0692
    159  N        -31.0160   12.4690    2.9090 N.3   370  ALA370     -0.1245
    160  CA       -30.1030   12.0970    3.9960 C.3   370  ALA370      0.1562
    161  C        -29.6730   10.6290    4.0260 C.2   370  ALA370      0.2260
    162  O        -28.8950   10.2820    4.9440 O.2   370  ALA370     -0.2867
    163  CB       -30.6800   12.5110    5.3530 C.3   370  ALA370      0.0290
    164  N        -33.9400   21.0210    7.1390 N.3   380  GLU380     -0.1245
    165  CA       -33.8740   20.4430    8.4830 C.3   380  GLU380      0.1567
    166  C        -34.2770   21.4540    9.5500 C.2   380  GLU380      0.2260
    167  O        -35.0170   21.1620   10.4690 O.2   380  GLU380     -0.2867
    168  CB       -32.5250   19.7700    8.7520 C.3   380  GLU380      0.0388
    169  CG       -32.4690   18.3820    8.1290 C.3   380  GLU380      0.1160
    170  CD       -31.1080   17.7240    8.1960 C.2   380  GLU380      0.3649
    171  OE1      -30.1530   18.3680    8.6780 O.co2 380  GLU380     -0.2457
    172  OE2      -30.9940   16.5540    7.7630 O.co2 380  GLU380     -0.2457
@<TRIPOS>BOND
     1   158   157    1
     2   157   156    1
     3   156   155    1
     4   155   152    1
     5   154   153    2
     6   153   152    1
     7   136   134   ar
     8   136   138   ar
     9   152   151    1
    10   134   133   ar
    11   138   137   ar
    12   131   130    2
    13   133   132    1
    14   133   135   ar
    15   151   141   am
    16   132   129    1
    17   137   135   ar
    18   130   129    1
    19   159   160    1
    20   129   128    1
    21   126   125    1
    22   141   142    2
    23   141   140    1
    24   160   161    1
    25   160   163    1
    26   161   162    2
    27   139   140    1
    28   125   127    1
    29   125   124    1
    30   140   143    1
    31   123   122    2
    32   143   144    1
    33   121   124    1
    34   121   122    1
    35   121   120    1
    36   119   117    1
    37   115   114    2
    38   117   118    1
    39   117   116    1
    40   120   114   am
    41   144   146   ar
    42   144   145   ar
    43   146   148   ar
    44   114   113    1
    45   164   165    1
    46   116   113    1
    47    73    72    1
    48   172   170   ar
    49   145   147   ar
    50   113   112    1
    51   148   149   ar
    52   110   109    2
    53    61    60    1
    54   169   170    1
    55   169   168    1
    56   170   171   ar
    57   111   108    1
    58   165   168    1
    59   165   166    1
    60   109   108    1
    61   108   107    1
    62    72    71   ar
    63    72    70   ar
    64   147   149   ar
    65   149   150    1
    66    71    69   ar
    67    60    59    1
    68   166   167    2
    69    51    52   ar
    70    51    49   ar
    71    59    58    1
    72    52    50   ar
    73    70    68   ar
    74   107   101   am
    75    69    67   ar
    76   102   101    2
    77    49    47   ar
    78    50    48   ar
    79   101   100    1
    80    58    57    1
    81    68    67   ar
    82    57    54    1
    83    98    97    2
    84    93    92    2
    85    67    66    1
    86    89    88    2
    87    47    48   ar
    88    47    46    1
    89    92    94   am
    90    92    91    1
    91    96    97    1
    92    96    95    1
    93    90    91    1
    94    90    87    1
    95    88    95   am
    96    88    87    1
    97   100   103    1
    98   100    99    1
    99   103   104    1
   100    41    40   ar
   101    41    39   ar
   102    55    54    1
   103    55    56    2
   104    54    53    1
   105    40    38   ar
   106    66    63    1
   107    87    86    1
   108    46    43    1
   109   106   105    1
   110    45    44    2
   111    43    44    1
   112    43    42    1
   113    63    62    1
   114    63    64    1
   115    39    37   ar
   116   104   105    1
   117    38    37   ar
   118    65    64    2
   119    86    76   am
   120    11     9    1
   121    37    36    1
   122    77    76    2
   123     8     9    2
   124     8     7    1
   125    76    75    1
   126     9    10    1
   127    35    34    2
   128    85    84    1
   129    23    22    1
   130    83    84   ar
   131    83    81   ar
   132     7     6    1
   133    84    82   ar
   134    36    33    1
   135    81    79   ar
   136    34    33    1
   137    33    32    1
   138    75    74    1
   139    75    78    1
   140    82    80   ar
   141    22    21   ar
   142    22    20   ar
   143    21    19   ar
   144    79    80   ar
   145    79    78    1
   146     6     5    1
   147    30    29    2
   148    20    18   ar
   149     5     2    1
   150    19    17   ar
   151    29    31   am
   152    29    28    1
   153    27    26    2
   154     3     4    2
   155     3     2    1
   156    18    17   ar
   157    17    16    1
   158     2     1    1
   159    25    28    1
   160    25    26    1
   161    25    24    1
   162    15    14    2
   163    24    14   am
   164    14    13    1
   165    16    13    1
   166    13    12    1
