@<TRIPOS>MOLECULE
tmp/4k5zA01.pdb
 144 145 0 0 0
SMALL
GASTEIGER

@<TRIPOS>ATOM
      1  N         61.3620   51.2420   -9.3940 N.3    45  HIS45      -0.1241
      2  CA        62.3920   52.1260   -9.9320 C.3    45  HIS45       0.1621
      3  C         63.7990   51.7190   -9.5120 C.2    45  HIS45       0.2264
      4  O         64.7840   52.2930   -9.9900 O.2    45  HIS45      -0.2867
      5  CB        62.1150   53.6150   -9.6550 C.3    45  HIS45       0.0745
      6  CG        62.3770   54.0480   -8.2400 C.ar   45  HIS45       0.0817
      7  ND1       61.3680   54.2570   -7.3230 N.ar   45  HIS45      -0.2268
      8  CD2       63.5300   54.3890   -7.6120 C.ar   45  HIS45       0.1154
      9  CE1       61.8900   54.6640   -6.1770 C.ar   45  HIS45       0.1986
     10  NE2       63.2000   54.7580   -6.3280 N.ar   45  HIS45      -0.2212
     11  N         61.8980   62.3710    7.3060 N.3   170  SER170     -0.1202
     12  CA        61.5160   61.8310    6.0020 C.3   170  SER170      0.2020
     13  C         62.4250   60.6990    5.5110 C.2   170  SER170      0.2619
     14  O         63.5710   60.5750    5.9370 O.2   170  SER170     -0.2717
     15  CB        61.5140   62.9390    4.9460 C.3   170  SER170      0.2103
     16  OG        61.2820   62.3910    3.6570 O.3   170  SER170     -0.2182
     17  N         61.9060   59.8790    4.6010 N.am  171  ALA171     -0.1965
     18  CA        62.7570   58.9740    3.8350 C.3   171  ALA171      0.1728
     19  C         63.4030   59.8290    2.7490 C.2   171  ALA171      0.2616
     20  O         62.9090   60.9190    2.4600 O.2   171  ALA171     -0.2715
     21  CB        61.9310   57.8460    3.2230 C.3   171  ALA171      0.0334
     22  N         64.4980   59.3560    2.1540 N.am  172  PHE172     -0.1960
     23  CA        65.1460   60.1070    1.0830 C.3   172  PHE172      0.1771
     24  C         65.8680   59.1810    0.1000 C.2   172  PHE172      0.2619
     25  O         65.6660   57.9710    0.1360 O.2   172  PHE172     -0.2715
     26  CB        66.0880   61.1760    1.6570 C.3   172  PHE172      0.0574
     27  CG        66.4370   62.2530    0.6760 C.ar  172  PHE172     -0.0200
     28  CD1       65.4340   62.9730    0.0400 C.ar  172  PHE172     -0.0042
     29  CD2       67.7630   62.5330    0.3680 C.ar  172  PHE172     -0.0042
     30  CE1       65.7420   63.9540   -0.8750 C.ar  172  PHE172     -0.0003
     31  CE2       68.0790   63.5080   -0.5530 C.ar  172  PHE172     -0.0003
     32  CZ        67.0670   64.2250   -1.1760 C.ar  172  PHE172     -0.0000
     33  N         66.6800   59.7550   -0.7860 N.am  173  LYS173     -0.1977
     34  CA        67.4000   58.9930   -1.8060 C.3   173  LYS173      0.1596
     35  C         68.1630   57.8250   -1.1990 C.2   173  LYS173      0.2287
     36  O         68.9080   57.9920   -0.2230 O.2   173  LYS173     -0.2864
     37  CB        68.3540   59.8990   -2.5880 C.3   173  LYS173      0.0298
     38  CG        67.6470   60.9120   -3.4770 C.3   173  LYS173      0.0038
     39  CD        68.6300   61.7160   -4.3300 C.3   173  LYS173      0.0206
     40  CE        67.8870   62.7820   -5.1340 C.3   173  LYS173      0.1093
     41  NZ        68.6400   63.2750   -6.3290 N.3   173  LYS173     -0.1314
     42  N         64.4980   54.1720   -1.0980 N.3   176  SER176     -0.1217
     43  CA        63.5040   53.5790   -1.9950 C.3   176  SER176      0.1889
     44  C         63.4220   52.0710   -1.7990 C.2   176  SER176      0.2288
     45  O         64.4640   51.4010   -1.7270 O.2   176  SER176     -0.2866
     46  CB        63.8900   53.8580   -3.4440 C.3   176  SER176      0.2089
     47  OG        64.1450   55.2310   -3.6710 O.3   176  SER176     -0.2183
     48  N         58.5810   52.8440    0.2820 N.3   190  VAL190     -0.1231
     49  CA        59.1520   54.1470   -0.0860 C.3   190  VAL190      0.1692
     50  C         59.1690   54.2790   -1.5970 C.2   190  VAL190      0.2593
     51  O         59.6800   53.4030   -2.2830 O.2   190  VAL190     -0.2718
     52  CB        60.6070   54.2840    0.3970 C.3   190  VAL190      0.0266
     53  CG1       61.1840   55.6390   -0.0260 C.3   190  VAL190      0.0020
     54  CG2       60.6980   54.1070    1.9130 C.3   190  VAL190      0.0020
     55  N         58.6210   55.3720   -2.1290 N.am  191  SER191     -0.1938
     56  CA        58.6020   55.5520   -3.5860 C.3   191  SER191      0.2055
     57  C         59.2700   56.8610   -4.0090 C.2   191  SER191      0.2643
     58  O         60.4020   56.8680   -4.4970 O.2   191  SER191     -0.2714
     59  CB        57.1620   55.4880   -4.1230 C.3   191  SER191      0.2130
     60  OG        57.1570   55.5390   -5.5460 O.3   191  SER191     -0.2179
     61  N         58.5780   57.9750   -3.8150 N.am  192  TYR192     -0.1959
     62  CA        59.1500   59.2700   -4.1780 C.3   192  TYR192      0.1771
     63  C         58.6880   60.3880   -3.2610 C.2   192  TYR192      0.2620
     64  O         57.7940   60.1990   -2.4250 O.2   192  TYR192     -0.2715
     65  CB        58.8490   59.6200   -5.6440 C.3   192  TYR192      0.0574
     66  CG        57.3990   59.9500   -5.9410 C.ar  192  TYR192     -0.0198
     67  CD1       56.9490   61.2780   -5.9400 C.ar  192  TYR192     -0.0009
     68  CD2       56.4860   58.9410   -6.2430 C.ar  192  TYR192     -0.0009
     69  CE1       55.6220   61.5800   -6.2150 C.ar  192  TYR192      0.0417
     70  CE2       55.1540   59.2270   -6.5280 C.ar  192  TYR192      0.0417
     71  CZ        54.7300   60.5470   -6.5090 C.ar  192  TYR192      0.1957
     72  OH        53.4130   60.8380   -6.7890 O.3   192  TYR192     -0.2866
     73  N         59.3440   61.5360   -3.4030 N.am  193  GLY193     -0.1940
     74  CA        58.9430   62.7670   -2.7470 C.3   193  GLY193      0.2014
     75  C         59.6010   63.9540   -3.4360 C.2   193  GLY193      0.2639
     76  O         60.0820   63.8370   -4.5710 O.2   193  GLY193     -0.2714
     77  N         59.6250   65.0990   -2.7550 N.am  194  ARG194     -0.1963
     78  CA        60.2890   66.2930   -3.2670 C.3   194  ARG194      0.1729
     79  C         61.8080   66.1790   -3.2030 C.2   194  ARG194      0.2616
     80  O         62.3660   65.5010   -2.3230 O.2   194  ARG194     -0.2715
     81  CB        59.8720   67.5220   -2.4540 C.3   194  ARG194      0.0348
     82  CG        58.4480   67.9940   -2.6870 C.3   194  ARG194      0.0492
     83  CD        58.0910   69.1560   -1.7430 C.3   194  ARG194      0.2205
     84  NE        58.9510   70.3300   -1.9310 N.pl3 194  ARG194     -0.0865
     85  CZ        58.6180   71.4070   -2.6470 C.cat 194  ARG194      0.5346
     86  NH1       57.4360   71.4760   -3.2460 N.pl3 194  ARG194      0.1354
     87  NH2       59.4680   72.4200   -2.7640 N.pl3 194  ARG194      0.1354
     88  N         62.4850   66.8640   -4.1170 N.am  195  SER195     -0.1950
     89  CA        63.9450   66.8630   -4.1180 C.3   195  SER195      0.1924
     90  C         64.5320   67.5340   -2.8670 C.2   195  SER195      0.2314
     91  O         65.6400   67.1900   -2.4320 O.2   195  SER195     -0.2863
     92  CB        64.4770   67.5220   -5.3960 C.3   195  SER195      0.2116
     93  OG        64.0350   68.8640   -5.5070 O.3   195  SER195     -0.2180
     94  N         63.2440   67.2850    0.0640 N.3   197  ALA197     -0.1231
     95  CA        62.8070   66.4560    1.1930 C.3   197  ALA197      0.1694
     96  C         61.7900   67.0770    2.1630 C.2   197  ALA197      0.2592
     97  O         61.6700   66.6140    3.3030 O.2   197  ALA197     -0.2718
     98  CB        64.0040   65.9250    1.9550 C.3   197  ALA197      0.0304
     99  N         61.0600   68.1070    1.7290 N.am  198  LYS198     -0.1966
    100  CA        59.9550   68.6330    2.5440 C.3   198  LYS198      0.1713
    101  C         58.7980   67.6300    2.5230 C.2   198  LYS198      0.2458
    102  O         58.2590   67.3290    1.4520 O.2   198  LYS198     -0.2730
    103  CB        59.4530   69.9920    2.0230 C.3   198  LYS198      0.0311
    104  CG        60.4660   71.1340    2.0170 C.3   198  LYS198      0.0038
    105  CD        59.7880   72.4200    1.4930 C.3   198  LYS198      0.0206
    106  CE        60.6510   73.6570    1.7000 C.3   198  LYS198      0.1093
    107  NZ        60.8710   73.9150    3.1550 N.3   198  LYS198     -0.1314
    108  N         58.4130   67.1060    3.7000 N.am  199  PRO199     -0.2716
    109  CA        57.3030   66.1440    3.7730 C.3   199  PRO199      0.1521
    110  C         55.9500   66.8010    3.4330 C.2   199  PRO199      0.2440
    111  O         55.8150   68.0240    3.5500 O.2   199  PRO199     -0.2731
    112  CB        57.3280   65.6830    5.2400 C.3   199  PRO199      0.0310
    113  CG        58.6690   66.0850    5.7740 C.3   199  PRO199      0.0237
    114  CD        59.0360   67.3300    5.0180 C.3   199  PRO199      0.0939
    115  N         54.9420   66.0050    3.0410 N.am  200  PRO200     -0.2716
    116  CA        54.9010   64.5390    3.0030 C.3   200  PRO200      0.1536
    117  C         55.5710   63.9810    1.7620 C.2   200  PRO200      0.2598
    118  O         56.0050   64.7360    0.8820 O.2   200  PRO200     -0.2715
    119  CB        53.4060   64.2370    2.9430 C.3   200  PRO200      0.0310
    120  CG        52.8200   65.4200    2.2470 C.3   200  PRO200      0.0237
    121  CD        53.6280   66.5970    2.7330 C.3   200  PRO200      0.0939
    122  N         55.6590   62.6550    1.7300 N.am  201  ALA201     -0.1964
    123  CA        56.1980   61.9140    0.6080 C.3   201  ALA201      0.1728
    124  C         55.1780   60.8540    0.1960 C.2   201  ALA201      0.2616
    125  O         54.2080   60.5960    0.9130 O.2   201  ALA201     -0.2715
    126  CB        57.5120   61.2580    1.0070 C.3   201  ALA201      0.0334
    127  N         55.4170   60.2160   -0.9420 N.am  202  VAL202     -0.1963
    128  CA        54.4850   59.2450   -1.5000 C.3   202  VAL202      0.1727
    129  C         55.0370   57.8270   -1.3700 C.2   202  VAL202      0.2616
    130  O         56.1720   57.5590   -1.7850 O.2   202  VAL202     -0.2715
    131  CB        54.2260   59.5770   -2.9810 C.3   202  VAL202      0.0290
    132  CG1       53.2200   58.6140   -3.6020 C.3   202  VAL202      0.0023
    133  CG2       53.7320   61.0160   -3.1000 C.3   202  VAL202      0.0023
    134  N         54.2520   56.9280   -0.7650 N.am  203  PHE203     -0.1974
    135  CA        54.6410   55.5310   -0.6280 C.3   203  PHE203      0.1639
    136  C         53.6490   54.6920   -1.4260 C.2   203  PHE203      0.2290
    137  O         52.4680   55.0450   -1.5270 O.2   203  PHE203     -0.2864
    138  CB        54.5850   55.0770    0.8430 C.3   203  PHE203      0.0560
    139  CG        55.6890   55.6320    1.7150 C.ar  203  PHE203     -0.0200
    140  CD1       55.8960   57.0150    1.8210 C.ar  203  PHE203     -0.0042
    141  CD2       56.4800   54.7740    2.4640 C.ar  203  PHE203     -0.0042
    142  CE1       56.9000   57.5220    2.6250 C.ar  203  PHE203     -0.0003
    143  CE2       57.4890   55.2790    3.2900 C.ar  203  PHE203     -0.0003
    144  CZ        57.7000   56.6460    3.3650 C.ar  203  PHE203     -0.0000
@<TRIPOS>BOND
     1     4     3    2
     2     2     5    1
     3     2     3    1
     4     2     1    1
     5     5     6    1
     6     6     8   ar
     7     6     7   ar
     8     8    10   ar
     9     7     9   ar
    10    72    71    1
    11    70    71   ar
    12    70    68   ar
    13    71    69   ar
    14    41    40    1
    15    10     9   ar
    16    68    66   ar
    17    69    67   ar
    18    66    67   ar
    19    66    65    1
    20    65    62    1
    21    60    59    1
    22    93    92    1
    23    92    89    1
    24    40    39    1
    25    76    75    2
    26    58    57    2
    27    39    38    1
    28    62    61    1
    29    62    63    1
    30    59    56    1
    31    89    88    1
    32    89    90    1
    33    88    79   am
    34    57    61   am
    35    57    56    1
    36    47    46    1
    37   132   131    1
    38    56    55    1
    39    38    37    1
    40    46    43    1
    41    75    77   am
    42    75    74    1
    43    73    63   am
    44    73    74    1
    45    78    79    1
    46    78    77    1
    47    78    81    1
    48    63    64    2
    49    86    85    1
    50    79    80    2
    51   133   131    1
    52   131   128    1
    53    90    91    2
    54    87    85    1
    55    82    81    1
    56    82    83    1
    57    85    84    2
    58    37    34    1
    59    51    50    2
    60    55    50   am
    61    43    44    1
    62    43    42    1
    63    84    83    1
    64    34    35    1
    65    34    33    1
    66    44    45    2
    67   130   129    2
    68    50    49    1
    69   137   136    2
    70   128   129    1
    71   128   127    1
    72   136   135    1
    73   129   134   am
    74    35    36    2
    75    32    30   ar
    76    32    31   ar
    77   127   124   am
    78    30    28   ar
    79    33    24   am
    80   134   135    1
    81   135   138    1
    82    31    29   ar
    83    49    48    1
    84    49    52    1
    85    53    52    1
    86    28    27   ar
    87    94    95    1
    88    24    25    2
    89    24    23    1
    90   124   123    1
    91   124   125    2
    92    29    27   ar
    93    52    54    1
    94   123   126    1
    95   123   122    1
    96    27    26    1
    97   138   139    1
    98   118   117    2
    99    23    26    1
   100    23    22    1
   101    95    98    1
   102    95    96    1
   103   102   101    2
   104   105   106    1
   105   105   104    1
   106   106   107    1
   107   139   140   ar
   108   139   141   ar
   109    99    96   am
   110    99   100    1
   111   122   117   am
   112   117   116    1
   113   140   142   ar
   114   104   103    1
   115   103   100    1
   116    22    19   am
   117    96    97    2
   118   120   121    1
   119   120   119    1
   120    20    19    2
   121   141   143   ar
   122   101   100    1
   123   101   108   am
   124   142   144   ar
   125   121   115    1
   126    19    18    1
   127   119   116    1
   128   116   115    1
   129   115   110   am
   130    21    18    1
   131   143   144   ar
   132   110   111    2
   133   110   109    1
   134    16    15    1
   135   108   109    1
   136   108   114    1
   137   109   112    1
   138    18    17    1
   139    17    13   am
   140    15    12    1
   141   114   113    1
   142   112   113    1
   143    13    14    2
   144    13    12    1
   145    12    11    1
