@<TRIPOS>MOLECULE
tmp/4k60A01.pdb
 121 119 0 0 0
SMALL
GASTEIGER

@<TRIPOS>ATOM
      1  N         61.3510   51.3750   -9.3840 N.3    44  HIS44      -0.1241
      2  CA        62.3930   52.2470   -9.9150 C.3    44  HIS44       0.1621
      3  C         63.7990   51.8050   -9.5210 C.2    44  HIS44       0.2264
      4  O         64.7810   52.3690  -10.0050 O.2    44  HIS44      -0.2867
      5  CB        62.1320   53.7340   -9.6150 C.3    44  HIS44       0.0745
      6  CG        62.3550   54.1350   -8.1890 C.ar   44  HIS44       0.0817
      7  ND1       61.3230   54.2930   -7.2890 N.ar   44  HIS44      -0.2268
      8  CD2       63.4860   54.4900   -7.5310 C.ar   44  HIS44       0.1154
      9  CE1       61.8080   54.6900   -6.1250 C.ar   44  HIS44       0.1986
     10  NE2       63.1190   54.8190   -6.2450 N.ar   44  HIS44      -0.2212
     11  N         61.9000   62.3740    7.1410 N.3   169  SER169     -0.1202
     12  CA        61.5540   61.8760    5.8090 C.3   169  SER169      0.2020
     13  C         62.4640   60.7320    5.3940 C.2   169  SER169      0.2619
     14  O         63.6130   60.6600    5.8170 O.2   169  SER169     -0.2717
     15  CB        61.7040   63.0070    4.7820 C.3   169  SER169      0.2103
     16  OG        61.2690   62.6160    3.4820 O.3   169  SER169     -0.2182
     17  N         61.9650   59.8360    4.5520 N.am  170  ALA170     -0.1965
     18  CA        62.8650   58.9660    3.8060 C.3   170  ALA170      0.1728
     19  C         63.4410   59.7920    2.6470 C.2   170  ALA170      0.2616
     20  O         62.9230   60.8640    2.3220 O.2   170  ALA170     -0.2715
     21  CB        62.1260   57.7370    3.2980 C.3   170  ALA170      0.0334
     22  N         64.5210   59.3280    2.0260 N.am  171  PHE171     -0.1960
     23  CA        65.1010   60.0820    0.9240 C.3   171  PHE171      0.1771
     24  C         65.7920   59.1430   -0.0640 C.2   171  PHE171      0.2619
     25  O         65.5360   57.9310   -0.0470 O.2   171  PHE171     -0.2715
     26  CB        66.0450   61.1800    1.4590 C.3   171  PHE171      0.0574
     27  CG        66.2720   62.3170    0.4880 C.ar  171  PHE171     -0.0200
     28  CD1       65.1970   63.0290   -0.0320 C.ar  171  PHE171     -0.0042
     29  CD2       67.5550   62.6610    0.0860 C.ar  171  PHE171     -0.0042
     30  CE1       65.3970   64.0720   -0.9350 C.ar  171  PHE171     -0.0003
     31  CE2       67.7650   63.6990   -0.8200 C.ar  171  PHE171     -0.0003
     32  CZ        66.6860   64.4000   -1.3340 C.ar  171  PHE171     -0.0000
     33  N         66.6140   59.7050   -0.9490 N.am  172  LYS172     -0.1977
     34  CA        67.3960   58.9330   -1.9140 C.3   172  LYS172      0.1596
     35  C         68.1320   57.7910   -1.2330 C.2   172  LYS172      0.2287
     36  O         68.7520   57.9870   -0.1820 O.2   172  LYS172     -0.2864
     37  CB        68.4120   59.8440   -2.6020 C.3   172  LYS172      0.0298
     38  CG        67.7840   60.9270   -3.4670 C.3   172  LYS172      0.0038
     39  CD        68.8810   61.7590   -4.1160 C.3   172  LYS172      0.0206
     40  CE        68.3190   62.7510   -5.1190 C.3   172  LYS172      0.1093
     41  NZ        69.4240   63.5100   -5.7840 N.3   172  LYS172     -0.1314
     42  N         64.5120   54.2120   -1.1180 N.3   175  SER175     -0.1217
     43  CA        63.5540   53.6130   -2.0470 C.3   175  SER175      0.1889
     44  C         63.4290   52.1250   -1.8290 C.2   175  SER175      0.2288
     45  O         64.4430   51.4300   -1.7180 O.2   175  SER175     -0.2866
     46  CB        64.0450   53.8060   -3.4790 C.3   175  SER175      0.2089
     47  OG        64.1850   55.1680   -3.8030 O.3   175  SER175     -0.2183
     48  N         58.6480   52.8210    0.2600 N.3   189  VAL189     -0.1231
     49  CA        59.2190   54.1090   -0.1060 C.3   189  VAL189      0.1692
     50  C         59.2370   54.2350   -1.6120 C.2   189  VAL189      0.2593
     51  O         59.7400   53.3460   -2.3130 O.2   189  VAL189     -0.2718
     52  CB        60.6630   54.2480    0.4090 C.3   189  VAL189      0.0266
     53  CG1       61.2480   55.5960    0.0200 C.3   189  VAL189      0.0020
     54  CG2       60.6950   54.0890    1.9140 C.3   189  VAL189      0.0020
     55  N         58.6920   55.3410   -2.1140 N.am  190  SER190     -0.1938
     56  CA        58.6260   55.5730   -3.5540 C.3   190  SER190      0.2055
     57  C         59.2630   56.8900   -3.9840 C.2   190  SER190      0.2643
     58  O         60.3610   56.8840   -4.5370 O.2   190  SER190     -0.2714
     59  CB        57.1780   55.4700   -4.0560 C.3   190  SER190      0.2130
     60  OG        57.1110   55.6780   -5.4640 O.3   190  SER190     -0.2179
     61  N         58.5910   58.0200   -3.7580 N.am  191  TYR191     -0.1959
     62  CA        59.1430   59.3070   -4.1820 C.3   191  TYR191      0.1771
     63  C         58.7140   60.4700   -3.3020 C.2   191  TYR191      0.2620
     64  O         57.8020   60.3380   -2.4850 O.2   191  TYR191     -0.2715
     65  CB        58.8000   59.6060   -5.6530 C.3   191  TYR191      0.0574
     66  CG        57.3460   59.9570   -5.9370 C.ar  191  TYR191     -0.0198
     67  CD1       56.4090   58.9730   -6.2370 C.ar  191  TYR191     -0.0009
     68  CD2       56.9280   61.2880   -5.9570 C.ar  191  TYR191     -0.0009
     69  CE1       55.0830   59.3040   -6.5310 C.ar  191  TYR191      0.0417
     70  CE2       55.6130   61.6260   -6.2420 C.ar  191  TYR191      0.0417
     71  CZ        54.7000   60.6310   -6.5290 C.ar  191  TYR191      0.1957
     72  OH        53.3860   60.9550   -6.8210 O.3   191  TYR191     -0.2866
     73  N         59.3840   61.6050   -3.4790 N.am  192  GLY192     -0.1940
     74  CA        59.0310   62.8260   -2.7740 C.3   192  GLY192      0.2014
     75  C         59.6890   64.0140   -3.4480 C.2   192  GLY192      0.2639
     76  O         60.2590   63.8910   -4.5420 O.2   192  GLY192     -0.2714
     77  N         59.6140   65.1730   -2.8020 N.am  193  ARG193     -0.1963
     78  CA        60.2720   66.3680   -3.3210 C.3   193  ARG193      0.1729
     79  C         61.7820   66.2580   -3.2430 C.2   193  ARG193      0.2616
     80  O         62.3360   65.6530   -2.3130 O.2   193  ARG193     -0.2715
     81  CB        59.8400   67.5980   -2.5280 C.3   193  ARG193      0.0348
     82  CG        58.4020   68.0110   -2.7550 C.3   193  ARG193      0.0492
     83  CD        58.0170   69.1770   -1.8530 C.3   193  ARG193      0.2205
     84  NE        58.8960   70.3470   -1.9770 N.pl3 193  ARG193     -0.0865
     85  CZ        58.5860   71.4690   -2.6360 C.cat 193  ARG193      0.5346
     86  NH1       57.4310   71.5800   -3.2750 N.pl3 193  ARG193      0.1354
     87  NH2       59.4440   72.4830   -2.6670 N.pl3 193  ARG193      0.1354
     88  N         62.4480   66.9020   -4.1960 N.am  194  SER194     -0.1950
     89  CA        63.9000   66.9050   -4.2360 C.3   194  SER194      0.1924
     90  C         64.5120   67.6550   -3.0480 C.2   194  SER194      0.2314
     91  O         65.6770   67.4300   -2.7120 O.2   194  SER194     -0.2863
     92  CB        64.3820   67.4950   -5.5630 C.3   194  SER194      0.2116
     93  OG        64.0360   68.8620   -5.6650 O.3   194  SER194     -0.2180
     94  N         63.2270   67.3250   -0.0220 N.3   196  ALA196     -0.1245
     95  CA        62.8290   66.4960    1.1250 C.3   196  ALA196      0.1562
     96  C         61.7690   67.0730    2.0610 C.2   196  ALA196      0.2260
     97  O         61.5680   66.5470    3.1590 O.2   196  ALA196     -0.2867
     98  CB        64.0600   66.0630    1.9330 C.3   196  ALA196      0.0290
     99  N         55.7600   62.7470    1.7640 N.3   200  ALA200     -0.1231
    100  CA        56.2200   62.0080    0.5990 C.3   200  ALA200      0.1694
    101  C         55.2070   60.9450    0.2330 C.2   200  ALA200      0.2592
    102  O         54.2360   60.7030    0.9650 O.2   200  ALA200     -0.2718
    103  CB        57.5800   61.3700    0.8500 C.3   200  ALA200      0.0304
    104  N         55.4450   60.2970   -0.9000 N.am  201  VAL201     -0.1966
    105  CA        54.4910   59.3480   -1.4510 C.3   201  VAL201      0.1727
    106  C         55.0250   57.9310   -1.3670 C.2   201  VAL201      0.2616
    107  O         56.1360   57.6430   -1.8270 O.2   201  VAL201     -0.2715
    108  CB        54.1800   59.6960   -2.9150 C.3   201  VAL201      0.0290
    109  CG1       53.2300   58.6750   -3.5140 C.3   201  VAL201      0.0023
    110  CG2       53.5710   61.0960   -3.0120 C.3   201  VAL201      0.0023
    111  N         54.2290   57.0470   -0.7690 N.am  202  PHE202     -0.1974
    112  CA        54.5920   55.6430   -0.6100 C.3   202  PHE202      0.1639
    113  C         53.6060   54.7690   -1.3710 C.2   202  PHE202      0.2290
    114  O         52.4140   55.0830   -1.4310 O.2   202  PHE202     -0.2864
    115  CB        54.5300   55.2380    0.8770 C.3   202  PHE202      0.0560
    116  CG        55.6690   55.7600    1.7190 C.ar  202  PHE202     -0.0200
    117  CD1       55.8530   57.1220    1.9130 C.ar  202  PHE202     -0.0042
    118  CD2       56.5310   54.8760    2.3640 C.ar  202  PHE202     -0.0042
    119  CE1       56.9000   57.6020    2.7020 C.ar  202  PHE202     -0.0003
    120  CE2       57.5770   55.3610    3.1660 C.ar  202  PHE202     -0.0003
    121  CZ        57.7550   56.7120    3.3260 C.ar  202  PHE202     -0.0000
@<TRIPOS>BOND
     1     4     3    2
     2     2     5    1
     3     2     3    1
     4     2     1    1
     5     5     6    1
     6     6     8   ar
     7     6     7   ar
     8     8    10   ar
     9     7     9   ar
    10    72    71    1
    11    69    71   ar
    12    69    67   ar
    13    71    70   ar
    14    10     9   ar
    15    70    68   ar
    16    67    66   ar
    17    68    66   ar
    18    66    65    1
    19    41    40    1
    20    93    92    1
    21    65    62    1
    22    92    89    1
    23    60    59    1
    24    40    39    1
    25    76    75    2
    26    58    57    2
    27    89    88    1
    28    89    90    1
    29    88    79   am
    30    62    61    1
    31    62    63    1
    32    39    38    1
    33    59    56    1
    34    57    61   am
    35    57    56    1
    36    47    46    1
    37    56    55    1
    38   109   108    1
    39    73    63   am
    40    73    74    1
    41    46    43    1
    42    38    37    1
    43    75    77   am
    44    75    74    1
    45    78    79    1
    46    78    77    1
    47    78    81    1
    48    63    64    2
    49    86    85    1
    50    79    80    2
    51    90    91    2
    52   110   108    1
    53   108   105    1
    54    82    81    1
    55    82    83    1
    56    87    85    1
    57    85    84    2
    58    37    34    1
    59    51    50    2
    60    55    50   am
    61    43    44    1
    62    43    42    1
    63    84    83    1
    64    34    35    1
    65    34    33    1
    66    44    45    2
    67   107   106    2
    68    50    49    1
    69   105   106    1
    70   105   104    1
    71   114   113    2
    72   113   112    1
    73   106   111   am
    74    32    30   ar
    75    32    31   ar
    76    35    36    2
    77    33    24   am
    78    30    28   ar
    79   104   101   am
    80    31    29   ar
    81   111   112    1
    82   112   115    1
    83    49    48    1
    84    49    52    1
    85    24    25    2
    86    24    23    1
    87    28    27   ar
    88    94    95    1
    89    53    52    1
    90    29    27   ar
    91   101   100    1
    92   101   102    2
    93    52    54    1
    94    27    26    1
    95   100   103    1
    96   100    99    1
    97   115   116    1
    98    23    26    1
    99    23    22    1
   100    95    98    1
   101    95    96    1
   102   116   117   ar
   103   116   118   ar
   104   117   119   ar
   105    22    19   am
   106    96    97    2
   107    20    19    2
   108   118   120   ar
   109    19    18    1
   110   119   121   ar
   111   120   121   ar
   112    21    18    1
   113    16    15    1
   114    18    17    1
   115    17    13   am
   116    15    12    1
   117    13    12    1
   118    13    14    2
   119    12    11    1
