@<TRIPOS>MOLECULE
tmp/4k66A01.pdb
 143 137 0 0 0
SMALL
GASTEIGER

@<TRIPOS>ATOM
      1  N         11.8530   14.8920   24.7760 N.3    92  TYR92      -0.1241
      2  CA        12.3690   15.5930   25.9340 C.3    92  TYR92       0.1605
      3  C         13.4870   16.4230   25.3420 C.2    92  TYR92       0.2264
      4  O         14.3320   15.9010   24.6210 O.2    92  TYR92      -0.2867
      5  CB        12.9390   14.6300   26.9730 C.3    92  TYR92       0.0534
      6  CG        13.0710   15.1650   28.3900 C.ar   92  TYR92      -0.0201
      7  CD1       12.3730   14.5950   29.4340 C.ar   92  TYR92      -0.0009
      8  CD2       13.9250   16.2180   28.6940 C.ar   92  TYR92      -0.0009
      9  CE1       12.4890   15.0640   30.7370 C.ar   92  TYR92       0.0417
     10  CE2       14.0780   16.6880   30.0180 C.ar   92  TYR92       0.0417
     11  CZ        13.3400   16.1060   31.0240 C.ar   92  TYR92       0.1957
     12  OH        13.4190   16.5330   32.3270 O.3    92  TYR92      -0.2866
     13  N         10.0590    4.7790   36.6590 N.3   130  SER130     -0.1202
     14  CA         9.4140    5.9870   37.0820 C.3   130  SER130      0.2020
     15  C         10.0700    7.1380   36.3540 C.2   130  SER130      0.2619
     16  O          9.9850    8.2910   36.7700 O.2   130  SER130     -0.2717
     17  CB         9.5850    6.1290   38.5980 C.3   130  SER130      0.2103
     18  OG         9.6740    4.8390   39.2060 O.3   130  SER130     -0.2182
     19  N         10.7540    6.8010   35.2750 N.am  131  GLY131     -0.1942
     20  CA        11.5810    7.7320   34.5600 C.3   131  GLY131      0.2014
     21  C         10.8830    8.0030   33.2740 C.2   131  GLY131      0.2639
     22  O         11.1580    7.3460   32.2620 O.2   131  GLY131     -0.2714
     23  N         10.0210    9.0140   33.3290 N.am  132  VAL132     -0.1963
     24  CA         8.9900    9.2500   32.3610 C.3   132  VAL132      0.1727
     25  C          8.6350   10.7140   32.4110 C.2   132  VAL132      0.2617
     26  O          8.6500   11.2940   33.4950 O.2   132  VAL132     -0.2715
     27  CB         7.7320    8.4570   32.7890 C.3   132  VAL132      0.0290
     28  CG1        7.7960    6.9810   32.3830 C.3   132  VAL132      0.0023
     29  CG2        7.5370    8.5780   34.2640 C.3   132  VAL132      0.0023
     30  N          8.3290   11.3250   31.2560 N.am  133  SER133     -0.1936
     31  CA         7.8590   12.7330   31.2030 C.3   133  SER133      0.2055
     32  C          6.5500   12.9370   30.4720 C.2   133  SER133      0.2643
     33  O          6.1070   12.0690   29.7210 O.2   133  SER133     -0.2714
     34  CB         8.8590   13.6650   30.5230 C.3   133  SER133      0.2130
     35  OG         8.3560   15.0100   30.5340 O.3   133  SER133     -0.2179
     36  N          5.9680   14.1150   30.6570 N.am  134  SER134     -0.1949
     37  CA         4.8060   14.5110   29.8990 C.3   134  SER134      0.1924
     38  C          5.2020   15.0690   28.5540 C.2   134  SER134      0.2314
     39  O          4.3550   15.4290   27.7470 O.2   134  SER134     -0.2863
     40  CB         4.0230   15.5520   30.6560 C.3   134  SER134      0.2116
     41  OG         4.4300   15.5170   31.9840 O.3   134  SER134     -0.2180
     42  N          2.4370    9.8290   30.6140 N.3   142  PRO142     -0.2116
     43  CA         3.8710   10.1500   30.6570 C.3   142  PRO142      0.1372
     44  C          4.7120    8.9620   30.2820 C.2   142  PRO142      0.2244
     45  O          4.6410    7.9440   30.9640 O.2   142  PRO142     -0.2868
     46  CB         4.1020   10.4620   32.1290 C.3   142  PRO142      0.0268
     47  CG         2.8020   11.0290   32.5780 C.3   142  PRO142      0.0207
     48  CD         1.7220   10.3630   31.7870 C.3   142  PRO142      0.0892
     49  N         15.7140    6.0340   31.9050 N.3   150  TRP150     -0.1241
     50  CA        16.0090    7.1380   32.8100 C.3   150  TRP150      0.1605
     51  C         16.0480    6.7710   34.3250 C.2   150  TRP150      0.2264
     52  O         15.1570    7.1800   35.0600 O.2   150  TRP150     -0.2867
     53  CB        14.9490    8.2060   32.5530 C.3   150  TRP150      0.0550
     54  CG        15.0830    9.4530   33.3550 C.ar  150  TRP150      0.0003
     55  CD1       16.0810    9.7820   34.2040 C.ar  150  TRP150      0.0946
     56  CD2       14.1660   10.5390   33.3920 C.ar  150  TRP150      0.0152
     57  NE1       15.8550   11.0340   34.7960 N.ar  150  TRP150     -0.2442
     58  CE2       14.6850   11.5150   34.2940 C.ar  150  TRP150      0.0810
     59  CE3       12.9390   10.7860   32.7580 C.ar  150  TRP150      0.0012
     60  CZ2       14.0460   12.6960   34.5550 C.ar  150  TRP150      0.0191
     61  CZ3       12.2800   11.9530   33.0520 C.ar  150  TRP150      0.0001
     62  CH2       12.8380   12.9060   33.9370 C.ar  150  TRP150      0.0015
     63  N         16.4910    6.5490   38.3210 N.3   152  ILE152     -0.1245
     64  CA        16.5080    7.5520   39.4000 C.3   152  ILE152      0.1561
     65  C         16.7250    6.9120   40.7500 C.2   152  ILE152      0.2260
     66  O         16.8220    5.7030   40.8360 O.2   152  ILE152     -0.2867
     67  CB        15.2000    8.3980   39.5060 C.3   152  ILE152      0.0252
     68  CG1       14.0560    7.5370   40.0170 C.3   152  ILE152      0.0019
     69  CG2       14.8510    9.0940   38.2090 C.3   152  ILE152      0.0019
     70  CD1       12.8360    8.3150   40.2870 C.3   152  ILE152      0.0001
     71  N         21.1980   13.5320   31.9390 N.3   180  HIS180     -0.1241
     72  CA        20.0810   14.4110   32.1790 C.3   180  HIS180      0.1621
     73  C         20.6460   15.6210   32.8400 C.2   180  HIS180      0.2264
     74  O         21.3450   15.4980   33.8110 O.2   180  HIS180     -0.2867
     75  CB        19.0180   13.7580   33.0900 C.3   180  HIS180      0.0745
     76  CG        17.9390   14.7140   33.5570 C.ar  180  HIS180      0.0817
     77  ND1       17.5330   14.8080   34.8760 N.ar  180  HIS180     -0.2268
     78  CD2       17.1900   15.6160   32.8780 C.ar  180  HIS180      0.1154
     79  CE1       16.5830   15.7120   34.9800 C.ar  180  HIS180      0.1986
     80  NE2       16.3520   16.2190   33.7830 N.ar  180  HIS180     -0.2212
     81  N         15.8680   19.9990   42.0230 N.3   187  GLU187     -0.1245
     82  CA        15.5270   18.9040   41.1180 C.3   187  GLU187      0.1567
     83  C         16.5920   17.7740   41.1710 C.2   187  GLU187      0.2260
     84  O         16.2740   16.5590   41.2240 O.2   187  GLU187     -0.2867
     85  CB        15.3720   19.4550   39.7160 C.3   187  GLU187      0.0388
     86  CG        14.8520   18.5110   38.6690 C.3   187  GLU187      0.1160
     87  CD        14.6180   19.2360   37.3110 C.2   187  GLU187      0.3649
     88  OE1       14.1730   20.4230   37.3260 O.co2 187  GLU187     -0.2457
     89  OE2       14.8890   18.6320   36.2280 O.co2 187  GLU187     -0.2457
     90  N         16.0870   15.7610   44.3700 N.3   190  ARG190     -0.1231
     91  CA        14.7980   15.0750   44.2820 C.3   190  ARG190      0.1694
     92  C         14.9560   13.8300   43.4560 C.2   190  ARG190      0.2591
     93  O         14.3790   12.8110   43.7640 O.2   190  ARG190     -0.2718
     94  CB        13.7400   15.9940   43.6570 C.3   190  ARG190      0.0321
     95  CG        12.5150   15.2760   43.1650 C.3   190  ARG190      0.0489
     96  CD        11.3700   16.2220   42.9190 C.3   190  ARG190      0.2205
     97  NE        11.6000   17.0790   41.7670 N.pl3 190  ARG190     -0.0865
     98  CZ        11.2170   16.7840   40.5130 C.cat 190  ARG190      0.5346
     99  NH1       10.5720   15.6430   40.2410 N.pl3 190  ARG190      0.1354
    100  NH2       11.4740   17.6390   39.5200 N.pl3 190  ARG190      0.1354
    101  N         15.7630   13.9300   42.4080 N.am  191  LEU191     -0.1980
    102  CA        15.9510   12.8480   41.4570 C.3   191  LEU191      0.1596
    103  C         17.1000   11.8560   41.7800 C.2   191  LEU191      0.2287
    104  O         16.9890   10.6710   41.5120 O.2   191  LEU191     -0.2864
    105  CB        16.1460   13.4620   40.0860 C.3   191  LEU191      0.0297
    106  CG        15.0720   13.2760   39.0350 C.3   191  LEU191      0.0022
    107  CD1       13.7300   13.3980   39.6540 C.3   191  LEU191      0.0001
    108  CD2       15.2650   14.3350   37.9650 C.3   191  LEU191      0.0001
    109  N         11.7950   27.3660   28.2510 N.3   219  LYS219     -0.1245
    110  CA        10.9900   26.1610   28.1770 C.3   219  LYS219      0.1561
    111  C         10.9000   25.6820   26.7560 C.2   219  LYS219      0.2260
    112  O         10.7270   26.4660   25.8370 O.2   219  LYS219     -0.2867
    113  CB         9.6060   26.3920   28.7480 C.3   219  LYS219      0.0271
    114  CG         9.5070   25.8920   30.1580 C.3   219  LYS219      0.0035
    115  CD         8.4140   26.5830   30.9650 C.3   219  LYS219      0.0206
    116  CE         8.8380   26.6210   32.4500 C.3   219  LYS219      0.1093
    117  NZ         8.0290   27.6210   33.2140 N.3   219  LYS219     -0.1314
    118  N          8.8610   22.3040   24.9370 N.3   221  ASN221     -0.1225
    119  CA         7.9320   21.2100   25.2450 C.3   221  ASN221      0.1785
    120  C          7.4730   21.1920   26.7190 C.2   221  ASN221      0.2598
    121  O          7.2120   20.1000   27.2760 O.2   221  ASN221     -0.2718
    122  CB         8.5880   19.8620   24.9510 C.3   221  ASN221      0.1169
    123  CG         8.6010   19.5290   23.4720 C.2   221  ASN221      0.2627
    124  OD1        8.3490   20.3650   22.6090 O.2   221  ASN221     -0.2716
    125  ND2        8.9040   18.3090   23.1760 N.am  221  ASN221     -0.0877
    126  N          7.4140   22.3620   27.3670 N.am  222  GLY222     -0.1942
    127  CA         7.0730   22.4410   28.7710 C.3   222  GLY222      0.2014
    128  C          8.2610   22.4560   29.7170 C.2   222  GLY222      0.2638
    129  O          8.0820   22.8600   30.8760 O.2   222  GLY222     -0.2714
    130  N          9.4560   22.0380   29.2700 N.am  223  LEU223     -0.1977
    131  CA        10.6020   21.8640   30.2010 C.3   223  LEU223      0.1596
    132  C         11.7950   22.7810   30.0170 C.2   223  LEU223      0.2287
    133  O         12.1410   23.1890   28.9150 O.2   223  LEU223     -0.2864
    134  CB        11.1280   20.4210   30.2030 C.3   223  LEU223      0.0297
    135  CG        10.0700   19.3550   30.0050 C.3   223  LEU223      0.0022
    136  CD1       10.7500   17.9940   29.8050 C.3   223  LEU223      0.0001
    137  CD2        9.1710   19.3660   31.1950 C.3   223  LEU223      0.0001
    138  N         14.5990   21.5700   31.6630 N.3   225  SER225     -0.1217
    139  CA        15.5040   20.4690   31.7520 C.3   225  SER225      0.1889
    140  C         15.9460   20.0500   30.3750 C.2   225  SER225      0.2288
    141  O         15.2160   20.1970   29.3960 O.2   225  SER225     -0.2866
    142  CB        14.7410   19.2860   32.3590 C.3   225  SER225      0.2089
    143  OG        14.7380   19.2720   33.7800 O.3   225  SER225     -0.2183
@<TRIPOS>BOND
     1   124   123    2
     2   125   123   am
     3   123   122    1
     4     4     3    2
     5     1     2    1
     6   118   119    1
     7   122   119    1
     8   119   120    1
     9     3     2    1
    10   112   111    2
    11     2     5    1
    12   120   121    2
    13   120   126   am
    14   111   110    1
    15     5     6    1
    16   126   127    1
    17    39    38    2
    18   110   109    1
    19   110   113    1
    20     6     8   ar
    21     6     7   ar
    22    38    37    1
    23     8    10   ar
    24   113   114    1
    25   127   128    1
    26   133   132    2
    27   130   128   am
    28   130   131    1
    29   141   140    2
    30     7     9   ar
    31   128   129    2
    32    33    32    2
    33   136   135    1
    34    37    40    1
    35    37    36    1
    36   135   134    1
    37   135   137    1
    38   132   131    1
    39    10    11   ar
    40   114   115    1
    41   131   134    1
    42    44    43    1
    43    44    45    2
    44   140   139    1
    45    32    36   am
    46    32    31    1
    47    34    35    1
    48    34    31    1
    49    42    43    1
    50    42    48    1
    51    40    41    1
    52    43    46    1
    53     9    11   ar
    54   115   116    1
    55    11    12    1
    56    31    30    1
    57    30    25   am
    58   138   139    1
    59   139   142    1
    60    48    47    1
    61    49    50    1
    62    71    72    1
    63    46    47    1
    64    72    73    1
    65    72    75    1
    66    22    21    2
    67   142   143    1
    68    24    25    1
    69    24    27    1
    70    24    23    1
    71    28    27    1
    72    25    26    2
    73   116   117    1
    74    53    50    1
    75    53    54    1
    76    59    61   ar
    77    59    56   ar
    78    27    29    1
    79    50    51    1
    80    73    74    2
    81    78    76   ar
    82    78    80   ar
    83    61    62   ar
    84    75    76    1
    85    21    23   am
    86    21    20    1
    87    54    56   ar
    88    54    55   ar
    89    56    58   ar
    90    76    77   ar
    91    80    79   ar
    92    62    60   ar
    93    55    57   ar
    94    58    60   ar
    95    58    57   ar
    96    51    52    2
    97    20    19    1
    98    77    79   ar
    99    19    15   am
   100    89    87   ar
   101    15    16    2
   102    15    14    1
   103    13    14    1
   104    14    17    1
   105    87    88   ar
   106    87    86    1
   107   108   106    1
   108    69    67    1
   109    63    64    1
   110    17    18    1
   111    86    85    1
   112   106   107    1
   113   106   105    1
   114    64    67    1
   115    64    65    1
   116    67    68    1
   117   100    98    1
   118    85    82    1
   119    68    70    1
   120   105   102    1
   121    99    98    1
   122    98    97    2
   123    65    66    2
   124    82    83    1
   125    82    81    1
   126    83    84    2
   127   102   103    1
   128   102   101    1
   129   104   103    2
   130    97    96    1
   131   101    92   am
   132    96    95    1
   133    95    94    1
   134    92    93    2
   135    92    91    1
   136    94    91    1
   137    91    90    1
