@<TRIPOS>MOLECULE
tmp/4k67C01.pdb
 135 129 0 0 0
SMALL
GASTEIGER

@<TRIPOS>ATOM
      1  N         23.5160    5.7160  272.9780 N.3    92  TYR92      -0.1241
      2  CA        22.8950    5.0060  274.0820 C.3    92  TYR92       0.1605
      3  C         21.8320    4.1130  273.4720 C.2    92  TYR92       0.2264
      4  O         20.9470    4.6030  272.7710 O.2    92  TYR92      -0.2867
      5  CB        22.2650    5.9720  275.0750 C.3    92  TYR92       0.0534
      6  CG        22.1430    5.4060  276.4670 C.ar   92  TYR92      -0.0201
      7  CD1       22.9130    5.9110  277.5150 C.ar   92  TYR92      -0.0009
      8  CD2       21.2650    4.3550  276.7380 C.ar   92  TYR92      -0.0009
      9  CE1       22.8040    5.3930  278.7960 C.ar   92  TYR92       0.0417
     10  CE2       21.1480    3.8350  278.0110 C.ar   92  TYR92       0.0417
     11  CZ        21.9230    4.3570  279.0330 C.ar   92  TYR92       0.1957
     12  OH        21.8030    3.8340  280.2940 O.3    92  TYR92      -0.2866
     13  N         25.1240   15.8540  284.9010 N.3   130  SER130     -0.1202
     14  CA        25.6790   14.5420  285.2020 C.3   130  SER130      0.2020
     15  C         25.0580   13.4370  284.3460 C.2   130  SER130      0.2619
     16  O         25.3100   12.2540  284.5710 O.2   130  SER130     -0.2717
     17  CB        25.4520   14.2100  286.6740 C.3   130  SER130      0.2103
     18  OG        25.7660   15.3210  287.4890 O.3   130  SER130     -0.2182
     19  N         24.2290   13.8160  283.3790 N.am  131  GLY131     -0.1942
     20  CA        23.5320   12.8360  282.5660 C.3   131  GLY131      0.2014
     21  C         24.3690   12.4240  281.3810 C.2   131  GLY131      0.2639
     22  O         24.0750   12.7860  280.2430 O.2   131  GLY131     -0.2714
     23  N         25.4230   11.6670  281.6540 N.am  132  VAL132     -0.1963
     24  CA        26.3680   11.2790  280.6250 C.3   132  VAL132      0.1727
     25  C         26.6040    9.7780  280.6790 C.2   132  VAL132      0.2617
     26  O         26.2700    9.1330  281.6760 O.2   132  VAL132     -0.2715
     27  CB        27.7250   12.0080  280.8100 C.3   132  VAL132      0.0290
     28  CG1       27.5790   13.5080  280.5600 C.3   132  VAL132      0.0023
     29  CG2       28.2980   11.7420  282.1990 C.3   132  VAL132      0.0023
     30  N         27.1840    9.2240  279.6150 N.am  133  SER133     -0.1936
     31  CA        27.4740    7.7900  279.5600 C.3   133  SER133      0.2055
     32  C         28.6760    7.4670  278.6790 C.2   133  SER133      0.2643
     33  O         28.9410    8.1530  277.6920 O.2   133  SER133     -0.2714
     34  CB        26.2520    7.0150  279.0510 C.3   133  SER133      0.2130
     35  OG        26.6180    5.7470  278.5320 O.3   133  SER133     -0.2179
     36  N         29.3850    6.4010  279.0280 N.am  134  SER134     -0.1949
     37  CA        30.4800    5.9000  278.2010 C.3   134  SER134      0.1924
     38  C         30.0010    5.4430  276.8310 C.2   134  SER134      0.2314
     39  O         30.7970    5.2950  275.9090 O.2   134  SER134     -0.2863
     40  CB        31.1790    4.7350  278.8950 C.3   134  SER134      0.2116
     41  OG        31.7340    5.1570  280.1300 O.3   134  SER134     -0.2180
     42  N         32.8720   10.6030  278.7840 N.3   142  PRO142     -0.2116
     43  CA        31.4340   10.2880  278.7960 C.3   142  PRO142      0.1372
     44  C         30.5940   11.5060  278.4510 C.2   142  PRO142      0.2244
     45  O         30.7830   12.5560  279.0570 O.2   142  PRO142     -0.2868
     46  CB        31.1670    9.8990  280.2550 C.3   142  PRO142      0.0268
     47  CG        32.4930    9.4980  280.7980 C.3   142  PRO142      0.0207
     48  CD        33.5080   10.3360  280.0830 C.3   142  PRO142      0.0892
     49  N         19.5080   14.4060  280.2200 N.3   150  TRP150     -0.1241
     50  CA        19.1600   13.2750  281.0650 C.3   150  TRP150      0.1605
     51  C         19.2340   13.6790  282.5340 C.2   150  TRP150      0.2264
     52  O         20.3030   13.6400  283.1380 O.2   150  TRP150     -0.2867
     53  CB        20.1290   12.1420  280.7650 C.3   150  TRP150      0.0550
     54  CG        20.0010   10.9220  281.6050 C.ar  150  TRP150      0.0003
     55  CD1       18.9950   10.6110  282.4750 C.ar  150  TRP150      0.0946
     56  CD2       20.9280    9.8310  281.6530 C.ar  150  TRP150      0.0152
     57  NE1       19.2370    9.3860  283.0600 N.ar  150  TRP150     -0.2442
     58  CE2       20.4170    8.8900  282.5730 C.ar  150  TRP150      0.0810
     59  CE3       22.1410    9.5590  281.0080 C.ar  150  TRP150      0.0012
     60  CZ2       21.0800    7.7010  282.8610 C.ar  150  TRP150      0.0191
     61  CZ3       22.7980    8.3750  281.2970 C.ar  150  TRP150      0.0001
     62  CH2       22.2650    7.4590  282.2120 C.ar  150  TRP150      0.0015
     63  N         18.9030   13.6950  286.5520 N.3   152  ILE152     -0.1245
     64  CA        18.9060   12.7530  287.6680 C.3   152  ILE152      0.1561
     65  C         18.6080   13.5000  288.9660 C.2   152  ILE152      0.2260
     66  O         18.4570   14.7190  288.9630 O.2   152  ILE152     -0.2867
     67  CB        20.2420   11.9720  287.8100 C.3   152  ILE152      0.0252
     68  CG1       21.3460   12.8850  288.3380 C.3   152  ILE152      0.0019
     69  CG2       20.6540   11.3180  286.4940 C.3   152  ILE152      0.0019
     70  CD1       22.5800   12.1400  288.7420 C.3   152  ILE152      0.0001
     71  N         14.0790    6.8450  280.1210 N.3   180  HIS180     -0.1241
     72  CA        15.1780    5.9290  280.3780 C.3   180  HIS180      0.1621
     73  C         14.6720    4.6620  281.0550 C.2   180  HIS180      0.2264
     74  O         14.0150    4.7290  282.1010 O.2   180  HIS180     -0.2867
     75  CB        16.2260    6.6060  281.2550 C.3   180  HIS180      0.0745
     76  CG        17.2960    5.6790  281.7540 C.ar  180  HIS180      0.0817
     77  ND1       17.6090    5.5570  283.0930 N.ar  180  HIS180     -0.2268
     78  CD2       18.1280    4.8370  281.0950 C.ar  180  HIS180      0.1154
     79  CE1       18.5820    4.6780  283.2350 C.ar  180  HIS180      0.1986
     80  NE2       18.9180    4.2270  282.0380 N.ar  180  HIS180     -0.2212
     81  N         19.3330    0.6240  290.3540 N.3   187  GLU187     -0.1245
     82  CA        19.6810    1.6870  289.4190 C.3   187  GLU187      0.1567
     83  C         18.5950    2.7630  289.3740 C.2   187  GLU187      0.2260
     84  O         18.8880    3.9580  289.2520 O.2   187  GLU187     -0.2867
     85  CB        19.9120    1.0880  288.0290 C.3   187  GLU187      0.0388
     86  CG        20.2530    2.0900  286.9490 C.3   187  GLU187      0.1160
     87  CD        20.4130    1.4300  285.6000 C.2   187  GLU187      0.3649
     88  OE1       20.9040    0.2820  285.5520 O.co2 187  GLU187     -0.2457
     89  OE2       20.0480    2.0570  284.5830 O.co2 187  GLU187     -0.2457
     90  N         18.9790    4.7370  292.4930 N.3   190  ARG190     -0.1231
     91  CA        20.2840    5.3940  292.4490 C.3   190  ARG190      0.1694
     92  C         20.2290    6.6530  291.5990 C.2   190  ARG190      0.2591
     93  O         20.8830    7.6550  291.9060 O.2   190  ARG190     -0.2718
     94  CB        21.3640    4.4610  291.9080 C.3   190  ARG190      0.0321
     95  CG        22.7520    5.0800  291.9500 C.3   190  ARG190      0.0489
     96  CD        23.8480    4.1270  291.4950 C.3   190  ARG190      0.2205
     97  NE        24.0340    4.1360  290.0480 N.pl3 190  ARG190     -0.0865
     98  CZ        23.7230    3.1180  289.2540 C.cat 190  ARG190      0.5346
     99  NH1       23.2120    2.0060  289.7720 N.pl3 190  ARG190      0.1354
    100  NH2       23.9290    3.2090  287.9440 N.pl3 190  ARG190      0.1354
    101  N         19.4360    6.6000  290.5340 N.am  191  LEU191     -0.1980
    102  CA        19.2930    7.7360  289.6280 C.3   191  LEU191      0.1596
    103  C         18.1670    8.6810  290.0330 C.2   191  LEU191      0.2287
    104  O         18.2860    9.8890  289.8540 O.2   191  LEU191     -0.2864
    105  CB        19.0640    7.2490  288.1970 C.3   191  LEU191      0.0297
    106  CG        20.2590    6.9980  287.2760 C.3   191  LEU191      0.0022
    107  CD1       21.5330    6.7710  288.0500 C.3   191  LEU191      0.0001
    108  CD2       19.9720    5.8150  286.3720 C.3   191  LEU191      0.0001
    109  N         23.4580   -6.7340  276.8280 N.3   219  LYS219     -0.1245
    110  CA        24.3020   -5.5600  276.6560 C.3   219  LYS219      0.1561
    111  C         24.4410   -5.1360  275.2010 C.2   219  LYS219      0.2260
    112  O         24.7130   -5.9500  274.3240 O.2   219  LYS219     -0.2867
    113  CB        25.6850   -5.7860  277.2740 C.3   219  LYS219      0.0271
    114  CG        25.6700   -5.9030  278.7870 C.3   219  LYS219      0.0035
    115  CD        27.0770   -6.0540  279.3330 C.3   219  LYS219      0.0206
    116  CE        27.0670   -6.2090  280.8520 C.3   219  LYS219      0.1093
    117  NZ        28.4530   -6.2530  281.4080 N.3   219  LYS219     -0.1314
    118  N         27.7080   -1.8650  275.5460 N.3   222  GLY222     -0.1210
    119  CA        28.1860   -1.9840  276.9100 C.3   222  GLY222      0.1956
    120  C         27.1010   -1.9510  277.9690 C.2   222  GLY222      0.2611
    121  O         27.3460   -2.3050  279.1270 O.2   222  GLY222     -0.2717
    122  N         25.8960   -1.5410  277.5810 N.am  223  LEU223     -0.1979
    123  CA        24.8280   -1.2980  278.5560 C.3   223  LEU223      0.1596
    124  C         23.6460   -2.2500  278.4190 C.2   223  LEU223      0.2287
    125  O         23.3560   -2.7420  277.3360 O.2   223  LEU223     -0.2864
    126  CB        24.3210    0.1470  278.4490 C.3   223  LEU223      0.0297
    127  CG        25.3070    1.2630  278.8030 C.3   223  LEU223      0.0022
    128  CD1       24.8580    2.5760  278.1840 C.3   223  LEU223      0.0001
    129  CD2       25.4480    1.4000  280.3080 C.3   223  LEU223      0.0001
    130  N         20.7800   -1.0510  279.9470 N.3   225  SER225     -0.1217
    131  CA        19.7530   -0.0260  280.0260 C.3   225  SER225      0.1889
    132  C         19.3360    0.4130  278.6320 C.2   225  SER225      0.2288
    133  O         20.0160    0.1100  277.6570 O.2   225  SER225     -0.2866
    134  CB        20.2800    1.1920  280.7850 C.3   225  SER225      0.2089
    135  OG        20.4200    0.9330  282.1670 O.3   225  SER225     -0.2183
@<TRIPOS>BOND
     1     4     3    2
     2     1     2    1
     3     3     2    1
     4     2     5    1
     5   112   111    2
     6     5     6    1
     7   111   110    1
     8   118   119    1
     9    39    38    2
    10     6     8   ar
    11     6     7   ar
    12   110   109    1
    13   110   113    1
    14     8    10   ar
    15    38    37    1
    16   119   120    1
    17   113   114    1
    18   125   124    2
    19     7     9   ar
    20   122   120   am
    21   122   123    1
    22   133   132    2
    23    33    32    2
    24   120   121    2
    25    10    11   ar
    26   128   127    1
    27    37    40    1
    28    37    36    1
    29   124   123    1
    30   126   123    1
    31   126   127    1
    32    44    43    1
    33    44    45    2
    34    35    34    1
    35   132   131    1
    36    32    36   am
    37    32    31    1
    38    42    43    1
    39    42    48    1
    40   114   115    1
    41    43    46    1
    42     9    11   ar
    43   127   129    1
    44    40    41    1
    45    11    12    1
    46    34    31    1
    47   115   116    1
    48    31    30    1
    49    30    25   am
    50   130   131    1
    51   131   134    1
    52    48    47    1
    53    71    72    1
    54    49    50    1
    55    22    21    2
    56    46    47    1
    57    72    73    1
    58    72    75    1
    59    28    27    1
    60    24    25    1
    61    24    27    1
    62    24    23    1
    63    25    26    2
    64    53    50    1
    65    53    54    1
    66   134   135    1
    67    27    29    1
    68   116   117    1
    69    59    61   ar
    70    59    56   ar
    71    73    74    2
    72    50    51    1
    73    78    76   ar
    74    78    80   ar
    75    75    76    1
    76    61    62   ar
    77    21    23   am
    78    21    20    1
    79    54    56   ar
    80    54    55   ar
    81    56    58   ar
    82    76    77   ar
    83    80    79   ar
    84    62    60   ar
    85    55    57   ar
    86    51    52    2
    87    20    19    1
    88    58    60   ar
    89    58    57   ar
    90    77    79   ar
    91    19    15   am
    92    15    16    2
    93    15    14    1
    94    89    87   ar
    95    13    14    1
    96    14    17    1
    97    88    87   ar
    98    87    86    1
    99   108   106    1
   100    69    67    1
   101    63    64    1
   102    17    18    1
   103    86    85    1
   104   106   107    1
   105   106   105    1
   106    64    67    1
   107    64    65    1
   108    67    68    1
   109   100    98    1
   110    85    82    1
   111   105   102    1
   112    68    70    1
   113    66    65    2
   114    84    83    2
   115    98    99    1
   116    98    97    2
   117    83    82    1
   118    82    81    1
   119   102   103    1
   120   102   101    1
   121   104   103    2
   122    97    96    1
   123   101    92   am
   124    96    95    1
   125    92    93    2
   126    92    91    1
   127    94    95    1
   128    94    91    1
   129    91    90    1
