@<TRIPOS>MOLECULE
tmp/4k67G01.pdb
 135 129 0 0 0
SMALL
GASTEIGER

@<TRIPOS>ATOM
      1  N         28.4210   -2.8060  149.2520 N.3    92  TYR92      -0.1241
      2  CA        28.1150   -1.9150  150.3580 C.3    92  TYR92       0.1605
      3  C         27.8860   -0.5570  149.7380 C.2    92  TYR92       0.2264
      4  O         28.7390   -0.0650  149.0120 O.2    92  TYR92      -0.2867
      5  CB        29.2670   -1.8470  151.3540 C.3    92  TYR92       0.0534
      6  CG        28.8250   -1.4590  152.7430 C.ar   92  TYR92      -0.0201
      7  CD1       28.8830   -2.3730  153.7940 C.ar   92  TYR92      -0.0009
      8  CD2       28.3260   -0.1800  153.0060 C.ar   92  TYR92      -0.0009
      9  CE1       28.4700   -2.0180  155.0700 C.ar   92  TYR92       0.0417
     10  CE2       27.9200    0.1860  154.2760 C.ar   92  TYR92       0.0417
     11  CZ        27.9890   -0.7350  155.3020 C.ar   92  TYR92       0.1957
     12  OH        27.5830   -0.3660  156.5610 O.3    92  TYR92      -0.2866
     13  N         36.3260   -9.2600  161.2280 N.3   130  SER130     -0.1202
     14  CA        34.9180   -9.0840  161.5290 C.3   130  SER130      0.2020
     15  C         34.2840   -8.0050  160.6560 C.2   130  SER130      0.2619
     16  O         33.1240   -7.6350  160.8600 O.2   130  SER130     -0.2717
     17  CB        34.7420   -8.7030  162.9990 C.3   130  SER130      0.2103
     18  OG        35.5180   -9.5310  163.8400 O.3   130  SER130     -0.2182
     19  N         35.0410   -7.4880  159.6940 N.am  131  GLY131     -0.1942
     20  CA        34.5470   -6.4020  158.8660 C.3   131  GLY131      0.2014
     21  C         33.7510   -6.9160  157.6880 C.2   131  GLY131      0.2639
     22  O         34.2080   -6.8630  156.5470 O.2   131  GLY131     -0.2714
     23  N         32.5580   -7.4180  157.9630 N.am  132  VAL132     -0.1963
     24  CA        31.7540   -8.0320  156.9260 C.3   132  VAL132      0.1727
     25  C         30.3370   -7.4810  156.9740 C.2   132  VAL132      0.2617
     26  O         29.9360   -6.8700  157.9680 O.2   132  VAL132     -0.2715
     27  CB        31.6940   -9.5790  157.0930 C.3   132  VAL132      0.0290
     28  CG1       33.0750  -10.2090  156.8650 C.3   132  VAL132      0.0023
     29  CG2       31.1330   -9.9480  158.4670 C.3   132  VAL132      0.0023
     30  N         29.5790   -7.7110  155.9050 N.am  133  SER133     -0.1936
     31  CA        28.2010   -7.2490  155.8360 C.3   133  SER133      0.2055
     32  C         27.3340   -8.1390  154.9540 C.2   133  SER133      0.2643
     33  O         27.8060   -8.6940  153.9670 O.2   133  SER133     -0.2714
     34  CB        28.1570   -5.8210  155.2980 C.3   133  SER133      0.2130
     35  OG        26.8760   -5.5110  154.7730 O.3   133  SER133     -0.2179
     36  N         26.0580   -8.2480  155.3010 N.am  134  SER134     -0.1949
     37  CA        25.0790   -8.9370  154.4610 C.3   134  SER134      0.1924
     38  C         24.9510   -8.3000  153.0900 C.2   134  SER134      0.2314
     39  O         24.4370   -8.9200  152.1690 O.2   134  SER134     -0.2863
     40  CB        23.7020   -8.9340  155.1320 C.3   134  SER134      0.2116
     41  OG        23.7610   -9.6050  156.3830 O.3   134  SER134     -0.2180
     42  N         27.9130  -13.3360  155.0650 N.3   142  PRO142     -0.2116
     43  CA        28.3670  -11.9390  155.0780 C.3   142  PRO142      0.1372
     44  C         29.8460  -11.8420  154.7410 C.2   142  PRO142      0.2244
     45  O         30.6470  -12.5540  155.3510 O.2   142  PRO142     -0.2868
     46  CB        28.1750  -11.5170  156.5400 C.3   142  PRO142      0.0268
     47  CG        27.2030  -12.4710  157.1060 C.3   142  PRO142      0.0207
     48  CD        27.3720  -13.7560  156.3670 C.3   142  PRO142      0.0892
     49  N         37.9290   -3.6810  156.5440 N.3   150  TRP150     -0.1241
     50  CA        37.1170   -2.8120  157.3840 C.3   150  TRP150      0.1605
     51  C         37.4160   -3.0770  158.8560 C.2   150  TRP150      0.2264
     52  O         36.8070   -3.9530  159.4700 O.2   150  TRP150     -0.2867
     53  CB        35.6470   -3.0720  157.0690 C.3   150  TRP150      0.0550
     54  CG        34.6510   -2.3530  157.9010 C.ar  150  TRP150      0.0003
     55  CD1       34.8780   -1.3320  158.7770 C.ar  150  TRP150      0.0946
     56  CD2       33.2430   -2.6110  157.9410 C.ar  150  TRP150      0.0152
     57  NE1       33.6900   -0.9290  159.3630 N.ar  150  TRP150     -0.2442
     58  CE2       32.6760   -1.7000  158.8650 C.ar  150  TRP150      0.0810
     59  CE3       32.4060   -3.5210  157.2900 C.ar  150  TRP150      0.0012
     60  CZ2       31.3180   -1.6830  159.1460 C.ar  150  TRP150      0.0191
     61  CZ3       31.0460   -3.4940  157.5740 C.ar  150  TRP150      0.0001
     62  CH2       30.5210   -2.5850  158.4890 C.ar  150  TRP150      0.0015
     63  N         37.5670   -2.8060  162.8770 N.3   152  ILE152     -0.1245
     64  CA        36.7400   -2.3350  163.9890 C.3   152  ILE152      0.1561
     65  C         37.5220   -2.4550  165.2940 C.2   152  ILE152      0.2260
     66  O         38.6520   -2.9490  165.3020 O.2   152  ILE152     -0.2867
     67  CB        35.3980   -3.1020  164.1240 C.3   152  ILE152      0.0252
     68  CG1       35.6300   -4.5090  164.6670 C.3   152  ILE152      0.0019
     69  CG2       34.6350   -3.1450  162.7980 C.3   152  ILE152      0.0019
     70  CD1       34.3550   -5.2120  165.0510 C.3   152  ILE152      0.0001
     71  N         34.1240    4.8010  156.4060 N.3   180  HIS180     -0.1241
     72  CA        32.7720    4.3150  156.6610 C.3   180  HIS180      0.1621
     73  C         31.9240    5.4010  157.3250 C.2   180  HIS180      0.2264
     74  O         32.3110    5.9670  158.3580 O.2   180  HIS180     -0.2867
     75  CB        32.8250    3.0700  157.5460 C.3   180  HIS180      0.0745
     76  CG        31.4870    2.6150  158.0360 C.ar  180  HIS180      0.0817
     77  ND1       31.2220    2.3910  159.3720 N.ar  180  HIS180     -0.2268
     78  CD2       30.3390    2.3390  157.3730 C.ar  180  HIS180      0.1154
     79  CE1       29.9680    2.0020  159.5090 C.ar  180  HIS180      0.1986
     80  NE2       29.4100    1.9610  158.3120 N.ar  180  HIS180     -0.2212
     81  N         26.0280    3.3990  166.6000 N.3   187  GLU187     -0.1245
     82  CA        26.7790    2.5650  165.6680 C.3   187  GLU187      0.1567
     83  C         28.2530    2.9600  165.6350 C.2   187  GLU187      0.2260
     84  O         29.1370    2.1030  165.5270 O.2   187  GLU187     -0.2867
     85  CB        26.1690    2.6800  164.2730 C.3   187  GLU187      0.0388
     86  CG        26.8680    1.8620  163.2050 C.3   187  GLU187      0.1160
     87  CD        26.2170    2.0280  161.8440 C.2   187  GLU187      0.3649
     88  OE1       24.9760    2.1750  161.7930 O.co2 187  GLU187     -0.2457
     89  OE2       26.9470    2.0290  160.8310 O.co2 187  GLU187     -0.2457
     90  N         29.7690    1.6390  168.7770 N.3   190  ARG190     -0.1231
     91  CA        29.6840    0.1790  168.7320 C.3   190  ARG190      0.1694
     92  C         30.8070   -0.4000  167.8850 C.2   190  ARG190      0.2591
     93  O         31.3500   -1.4690  168.1900 O.2   190  ARG190     -0.2718
     94  CB        28.3340   -0.2890  168.1830 C.3   190  ARG190      0.0321
     95  CG        28.1700   -1.7980  168.2100 C.3   190  ARG190      0.0489
     96  CD        26.7860   -2.2520  167.7550 C.3   190  ARG190      0.2205
     97  NE        26.6990   -2.4290  166.3070 N.pl3 190  ARG190     -0.0865
     98  CZ        25.9800   -1.6500  165.5060 C.cat 190  ARG190      0.5346
     99  NH1       25.2850   -0.6420  166.0190 N.pl3 190  ARG190      0.1354
    100  NH2       25.9510   -1.8810  164.1980 N.pl3 190  ARG190      0.1354
    101  N         31.1590    0.3200  166.8240 N.am  191  LEU191     -0.1980
    102  CA        32.2090   -0.1260  165.9170 C.3   191  LEU191      0.1596
    103  C         33.5920    0.3750  166.3290 C.2   191  LEU191      0.2287
    104  O         34.5840   -0.3340  166.1670 O.2   191  LEU191     -0.2864
    105  CB        31.8990    0.3170  164.4880 C.3   191  LEU191      0.0297
    106  CG        31.0820   -0.5950  163.5650 C.3   191  LEU191      0.0022
    107  CD1       30.2160   -1.5690  164.3400 C.3   191  LEU191      0.0001
    108  CD2       30.2300    0.2380  162.6260 C.3   191  LEU191      0.0001
    109  N         17.6760    3.5070  153.0250 N.3   219  LYS219     -0.1245
    110  CA        18.2740    2.1930  152.8670 C.3   219  LYS219      0.1561
    111  C         18.5770    1.8550  151.4130 C.2   219  LYS219      0.2260
    112  O         17.7440    2.0400  150.5300 O.2   219  LYS219     -0.2867
    113  CB        17.3820    1.1170  153.4840 C.3   219  LYS219      0.0271
    114  CG        17.2960    1.1800  154.9990 C.3   219  LYS219      0.0035
    115  CD        16.4300    0.0510  155.5360 C.3   219  LYS219      0.0206
    116  CE        16.2770    0.1340  157.0480 C.3   219  LYS219      0.1093
    117  NZ        15.5270   -1.0440  157.5850 N.3   219  LYS219     -0.1314
    118  N         19.7720   -2.6250  151.7760 N.3   222  GLY222     -0.1210
    119  CA        19.4410   -2.9800  153.1400 C.3   222  GLY222      0.1956
    120  C         20.0090   -2.0610  154.2000 C.2   222  GLY222      0.2611
    121  O         19.5860   -2.1060  155.3580 O.2   222  GLY222     -0.2717
    122  N         20.9590   -1.2170  153.8170 N.am  223  LEU223     -0.1979
    123  CA        21.6840   -0.4110  154.7990 C.3   223  LEU223      0.1596
    124  C         21.4540    1.0860  154.6510 C.2   223  LEU223      0.2287
    125  O         21.1760    1.5760  153.5600 O.2   223  LEU223     -0.2864
    126  CB        23.1830   -0.6960  154.7030 C.3   223  LEU223      0.0297
    127  CG        23.6480   -2.1190  155.0390 C.3   223  LEU223      0.0022
    128  CD1       25.0250   -2.3890  154.4340 C.3   223  LEU223      0.0001
    129  CD2       23.6710   -2.3400  156.5450 C.3   223  LEU223      0.0001
    130  N         23.9170    2.9730  156.1790 N.3   225  SER225     -0.1217
    131  CA        25.3200    3.3450  156.2610 C.3   225  SER225      0.1889
    132  C         25.9170    3.4750  154.8690 C.2   225  SER225      0.2288
    133  O         25.3330    3.0230  153.8910 O.2   225  SER225     -0.2866
    134  CB        26.1040    2.2880  157.0310 C.3   225  SER225      0.2089
    135  OG        25.7980    2.3080  158.4090 O.3   225  SER225     -0.2183
@<TRIPOS>BOND
     1     4     3    2
     2     1     2    1
     3     3     2    1
     4     2     5    1
     5   112   111    2
     6     5     6    1
     7   111   110    1
     8   118   119    1
     9    39    38    2
    10     6     8   ar
    11     6     7   ar
    12   110   109    1
    13   110   113    1
    14     8    10   ar
    15    38    37    1
    16   119   120    1
    17   113   114    1
    18   125   124    2
    19     7     9   ar
    20   122   120   am
    21   122   123    1
    22   133   132    2
    23    33    32    2
    24   120   121    2
    25    10    11   ar
    26   128   127    1
    27    37    40    1
    28    37    36    1
    29   124   123    1
    30   126   123    1
    31   126   127    1
    32    44    43    1
    33    44    45    2
    34    35    34    1
    35   132   131    1
    36    32    36   am
    37    32    31    1
    38   114   115    1
    39   127   129    1
    40    42    43    1
    41    42    48    1
    42     9    11   ar
    43    43    46    1
    44    40    41    1
    45    34    31    1
    46    11    12    1
    47   115   116    1
    48    31    30    1
    49    30    25   am
    50   130   131    1
    51   131   134    1
    52    48    47    1
    53    71    72    1
    54    46    47    1
    55    49    50    1
    56    22    21    2
    57    72    73    1
    58    72    75    1
    59    28    27    1
    60    24    25    1
    61    24    27    1
    62    24    23    1
    63    25    26    2
    64   134   135    1
    65   116   117    1
    66    53    50    1
    67    53    54    1
    68    27    29    1
    69    59    61   ar
    70    59    56   ar
    71    73    74    2
    72    78    76   ar
    73    78    80   ar
    74    50    51    1
    75    75    76    1
    76    61    62   ar
    77    21    23   am
    78    21    20    1
    79    54    56   ar
    80    54    55   ar
    81    56    58   ar
    82    76    77   ar
    83    80    79   ar
    84    62    60   ar
    85    55    57   ar
    86    51    52    2
    87    58    60   ar
    88    58    57   ar
    89    20    19    1
    90    77    79   ar
    91    19    15   am
    92    15    16    2
    93    15    14    1
    94    89    87   ar
    95    13    14    1
    96    14    17    1
    97    88    87   ar
    98    87    86    1
    99   108   106    1
   100    69    67    1
   101    63    64    1
   102    17    18    1
   103    86    85    1
   104   106   107    1
   105   106   105    1
   106    64    67    1
   107    64    65    1
   108    67    68    1
   109   100    98    1
   110    85    82    1
   111   105   102    1
   112    68    70    1
   113    65    66    2
   114    98    99    1
   115    98    97    2
   116    84    83    2
   117    83    82    1
   118    82    81    1
   119   102   103    1
   120   102   101    1
   121   104   103    2
   122    97    96    1
   123   101    92   am
   124    96    95    1
   125    92    93    2
   126    92    91    1
   127    94    95    1
   128    94    91    1
   129    91    90    1
