@<TRIPOS>MOLECULE
tmp/4k69A01.pdb
 185 182 0 0 0
SMALL
GASTEIGER

@<TRIPOS>ATOM
      1  N         72.0850   47.8450   -7.1750 N.3    20  ILE20      -0.1245
      2  CA        71.4810   47.7230   -8.4920 C.3    20  ILE20       0.1561
      3  C         72.4850   48.0500   -9.5760 C.2    20  ILE20       0.2260
      4  O         73.0450   49.1460   -9.6150 O.2    20  ILE20      -0.2867
      5  CB        70.2720   48.6370   -8.6160 C.3    20  ILE20       0.0252
      6  CG1       69.2320   48.2380   -7.5780 C.3    20  ILE20       0.0019
      7  CG2       69.6900   48.5740  -10.0190 C.3    20  ILE20       0.0019
      8  CD1       68.6880   49.4160   -6.8500 C.3    20  ILE20       0.0001
      9  N         73.7130   51.6480   -8.1970 N.3    28  LYS28      -0.1231
     10  CA        72.7580   52.4230   -7.4180 C.3    28  LYS28       0.1693
     11  C         72.3050   51.5540   -6.2510 C.2    28  LYS28       0.2592
     12  O         72.6190   50.3540   -6.2070 O.2    28  LYS28      -0.2718
     13  CB        71.5610   52.8360   -8.2780 C.3    28  LYS28       0.0285
     14  CG        71.9290   53.7640   -9.4370 C.3    28  LYS28       0.0035
     15  CD        70.7040   54.1450  -10.2720 C.3    28  LYS28       0.0206
     16  CE        70.1030   52.9490  -10.9770 C.3    28  LYS28       0.1093
     17  NZ        68.9100   53.3170  -11.8030 N.3    28  LYS28      -0.1314
     18  N         71.5800   52.1460   -5.3070 N.am   29  PHE29      -0.1962
     19  CA        71.2080   51.4180   -4.1000 C.3    29  PHE29       0.1771
     20  C         69.7730   51.6610   -3.6780 C.2    29  PHE29       0.2619
     21  O         69.2250   52.7550   -3.8730 O.2    29  PHE29      -0.2715
     22  CB        72.1900   51.7550   -2.9740 C.3    29  PHE29       0.0574
     23  CG        73.6060   51.4050   -3.3140 C.ar   29  PHE29      -0.0200
     24  CD1       74.4170   52.3130   -3.9850 C.ar   29  PHE29      -0.0042
     25  CD2       74.1100   50.1530   -3.0210 C.ar   29  PHE29      -0.0042
     26  CE1       75.7210   51.9760   -4.3460 C.ar   29  PHE29      -0.0003
     27  CE2       75.4170   49.8110   -3.3670 C.ar   29  PHE29      -0.0003
     28  CZ        76.2230   50.7320   -4.0220 C.ar   29  PHE29      -0.0000
     29  N         69.1610   50.6120   -3.1340 N.am   30  CYS30      -0.1968
     30  CA        67.8080   50.6800   -2.6180 C.3    30  CYS30       0.1712
     31  C         67.6850   49.8390   -1.3640 C.2    30  CYS30       0.2296
     32  O         68.5790   49.0650   -1.0190 O.2    30  CYS30      -0.2864
     33  CB        66.8170   50.1450   -3.6530 C.3    30  CYS30       0.0983
     34  SG        66.5050   51.2310   -5.0660 S.3    30  CYS30      -0.0798
     35  N         61.1170   51.2000   -9.3420 N.3    45  HIS45      -0.1226
     36  CA        62.1300   52.1150   -9.8470 C.3    45  HIS45       0.1752
     37  C         63.5450   51.6610   -9.4960 C.2    45  HIS45       0.2596
     38  O         64.5180   52.2610   -9.9440 O.2    45  HIS45      -0.2718
     39  CB        61.8610   53.5740   -9.4240 C.3    45  HIS45       0.0759
     40  CG        62.1130   53.8670   -7.9700 C.ar   45  HIS45       0.0818
     41  ND1       61.0950   54.0800   -7.0640 N.ar   45  HIS45      -0.2268
     42  CD2       63.2680   54.0480   -7.2840 C.ar   45  HIS45       0.1154
     43  CE1       61.6120   54.3530   -5.8780 C.ar   45  HIS45       0.1986
     44  NE2       62.9300   54.3450   -5.9850 N.ar   45  HIS45      -0.2212
     45  N         63.6440   50.5880   -8.7070 N.am   46  CYS46      -0.1970
     46  CA        64.9350   49.9890   -8.3810 C.3    46  CYS46       0.1712
     47  C         65.3440   48.8770   -9.3360 C.2    46  CYS46       0.2296
     48  O         66.3640   48.2090   -9.1060 O.2    46  CYS46      -0.2864
     49  CB        64.9270   49.4430   -6.9580 C.3    46  CYS46       0.0983
     50  SG        64.6570   50.7140   -5.7260 S.3    46  CYS46      -0.0798
     51  N         53.6900   49.3240  -13.9450 N.3    81  TYR81      -0.1241
     52  CA        54.5890   50.3860  -13.5020 C.3    81  TYR81       0.1605
     53  C         54.7770   51.4470  -14.5860 C.2    81  TYR81       0.2264
     54  O         55.0360   51.1370  -15.7440 O.2    81  TYR81      -0.2867
     55  CB        55.9480   49.8160  -13.0740 C.3    81  TYR81       0.0534
     56  CG        56.9820   50.8780  -12.7910 C.ar   81  TYR81      -0.0201
     57  CD1       56.8010   51.7910  -11.7590 C.ar   81  TYR81      -0.0009
     58  CD2       58.1510   50.9640  -13.5390 C.ar   81  TYR81      -0.0009
     59  CE1       57.7530   52.7700  -11.4870 C.ar   81  TYR81       0.0417
     60  CE2       59.0970   51.9330  -13.2800 C.ar   81  TYR81       0.0417
     61  CZ        58.8980   52.8320  -12.2530 C.ar   81  TYR81       0.1957
     62  OH        59.8430   53.7990  -12.0000 O.3    81  TYR81      -0.2866
     63  N         54.7040   57.2370  -11.8660 N.3    86  LEU86      -0.1245
     64  CA        55.2170   56.4110  -10.7640 C.3    86  LEU86       0.1561
     65  C         54.1530   55.5340  -10.0950 C.2    86  LEU86       0.2260
     66  O         54.3860   54.9860   -9.0180 O.2    86  LEU86      -0.2867
     67  CB        56.0070   57.2330   -9.7340 C.3    86  LEU86       0.0270
     68  CG        57.3910   57.6870  -10.2050 C.3    86  LEU86       0.0019
     69  CD1       58.0900   58.5230   -9.1330 C.3    86  LEU86       0.0001
     70  CD2       58.2530   56.4880  -10.6110 C.3    86  LEU86       0.0001
     71  N         61.5520   62.1870    7.2580 N.3   165  SER165     -0.1202
     72  CA        61.1580   61.6480    5.9640 C.3   165  SER165      0.2020
     73  C         62.0600   60.5060    5.5330 C.2   165  SER165      0.2619
     74  O         63.2300   60.4640    5.9090 O.2   165  SER165     -0.2717
     75  CB        61.2430   62.7530    4.9070 C.3   165  SER165      0.2103
     76  OG        60.7290   62.3060    3.6600 O.3   165  SER165     -0.2182
     77  N         61.5260   59.5810    4.7390 N.am  166  ALA166     -0.1965
     78  CA        62.3840   58.7140    3.9410 C.3   166  ALA166      0.1728
     79  C         62.9470   59.5780    2.8130 C.2   166  ALA166      0.2616
     80  O         62.4060   60.6470    2.5070 O.2   166  ALA166     -0.2715
     81  CB        61.6000   57.5180    3.3880 C.3   166  ALA166      0.0334
     82  N         64.0380   59.1450    2.1960 N.am  167  PHE167     -0.1960
     83  CA        64.6250   59.9430    1.1320 C.3   167  PHE167      0.1771
     84  C         65.3410   59.0530    0.1170 C.2   167  PHE167      0.2619
     85  O         65.0970   57.8470    0.0760 O.2   167  PHE167     -0.2715
     86  CB        65.5620   61.0010    1.7290 C.3   167  PHE167      0.0574
     87  CG        65.8520   62.1580    0.8070 C.ar  167  PHE167     -0.0200
     88  CD1       64.8240   62.8390    0.1600 C.ar  167  PHE167     -0.0042
     89  CD2       67.1590   62.5570    0.5850 C.ar  167  PHE167     -0.0042
     90  CE1       65.1070   63.9030   -0.6930 C.ar  167  PHE167     -0.0003
     91  CE2       67.4480   63.6170   -0.2550 C.ar  167  PHE167     -0.0003
     92  CZ        66.4240   64.2870   -0.8970 C.ar  167  PHE167     -0.0000
     93  N         66.1830   59.6590   -0.7210 N.am  168  LYS168     -0.1963
     94  CA        66.9840   58.9250   -1.6920 C.3   168  LYS168      0.1728
     95  C         67.7360   57.8030   -0.9970 C.2   168  LYS168      0.2616
     96  O         68.3310   58.0120    0.0630 O.2   168  LYS168     -0.2715
     97  CB        67.9850   59.8640   -2.3690 C.3   168  LYS168      0.0311
     98  CG        67.3490   60.9180   -3.2610 C.3   168  LYS168      0.0038
     99  CD        68.3970   61.9370   -3.6990 C.3   168  LYS168      0.0206
    100  CE        67.8240   62.9850   -4.6360 C.3   168  LYS168      0.1093
    101  NZ        67.6620   62.4770   -6.0250 N.3   168  LYS168     -0.1314
    102  N         67.6770   56.6090   -1.5740 N.am  169  GLY169     -0.1955
    103  CA        68.3630   55.4610   -1.0120 C.3   169  GLY169      0.1869
    104  C         67.4810   54.6000   -0.1360 C.2   169  GLY169      0.2309
    105  O         67.8510   53.4700    0.1920 O.2   169  GLY169     -0.2863
    106  N         64.3290   53.8210   -1.0150 N.3   171  SER171     -0.1217
    107  CA        63.3830   53.1900   -1.9290 C.3   171  SER171      0.1889
    108  C         63.1290   51.7360   -1.5730 C.2   171  SER171      0.2288
    109  O         64.0780   50.9900   -1.3290 O.2   171  SER171     -0.2866
    110  CB        63.9720   53.2050   -3.3300 C.3   171  SER171      0.2089
    111  OG        64.3030   54.5090   -3.7410 O.3   171  SER171     -0.2183
    112  N         58.3400   52.5780    0.4720 N.3   185  VAL185     -0.1231
    113  CA        58.9230   53.8480    0.0640 C.3   185  VAL185      0.1692
    114  C         58.9120   53.9540   -1.4510 C.2   185  VAL185      0.2593
    115  O         59.3610   53.0350   -2.1460 O.2   185  VAL185     -0.2718
    116  CB        60.3750   53.9720    0.5590 C.3   185  VAL185      0.0266
    117  CG1       61.0110   55.2440    0.0310 C.3   185  VAL185      0.0020
    118  CG2       60.4220   53.9140    2.0880 C.3   185  VAL185      0.0020
    119  N         58.3910   55.0660   -1.9680 N.am  186  SER186     -0.1938
    120  CA        58.3810   55.3030   -3.4070 C.3   186  SER186      0.2055
    121  C         59.0740   56.6200   -3.7610 C.2   186  SER186      0.2643
    122  O         60.2570   56.6190   -4.1090 O.2   186  SER186     -0.2714
    123  CB        56.9490   55.2300   -3.9620 C.3   186  SER186      0.2130
    124  OG        56.9210   55.4500   -5.3730 O.3   186  SER186     -0.2179
    125  N         58.3650   57.7430   -3.6560 N.am  187  TYR187     -0.1959
    126  CA        58.9470   59.0280   -4.0360 C.3   187  TYR187      0.1771
    127  C         58.5320   60.1890   -3.1390 C.2   187  TYR187      0.2620
    128  O         57.6540   60.0510   -2.2880 O.2   187  TYR187     -0.2715
    129  CB        58.6590   59.3560   -5.5140 C.3   187  TYR187      0.0574
    130  CG        57.2220   59.7170   -5.8360 C.ar  187  TYR187     -0.0198
    131  CD1       56.2780   58.7400   -6.1240 C.ar  187  TYR187     -0.0009
    132  CD2       56.8250   61.0510   -5.8790 C.ar  187  TYR187     -0.0009
    133  CE1       54.9760   59.0790   -6.4430 C.ar  187  TYR187      0.0417
    134  CE2       55.5190   61.3990   -6.2000 C.ar  187  TYR187      0.0417
    135  CZ        54.6030   60.4060   -6.4680 C.ar  187  TYR187      0.1957
    136  OH        53.3000   60.7530   -6.7890 O.3   187  TYR187     -0.2866
    137  N         59.1990   61.3180   -3.3150 N.am  188  GLY188     -0.1940
    138  CA        58.8570   62.5320   -2.5970 C.3   188  GLY188      0.2014
    139  C         59.5220   63.6980   -3.2950 C.2   188  GLY188      0.2639
    140  O         60.0760   63.5500   -4.3960 O.2   188  GLY188     -0.2714
    141  N         59.4740   64.8640   -2.6650 N.am  189  ARG189     -0.1963
    142  CA        60.1310   66.0480   -3.1980 C.3   189  ARG189      0.1729
    143  C         61.6460   65.9610   -3.1120 C.2   189  ARG189      0.2616
    144  O         62.1990   65.3760   -2.1690 O.2   189  ARG189     -0.2715
    145  CB        59.6810   67.2890   -2.4240 C.3   189  ARG189      0.0348
    146  CG        58.2450   67.6650   -2.6760 C.3   189  ARG189      0.0492
    147  CD        57.8170   68.8560   -1.8180 C.3   189  ARG189      0.2205
    148  NE        58.6720   70.0350   -1.9760 N.pl3 189  ARG189     -0.0865
    149  CZ        58.3480   71.1260   -2.6720 C.cat 189  ARG189      0.5346
    150  NH1       57.1880   71.2050   -3.3080 N.pl3 189  ARG189      0.1354
    151  NH2       59.1990   72.1420   -2.7380 N.pl3 189  ARG189      0.1354
    152  N         62.3060   66.5720   -4.0940 N.am  190  SER190     -0.1950
    153  CA        63.7610   66.6570   -4.1280 C.3   190  SER190      0.1924
    154  C         64.3290   67.3990   -2.9190 C.2   190  SER190      0.2314
    155  O         65.4470   67.1190   -2.4860 O.2   190  SER190     -0.2863
    156  CB        64.2190   67.3350   -5.4220 C.3   190  SER190      0.2116
    157  OG        63.9720   66.5130   -6.5470 O.3   190  SER190     -0.2180
    158  N         63.0540   67.2120    0.0490 N.3   192  ALA192     -0.1245
    159  CA        62.7040   66.4000    1.2190 C.3   192  ALA192      0.1562
    160  C         61.6110   66.9570    2.1360 C.2   192  ALA192      0.2260
    161  O         61.3770   66.3990    3.2100 O.2   192  ALA192     -0.2867
    162  CB        63.9670   66.0560    2.0320 C.3   192  ALA192      0.0290
    163  N         55.6260   62.5050    1.8910 N.3   196  ALA196     -0.1231
    164  CA        56.0930   61.7540    0.7340 C.3   196  ALA196      0.1694
    165  C         55.0360   60.7300    0.3430 C.2   196  ALA196      0.2592
    166  O         54.0440   60.5230    1.0600 O.2   196  ALA196     -0.2718
    167  CB        57.4170   61.0550    1.0430 C.3   196  ALA196      0.0304
    168  N         55.2570   60.0780   -0.7930 N.am  197  VAL197     -0.1966
    169  CA        54.2860   59.1580   -1.3600 C.3   197  VAL197      0.1727
    170  C         54.7970   57.7260   -1.2770 C.2   197  VAL197      0.2616
    171  O         55.8770   57.4100   -1.7790 O.2   197  VAL197     -0.2715
    172  CB        53.9960   59.5050   -2.8400 C.3   197  VAL197      0.0290
    173  CG1       53.0180   58.5130   -3.4360 C.3   197  VAL197      0.0023
    174  CG2       53.4720   60.9270   -2.9620 C.3   197  VAL197      0.0023
    175  N         54.0160   56.8710   -0.6290 N.am  198  PHE198     -0.1974
    176  CA        54.3680   55.4650   -0.4710 C.3   198  PHE198      0.1639
    177  C         53.3890   54.6110   -1.2600 C.2   198  PHE198      0.2290
    178  O         52.2160   54.9630   -1.3930 O.2   198  PHE198     -0.2864
    179  CB        54.2820   55.0490    1.0040 C.3   198  PHE198      0.0560
    180  CG        55.4370   55.5170    1.8630 C.ar  198  PHE198     -0.0200
    181  CD1       55.6870   56.8760    2.0590 C.ar  198  PHE198     -0.0042
    182  CD2       56.2490   54.5900    2.5160 C.ar  198  PHE198     -0.0042
    183  CE1       56.7380   57.3020    2.8660 C.ar  198  PHE198     -0.0003
    184  CE2       57.3130   55.0160    3.3210 C.ar  198  PHE198     -0.0003
    185  CZ        57.5460   56.3670    3.5020 C.ar  198  PHE198     -0.0000
@<TRIPOS>BOND
     1    54    53    2
     2    53    52    1
     3    51    52    1
     4    58    60   ar
     5    58    56   ar
     6    52    55    1
     7    60    61   ar
     8    55    56    1
     9    56    57   ar
    10    61    62    1
    11    61    59   ar
    12    63    64    1
    13    17    16    1
    14    57    59   ar
    15    16    15    1
    16    64    65    1
    17    64    67    1
    18    70    68    1
    19    15    14    1
    20    68    67    1
    21    68    69    1
    22    65    66    2
    23     7     5    1
    24    38    37    2
    25    36    37    1
    26    36    39    1
    27    36    35    1
    28     4     3    2
    29     3     2    1
    30    37    45   am
    31    14    13    1
    32    39    40    1
    33    47    48    2
    34    47    46    1
    35    45    46    1
    36     5     2    1
    37     5     6    1
    38     2     1    1
    39    46    49    1
    40    13    10    1
    41     9    10    1
    42    40    42   ar
    43    40    41   ar
    44     6     8    1
    45    10    11    1
    46    42    44   ar
    47    41    43   ar
    48    49    50    1
    49   136   135    1
    50   157   156    1
    51   135   133   ar
    52   135   134   ar
    53   133   131   ar
    54    11    12    2
    55    11    18   am
    56   134   132   ar
    57   131   130   ar
    58   101   100    1
    59    44    43   ar
    60   132   130   ar
    61   130   129    1
    62    50    34    1
    63   129   126    1
    64   156   153    1
    65   124   123    1
    66    18    19    1
    67    34    33    1
    68   100    99    1
    69   140   139    2
    70    26    28   ar
    71    26    24   ar
    72   153   152    1
    73   153   154    1
    74   122   121    2
    75    19    20    1
    76    19    22    1
    77   152   143   am
    78   126   125    1
    79   126   127    1
    80    28    27   ar
    81    24    23   ar
    82   123   120    1
    83    21    20    2
    84   121   125   am
    85   121   120    1
    86   111   110    1
    87    99    98    1
    88    20    29   am
    89    33    30    1
    90   173   172    1
    91   120   119    1
    92    27    25   ar
    93   110   107    1
    94   137   127   am
    95   137   138    1
    96    23    25   ar
    97    23    22    1
    98   150   149    1
    99   139   141   am
   100   139   138    1
   101    98    97    1
   102   142   143    1
   103   142   141    1
   104   142   145    1
   105   127   128    2
   106    29    30    1
   107   143   144    2
   108   174   172    1
   109   154   155    2
   110   172   169    1
   111   151   149    1
   112   146   145    1
   113   146   147    1
   114   149   148    2
   115    30    31    1
   116    97    94    1
   117   115   114    2
   118   148   147    1
   119   119   114   am
   120   107   108    1
   121   107   106    1
   122   171   170    2
   123    94    95    1
   124    94    93    1
   125   102   103    1
   126   102    95   am
   127   108   109    2
   128   114   113    1
   129   178   177    2
   130    31    32    2
   131   169   170    1
   132   169   168    1
   133   170   175   am
   134   177   176    1
   135   103   104    1
   136    95    96    2
   137    92    90   ar
   138    92    91   ar
   139   168   165   am
   140    93    84   am
   141    90    88   ar
   142   175   176    1
   143   176   179    1
   144    91    89   ar
   145   104   105    2
   146   117   116    1
   147   158   159    1
   148   113   112    1
   149   113   116    1
   150    85    84    2
   151    84    83    1
   152    88    87   ar
   153   165   164    1
   154   165   166    2
   155   116   118    1
   156    89    87   ar
   157   164   167    1
   158   164   163    1
   159    87    86    1
   160   179   180    1
   161    83    86    1
   162    83    82    1
   163   159   162    1
   164   159   160    1
   165   180   181   ar
   166   180   182   ar
   167   181   183   ar
   168   160   161    2
   169    82    79   am
   170    80    79    2
   171   182   184   ar
   172    79    78    1
   173   183   185   ar
   174   184   185   ar
   175    81    78    1
   176    76    75    1
   177    78    77    1
   178    77    73   am
   179    75    72    1
   180    73    74    2
   181    73    72    1
   182    72    71    1
