@<TRIPOS>MOLECULE
tmp/4k6bB01.pdb
 92 91 0 0 0
SMALL
GASTEIGER

@<TRIPOS>ATOM
      1  N         65.5040   -8.4460   29.0800 N.3    97  SER97      -0.1202
      2  CA        64.4940   -8.9460   29.9960 C.3    97  SER97       0.2020
      3  C         63.2530   -9.3440   29.2090 C.2    97  SER97       0.2618
      4  O         62.6860  -10.4150   29.4310 O.2    97  SER97      -0.2717
      5  CB        64.1650   -7.8760   31.0240 C.3    97  SER97       0.2103
      6  OG        63.2970   -8.3580   32.0180 O.3    97  SER97      -0.2182
      7  N         62.8460   -8.4650   28.3000 N.am   98  VAL98      -0.1979
      8  CA        61.9200   -8.7920   27.2330 C.3    98  VAL98       0.1595
      9  C         62.7100   -8.5710   25.9410 C.2    98  VAL98       0.2287
     10  O         63.1590   -7.4530   25.6840 O.2    98  VAL98      -0.2864
     11  CB        60.6850   -7.8650   27.2490 C.3    98  VAL98       0.0276
     12  CG1       59.7550   -8.1620   26.0790 C.3    98  VAL98       0.0022
     13  CG2       59.9280   -7.9820   28.5660 C.3    98  VAL98       0.0022
     14  N         63.6400   -7.7700   22.1270 N.3   100  ASP100     -0.1239
     15  CA        63.0510   -6.9260   21.1040 C.3   100  ASP100      0.1674
     16  C         63.4050   -7.4570   19.7230 C.2   100  ASP100      0.2266
     17  O         64.5610   -7.7930   19.4730 O.2   100  ASP100     -0.2867
     18  CB        63.5970   -5.4970   21.1980 C.3   100  ASP100      0.1410
     19  CG        63.1100   -4.7170   22.4000 C.2   100  ASP100      0.3668
     20  OD1       62.2880   -5.2040   23.1890 O.co2 100  ASP100     -0.2456
     21  OD2       63.5650   -3.5460   22.5090 O.co2 100  ASP100     -0.2456
     22  N         65.8420    2.3060   20.1930 N.3   120  PHE120     -0.1227
     23  CA        66.5300    2.7360   21.3950 C.3   120  PHE120      0.1736
     24  C         66.3080    1.7200   22.4910 C.2   120  PHE120      0.2595
     25  O         65.3770    0.9130   22.4320 O.2   120  PHE120     -0.2718
     26  CB        66.0810    4.1370   21.8230 C.3   120  PHE120      0.0547
     27  CG        64.6680    4.2270   22.3660 C.ar  120  PHE120     -0.0202
     28  CD1       63.6120    4.5320   21.5310 C.ar  120  PHE120     -0.0042
     29  CD2       64.4010    4.0590   23.7090 C.ar  120  PHE120     -0.0042
     30  CE1       62.3310    4.6510   22.0140 C.ar  120  PHE120     -0.0003
     31  CE2       63.1110    4.1760   24.2030 C.ar  120  PHE120     -0.0003
     32  CZ        62.0750    4.4790   23.3550 C.ar  120  PHE120     -0.0000
     33  N         67.1730    1.7940   23.4980 N.am  121  PHE121     -0.1962
     34  CA        67.1180    0.9460   24.6840 C.3   121  PHE121      0.1771
     35  C         67.2490    1.8230   25.9060 C.2   121  PHE121      0.2620
     36  O         68.2350    2.5200   26.0840 O.2   121  PHE121     -0.2715
     37  CB        68.2140   -0.1130   24.6570 C.3   121  PHE121      0.0574
     38  CG        68.0910   -1.0250   23.4870 C.ar  121  PHE121     -0.0200
     39  CD1       67.2400   -2.1020   23.5240 C.ar  121  PHE121     -0.0042
     40  CD2       68.7840   -0.7580   22.3240 C.ar  121  PHE121     -0.0042
     41  CE1       67.0960   -2.9090   22.4140 C.ar  121  PHE121     -0.0003
     42  CE2       68.6440   -1.5610   21.2190 C.ar  121  PHE121     -0.0003
     43  CZ        67.8000   -2.6290   21.2620 C.ar  121  PHE121     -0.0000
     44  N         66.2370    1.7750   26.7540 N.am  122  SER122     -0.1936
     45  CA        66.1850    2.6450   27.9180 C.3   122  SER122      0.2055
     46  C         66.9570    2.0070   29.0760 C.2   122  SER122      0.2643
     47  O         66.3770    1.4590   30.0200 O.2   122  SER122     -0.2714
     48  CB        64.7410    2.9170   28.2970 C.3   122  SER122      0.2130
     49  OG        64.7130    3.9310   29.2750 O.3   122  SER122     -0.2179
     50  N         68.2760    2.0980   28.9890 N.am  123  VAL123     -0.1963
     51  CA        69.1710    1.4540   29.9400 C.3   123  VAL123      0.1727
     52  C         68.9230    1.9920   31.3470 C.2   123  VAL123      0.2616
     53  O         68.9130    3.2090   31.5630 O.2   123  VAL123     -0.2715
     54  CB        70.6370    1.7010   29.5620 C.3   123  VAL123      0.0290
     55  CG1       71.5810    1.1390   30.6320 C.3   123  VAL123      0.0023
     56  CG2       70.9390    1.0960   28.1990 C.3   123  VAL123      0.0023
     57  N         68.7580    1.0690   32.2930 N.am  124  ASP124     -0.1971
     58  CA        68.6920    1.3790   33.7160 C.3   124  ASP124      0.1709
     59  C         69.9840    0.9960   34.4060 C.2   124  ASP124      0.2293
     60  O         70.5590   -0.0540   34.1310 O.2   124  ASP124     -0.2864
     61  CB        67.5750    0.6040   34.3920 C.3   124  ASP124      0.1436
     62  CG        66.2040    0.9990   33.9050 C.2   124  ASP124      0.3671
     63  OD1       65.9670    2.2000   33.6650 O.co2 124  ASP124     -0.2456
     64  OD2       65.3600    0.0870   33.7950 O.co2 124  ASP124     -0.2456
     65  N         70.5090   -2.5630   35.6990 N.3   127  GLY127     -0.1210
     66  CA        69.4420   -3.3150   35.0740 C.3   127  GLY127      0.1956
     67  C         69.9520   -4.4390   34.2010 C.2   127  GLY127      0.2612
     68  O         71.1320   -4.7980   34.2100 O.2   127  GLY127     -0.2717
     69  N         69.0440   -5.0090   33.4250 N.am  128  PHE128     -0.1962
     70  CA        69.3620   -6.2120   32.6770 C.3   128  PHE128      0.1771
     71  C         70.4730   -5.9620   31.6520 C.2   128  PHE128      0.2619
     72  O         71.4640   -6.7000   31.6060 O.2   128  PHE128     -0.2715
     73  CB        68.1160   -6.7620   31.9920 C.3   128  PHE128      0.0574
     74  CG        68.3370   -8.0950   31.3620 C.ar  128  PHE128     -0.0200
     75  CD1       67.9620   -9.2560   32.0100 C.ar  128  PHE128     -0.0042
     76  CD2       68.9440   -8.1880   30.1320 C.ar  128  PHE128     -0.0042
     77  CE1       68.1780  -10.4920   31.4230 C.ar  128  PHE128     -0.0003
     78  CE2       69.1710   -9.4230   29.5470 C.ar  128  PHE128     -0.0003
     79  CZ        68.7790  -10.5650   30.1910 C.ar  128  PHE128     -0.0000
     80  N         70.3180   -4.9370   30.8180 N.am  129  LEU129     -0.1963
     81  CA        71.3350   -4.6420   29.8270 C.3   129  LEU129      0.1728
     82  C         72.6870   -4.3170   30.4520 C.2   129  LEU129      0.2616
     83  O         73.7320   -4.7640   29.9630 O.2   129  LEU129     -0.2715
     84  CB        70.8950   -3.4800   28.9460 C.3   129  LEU129      0.0311
     85  CG        69.8940   -3.8220   27.8540 C.3   129  LEU129      0.0022
     86  CD1       69.3950   -2.5610   27.1930 C.3   129  LEU129      0.0001
     87  CD2       70.5530   -4.7220   26.8280 C.3   129  LEU129      0.0001
     88  N         72.6750   -3.5180   31.5110 N.am  130  ALA130     -0.1977
     89  CA        73.9130   -3.1240   32.1570 C.3   130  ALA130      0.1597
     90  C         74.6510   -4.3220   32.7570 C.2   130  ALA130      0.2287
     91  O         75.8750   -4.3330   32.8290 O.2   130  ALA130     -0.2864
     92  CB        73.6220   -2.0980   33.2310 C.3   130  ALA130      0.0319
@<TRIPOS>BOND
     1    17    16    2
     2    16    15    1
     3    22    23    1
     4    15    18    1
     5    15    14    1
     6    18    19    1
     7    42    43   ar
     8    42    40   ar
     9    43    41   ar
    10    23    26    1
    11    23    24    1
    12    28    30   ar
    13    28    27   ar
    14    26    27    1
    15    30    32   ar
    16    40    38   ar
    17    27    29   ar
    18    19    21   ar
    19    19    20   ar
    20    41    39   ar
    21    25    24    2
    22    24    33   am
    23    32    31   ar
    24    38    39   ar
    25    38    37    1
    26    33    34    1
    27    29    31   ar
    28    37    34    1
    29    34    35    1
    30    10     9    2
    31    35    36    2
    32    35    44   am
    33     9     8    1
    34    12    11    1
    35    44    45    1
    36    87    85    1
    37    86    85    1
    38     8    11    1
    39     8     7    1
    40    11    13    1
    41    85    84    1
    42    45    48    1
    43    45    46    1
    44    56    54    1
    45    48    49    1
    46     7     3   am
    47    84    81    1
    48    50    46   am
    49    50    51    1
    50    46    47    2
    51     1     2    1
    52     3     4    2
    53     3     2    1
    54    78    76   ar
    55    78    79   ar
    56    54    51    1
    57    54    55    1
    58    81    82    1
    59    81    80    1
    60    51    52    1
    61    83    82    2
    62     2     5    1
    63    76    74   ar
    64    79    77   ar
    65    82    88   am
    66    80    71   am
    67     5     6    1
    68    52    53    2
    69    52    57   am
    70    74    73    1
    71    74    75   ar
    72    77    75   ar
    73    88    89    1
    74    72    71    2
    75    71    70    1
    76    73    70    1
    77    89    90    1
    78    89    92    1
    79    57    58    1
    80    70    69    1
    81    90    91    2
    82    69    67   am
    83    63    62   ar
    84    58    61    1
    85    58    59    1
    86    64    62   ar
    87    62    61    1
    88    60    59    2
    89    67    68    2
    90    67    66    1
    91    66    65    1
