@<TRIPOS>MOLECULE
tmp/4k6fB00.pdb
 115 110 0 0 0
SMALL
GASTEIGER

@<TRIPOS>ATOM
      1  N        -34.1350   -4.4310    7.9520 N.3     8  GLY8       -0.1225
      2  CA       -35.0610   -5.5500    8.2190 C.3     8  GLY8        0.1811
      3  C        -36.2670   -5.1040    9.0260 C.2     8  GLY8        0.2280
      4  O        -36.7920   -5.8720    9.8430 O.2     8  GLY8       -0.2866
      5  N        -39.4270   -4.5180    8.4680 N.3    10  MET10      -0.1230
      6  CA       -40.8170   -4.8660    8.1370 C.3    10  MET10       0.1702
      7  C        -41.3630   -6.1770    8.6850 C.2    10  MET10       0.2592
      8  O        -42.5580   -6.4300    8.5630 O.2    10  MET10      -0.2718
      9  CB       -40.9940   -4.9200    6.6220 C.3    10  MET10       0.0401
     10  CG       -40.8920   -3.5780    5.9370 C.3    10  MET10       0.0596
     11  SD       -41.5540   -3.6970    4.2740 S.3    10  MET10      -0.1393
     12  CE       -41.2490   -2.0390    3.6630 C.3    10  MET10       0.0692
     13  N        -40.5100   -7.0360    9.2210 N.am   11  GLY11      -0.1957
     14  CA       -40.9840   -8.3180    9.7740 C.3    11  GLY11       0.1869
     15  C        -40.3680   -8.5770   11.1320 C.2    11  GLY11       0.2309
     16  O        -39.4690   -7.8570   11.5240 O.2    11  GLY11      -0.2863
     17  N        -35.7630   -0.3870    6.0080 N.3    31  THR31      -0.1203
     18  CA       -35.3020   -0.9730    4.7590 C.3    31  THR31       0.1994
     19  C        -35.9350   -2.3450    4.5810 C.2    31  THR31       0.2618
     20  O        -36.3150   -3.0190    5.5610 O.2    31  THR31      -0.2717
     21  CB       -33.7660   -1.0940    4.6490 C.3    31  THR31       0.1784
     22  OG1      -33.2820   -2.1200    5.5220 O.3    31  THR31      -0.2211
     23  CG2      -33.0860    0.2370    4.9450 C.3    31  THR31       0.0376
     24  N        -36.0650   -2.7290    3.3170 N.am   32  TYR32      -0.1961
     25  CA       -36.5260   -4.0610    2.9440 C.3    32  TYR32       0.1771
     26  C        -35.6490   -4.5990    1.8230 C.2    32  TYR32       0.2620
     27  O        -35.1080   -3.8340    1.0300 O.2    32  TYR32      -0.2715
     28  CB       -37.9980   -4.0520    2.5300 C.3    32  TYR32       0.0574
     29  CG       -38.3420   -3.1950    1.3390 C.ar   32  TYR32      -0.0198
     30  CD1      -38.3680   -3.7370    0.0450 C.ar   32  TYR32      -0.0009
     31  CD2      -38.6870   -1.8600    1.4990 C.ar   32  TYR32      -0.0009
     32  CE1      -38.6950   -2.9630   -1.0490 C.ar   32  TYR32       0.0417
     33  CE2      -39.0290   -1.0760    0.4140 C.ar   32  TYR32       0.0417
     34  CZ       -39.0320   -1.6280   -0.8600 C.ar   32  TYR32       0.1957
     35  OH       -39.3750   -0.8510   -1.9410 O.3    32  TYR32      -0.2866
     36  N        -35.4930   -5.9190    1.7850 N.am   33  SER33      -0.1936
     37  CA       -34.6740   -6.5650    0.7690 C.3    33  SER33       0.2040
     38  C        -35.2760   -6.3740   -0.6280 C.2    33  SER33       0.2485
     39  O        -36.5060   -6.3070   -0.7710 O.2    33  SER33      -0.2729
     40  CB       -34.5450   -8.0480    1.0790 C.3    33  SER33       0.2129
     41  OG       -35.8080   -8.6870    0.9780 O.3    33  SER33      -0.2179
     42  N        -34.4150   -6.3230   -1.6660 N.am   34  PRO34      -0.2726
     43  CA       -34.8800   -5.8400   -2.9660 C.3    34  PRO34       0.1402
     44  C        -36.0130   -6.6450   -3.5830 C.2    34  PRO34       0.2269
     45  O        -36.7810   -6.0980   -4.3540 O.2    34  PRO34      -0.2865
     46  CB       -33.6160   -5.8980   -3.8380 C.3    34  PRO34       0.0296
     47  CG       -32.4830   -5.8450   -2.8660 C.3    34  PRO34       0.0237
     48  CD       -32.9770   -6.6580   -1.7060 C.3    34  PRO34       0.0939
     49  N        -38.4300   -8.1920   -1.8060 N.3    36  ASN36      -0.1240
     50  CA       -39.5710   -8.2370   -0.9140 C.3    36  ASN36       0.1653
     51  C        -40.7500   -7.5910   -1.6270 C.2    36  ASN36       0.2266
     52  O        -40.7230   -6.3890   -1.9250 O.2    36  ASN36      -0.2867
     53  CB       -39.2620   -7.5130    0.3940 C.3    36  ASN36       0.1155
     54  CG       -40.3850   -7.6260    1.4030 C.2    36  ASN36       0.2627
     55  OD1      -41.5370   -7.8710    1.0490 O.2    36  ASN36      -0.2716
     56  ND2      -40.0530   -7.4460    2.6710 N.am   36  ASN36      -0.0877
     57  N        -33.0170   -2.1290   -0.0720 N.3    58  VAL58      -0.1231
     58  CA       -31.5550   -2.1790   -0.0030 C.3    58  VAL58       0.1692
     59  C        -31.1180   -3.6320    0.0350 C.2    58  VAL58       0.2592
     60  O        -31.8430   -4.4900    0.5140 O.2    58  VAL58      -0.2718
     61  CB       -31.0200   -1.4250    1.2360 C.3    58  VAL58       0.0266
     62  CG1      -31.2620   -2.2330    2.5020 C.3    58  VAL58       0.0020
     63  CG2      -29.5400   -1.0890    1.0810 C.3    58  VAL58       0.0020
     64  N        -29.9440   -3.9000   -0.5110 N.am   59  ASP59      -0.1960
     65  CA       -29.2450   -5.1520   -0.2630 C.3    59  ASP59       0.1840
     66  C        -28.1360   -4.8250    0.7290 C.2    59  ASP59       0.2622
     67  O        -27.1120   -4.2330    0.3540 O.2    59  ASP59      -0.2715
     68  CB       -28.6570   -5.6990   -1.5730 C.3    59  ASP59       0.1450
     69  CG       -27.8120   -6.9520   -1.3710 C.2    59  ASP59       0.3671
     70  OD1      -27.7520   -7.4800   -0.2330 O.co2  59  ASP59      -0.2456
     71  OD2      -27.2090   -7.4060   -2.3630 O.co2  59  ASP59      -0.2456
     72  N        -28.3250   -5.2130    1.9920 N.am   60  VAL60      -0.1963
     73  CA       -27.3380   -4.8380    3.0060 C.3    60  VAL60       0.1727
     74  C        -25.9720   -5.4840    2.7930 C.2    60  VAL60       0.2616
     75  O        -24.9920   -4.9950    3.3210 O.2    60  VAL60      -0.2715
     76  CB       -27.8150   -5.0450    4.4700 C.3    60  VAL60       0.0290
     77  CG1      -29.0640   -4.2240    4.7520 C.3    60  VAL60       0.0023
     78  CG2      -28.0430   -6.5150    4.8020 C.3    60  VAL60       0.0023
     79  N        -25.8960   -6.5460    1.9910 N.am   61  ALA61      -0.1977
     80  CA       -24.6010   -7.1480    1.6650 C.3    61  ALA61       0.1597
     81  C        -23.8040   -6.3520    0.6110 C.2    61  ALA61       0.2287
     82  O        -22.6170   -6.6080    0.4030 O.2    61  ALA61      -0.2864
     83  CB       -24.8010   -8.5940    1.2250 C.3    61  ALA61       0.0319
     84  N        -30.3110   -4.4920   12.1280 N.3    86  ASN86      -0.1225
     85  CA       -31.1200   -5.6440   12.5060 C.3    86  ASN86       0.1785
     86  C        -31.1970   -6.7190   11.4460 C.2    86  ASN86       0.2597
     87  O        -31.4310   -7.8960   11.7710 O.2    86  ASN86      -0.2718
     88  CB       -32.5350   -5.1630   12.9080 C.3    86  ASN86       0.1169
     89  CG       -33.5270   -6.3000   13.0510 C.2    86  ASN86       0.2627
     90  OD1      -33.4860   -7.0300   14.0290 O.2    86  ASN86      -0.2716
     91  ND2      -34.3890   -6.4830   12.0420 N.am   86  ASN86      -0.0877
     92  N        -30.9930   -6.3390   10.1890 N.am   87  ALA87      -0.1966
     93  CA       -31.0200   -7.3230    9.1060 C.3    87  ALA87       0.1728
     94  C        -29.9930   -8.4350    9.3470 C.2    87  ALA87       0.2617
     95  O        -28.8700   -8.1750    9.7720 O.2    87  ALA87      -0.2715
     96  CB       -30.7550   -6.6560    7.7680 C.3    87  ALA87       0.0334
     97  N        -30.4010   -9.6660    9.0630 N.am   88  GLY88      -0.1940
     98  CA       -29.5550  -10.8300    9.1990 C.3    88  GLY88       0.2014
     99  C        -30.2810  -12.0970    8.7640 C.2    88  GLY88       0.2638
    100  O        -31.5170  -12.1440    8.7440 O.2    88  GLY88      -0.2714
    101  N        -29.5070  -13.1300    8.4470 N.am   89  ILE89      -0.1977
    102  CA       -30.0470  -14.4290    8.0530 C.3    89  ILE89       0.1596
    103  C        -29.3280  -15.5470    8.7940 C.2    89  ILE89       0.2287
    104  O        -28.2470  -15.3450    9.3890 O.2    89  ILE89      -0.2864
    105  CB       -29.9330  -14.6740    6.5150 C.3    89  ILE89       0.0276
    106  CG1      -28.4620  -14.7260    6.0610 C.3    89  ILE89       0.0022
    107  CG2      -30.6860  -13.5930    5.7270 C.3    89  ILE89       0.0022
    108  CD1      -28.2420  -15.0290    4.5900 C.3    89  ILE89       0.0001
    109  N        -24.0410  -10.9850    4.7230 N.3   109  THR109     -0.1218
    110  CA       -25.3280  -10.4150    5.0830 C.3   109  THR109      0.1862
    111  C        -25.3760   -9.9070    6.5180 C.2   109  THR109      0.2287
    112  O        -26.0450   -8.9030    6.8080 O.2   109  THR109     -0.2866
    113  CB       -26.4660  -11.4300    4.8670 C.3   109  THR109      0.1770
    114  OG1      -26.4410  -11.8470    3.5140 O.3   109  THR109     -0.2211
    115  CG2      -27.8260  -10.8100    5.1090 C.3   109  THR109      0.0375
@<TRIPOS>BOND
     1    45    44    2
     2    46    43    1
     3    46    47    1
     4    44    43    1
     5    43    42    1
     6    47    48    1
     7    71    69   ar
     8    35    34    1
     9    52    51    2
    10    49    50    1
    11    48    42    1
    12    42    38   am
    13    51    50    1
    14    68    69    1
    15    68    65    1
    16    69    70   ar
    17    32    34   ar
    18    32    30   ar
    19    50    53    1
    20    34    33   ar
    21    39    38    2
    22    38    37    1
    23    64    65    1
    24    64    59   am
    25    65    66    1
    26    57    58    1
    27    58    59    1
    28    58    61    1
    29    59    60    2
    30    30    29   ar
    31    67    66    2
    32    53    54    1
    33    82    81    2
    34    33    31   ar
    35    81    80    1
    36    66    72   am
    37    37    40    1
    38    37    36    1
    39    41    40    1
    40    27    26    2
    41    55    54    2
    42    63    61    1
    43    83    80    1
    44    61    62    1
    45    29    31   ar
    46    29    28    1
    47    54    56   am
    48    80    79    1
    49    36    26   am
    50    26    25    1
    51    79    74   am
    52    72    73    1
    53    28    25    1
    54    74    73    1
    55    74    75    2
    56    25    24    1
    57    73    76    1
    58    24    19   am
    59   114   113    1
    60    12    11    1
    61    11    10    1
    62    76    77    1
    63    76    78    1
    64    19    18    1
    65    19    20    2
    66   108   106    1
    67    21    18    1
    68    21    23    1
    69    21    22    1
    70   109   110    1
    71    18    17    1
    72   113   110    1
    73   113   115    1
    74   110   111    1
    75   107   105    1
    76    10     9    1
    77   106   105    1
    78   105   102    1
    79   111   112    2
    80     9     6    1
    81    96    93    1
    82     1     2    1
    83   102   101    1
    84   102   103    1
    85     6     5    1
    86     6     7    1
    87     2     3    1
    88   101    99   am
    89     8     7    2
    90     7    13   am
    91   100    99    2
    92    99    98    1
    93   103   104    2
    94     3     4    2
    95    97    98    1
    96    97    94   am
    97    93    94    1
    98    93    92    1
    99    13    14    1
   100    94    95    2
   101    14    15    1
   102    92    86   am
   103    15    16    2
   104    86    87    2
   105    86    85    1
   106    91    89   am
   107    84    85    1
   108    85    88    1
   109    88    89    1
   110    89    90    2
