@<TRIPOS>MOLECULE
tmp/4k6mB00.pdb
 175 170 0 0 0
SMALL
GASTEIGER

@<TRIPOS>ATOM
      1  N        -22.8080  -32.9000   66.1620 N.3    52  SER52      -0.1217
      2  CA       -21.4670  -32.3590   65.9840 C.3    52  SER52       0.1889
      3  C        -21.1740  -31.3200   67.0420 C.2    52  SER52       0.2288
      4  O        -22.0080  -31.0610   67.9010 O.2    52  SER52      -0.2866
      5  CB       -21.3220  -31.7340   64.6040 C.3    52  SER52       0.2089
      6  OG       -22.0440  -30.5200   64.5230 O.3    52  SER52      -0.2183
      7  N        -20.9490  -28.3060   66.2780 N.3    54  GLY54      -0.1225
      8  CA       -21.5150  -27.0980   65.7250 C.3    54  GLY54       0.1811
      9  C        -22.6410  -26.5440   66.5730 C.2    54  GLY54       0.2280
     10  O        -22.8350  -25.3240   66.6490 O.2    54  GLY54      -0.2866
     11  N        -29.7580  -23.0980   55.9800 N.3    75  ASP75      -0.1239
     12  CA       -28.4400  -23.5080   56.4570 C.3    75  ASP75       0.1674
     13  C        -27.6360  -24.0490   55.2740 C.2    75  ASP75       0.2266
     14  O        -27.8770  -25.1600   54.8000 O.2    75  ASP75      -0.2867
     15  CB       -28.6300  -24.5870   57.5290 C.3    75  ASP75       0.1410
     16  CG       -27.3220  -24.9950   58.2270 C.2    75  ASP75       0.3668
     17  OD1      -26.2070  -24.6530   57.7520 O.co2  75  ASP75      -0.2456
     18  OD2      -27.4150  -25.6960   59.2620 O.co2  75  ASP75      -0.2456
     19  N        -24.4840  -25.6160   53.5240 N.3    77  GLY77      -0.1210
     20  CA       -23.4180  -26.5070   53.9590 C.3    77  GLY77       0.1956
     21  C        -23.6870  -26.9940   55.3700 C.2    77  GLY77       0.2612
     22  O        -22.8510  -26.8130   56.2560 O.2    77  GLY77      -0.2717
     23  N        -24.8560  -27.6060   55.5800 N.am   78  CYS78      -0.1956
     24  CA       -25.2570  -28.0380   56.9190 C.3    78  CYS78       0.1843
     25  C        -24.4780  -29.2530   57.4610 C.2    78  CYS78       0.2626
     26  O        -24.4440  -29.4880   58.6730 O.2    78  CYS78      -0.2714
     27  CB       -26.7600  -28.3010   56.9720 C.3    78  CYS78       0.0997
     28  SG       -27.3530  -29.6750   55.9150 S.3    78  CYS78      -0.0797
     29  N        -23.8420  -30.0150   56.5790 N.am   79  GLY79      -0.1940
     30  CA       -23.1280  -31.1990   57.0190 C.3    79  GLY79       0.2014
     31  C        -24.0590  -32.2000   57.6940 C.2    79  GLY79       0.2639
     32  O        -25.1030  -32.5570   57.1500 O.2    79  GLY79      -0.2714
     33  N        -23.6830  -32.6530   58.8860 N.am   80  ARG80      -0.1963
     34  CA       -24.5290  -33.5600   59.6470 C.3    80  ARG80       0.1729
     35  C        -25.8110  -32.8830   60.1070 C.2    80  ARG80       0.2617
     36  O        -26.7950  -33.5650   60.3710 O.2    80  ARG80      -0.2715
     37  CB       -23.7920  -34.1030   60.8720 C.3    80  ARG80       0.0348
     38  CG       -22.5620  -34.9410   60.5770 C.3    80  ARG80       0.0492
     39  CD       -21.9140  -35.3180   61.8870 C.3    80  ARG80       0.2205
     40  NE       -20.5910  -35.9120   61.7430 N.pl3  80  ARG80      -0.0865
     41  CZ       -19.6950  -35.9700   62.7260 C.cat  80  ARG80       0.5346
     42  NH1      -19.9820  -35.4600   63.9170 N.pl3  80  ARG80       0.1354
     43  NH2      -18.5090  -36.5320   62.5130 N.pl3  80  ARG80       0.1354
     44  N        -25.7850  -31.5570   60.2400 N.am   81  GLY81      -0.1940
     45  CA       -26.9620  -30.8090   60.6530 C.3    81  GLY81       0.2014
     46  C        -26.9030  -30.1720   62.0310 C.2    81  GLY81       0.2639
     47  O        -27.9260  -29.7510   62.5700 O.2    81  GLY81      -0.2714
     48  N        -25.7070  -30.0870   62.6020 N.am   82  GLY82      -0.1939
     49  CA       -25.5360  -29.5160   63.9250 C.3    82  GLY82       0.2014
     50  C        -26.2430  -28.1840   64.1490 C.2    82  GLY82       0.2638
     51  O        -26.9910  -28.0380   65.1130 O.2    82  GLY82      -0.2714
     52  N        -26.0120  -27.2140   63.2700 N.am   83  TRP83      -0.1973
     53  CA       -26.6650  -25.9100   63.4040 C.3    83  TRP83       0.1640
     54  C        -28.1750  -25.9950   63.1800 C.2    83  TRP83       0.2290
     55  O        -28.9530  -25.3160   63.8560 O.2    83  TRP83      -0.2864
     56  CB       -26.0830  -24.9070   62.4230 C.3    83  TRP83       0.0576
     57  CG       -24.6850  -24.5410   62.6940 C.ar   83  TRP83       0.0006
     58  CD1      -23.6560  -25.3760   62.9550 C.ar   83  TRP83       0.0946
     59  CD2      -24.1490  -23.2350   62.7030 C.ar   83  TRP83       0.0152
     60  NE1      -22.4990  -24.6680   63.1410 N.ar   83  TRP83      -0.2442
     61  CE2      -22.7760  -23.3420   62.9930 C.ar   83  TRP83       0.0810
     62  CE3      -24.7050  -21.9700   62.5240 C.ar   83  TRP83       0.0012
     63  CZ2      -21.9370  -22.2510   63.0860 C.ar   83  TRP83       0.0191
     64  CZ3      -23.8850  -20.8770   62.6300 C.ar   83  TRP83       0.0001
     65  CH2      -22.4950  -21.0260   62.9050 C.ar   83  TRP83       0.0015
     66  N        -26.4640  -29.5310   51.7120 N.3   100  THR100     -0.1203
     67  CA       -25.0770  -29.9110   51.8620 C.3   100  THR100      0.1994
     68  C        -24.6250  -30.8220   50.7240 C.2   100  THR100      0.2618
     69  O        -25.4450  -31.4470   50.0500 O.2   100  THR100     -0.2717
     70  CB       -24.8120  -30.5130   53.2570 C.3   100  THR100      0.1784
     71  OG1      -23.4420  -30.3110   53.6270 O.3   100  THR100     -0.2211
     72  CG2      -25.1470  -31.9910   53.2980 C.3   100  THR100      0.0376
     73  N        -23.3200  -30.8590   50.4940 N.am  101  LYS101     -0.1965
     74  CA       -22.7550  -31.5660   49.3610 C.3   101  LYS101      0.1728
     75  C        -22.9520  -33.0760   49.5230 C.2   101  LYS101      0.2616
     76  O        -23.4590  -33.7520   48.6250 O.2   101  LYS101     -0.2715
     77  CB       -21.2670  -31.2210   49.2170 C.3   101  LYS101      0.0311
     78  CG       -20.5920  -31.8210   47.9890 C.3   101  LYS101      0.0038
     79  CD       -21.3460  -31.4560   46.6990 C.3   101  LYS101      0.0206
     80  CE       -20.7770  -32.1940   45.4680 C.3   101  LYS101      0.1093
     81  NZ       -21.8380  -32.4370   44.4280 N.3   101  LYS101     -0.1314
     82  N        -22.5640  -33.5860   50.6850 N.am  102  GLY102     -0.1955
     83  CA       -22.6350  -35.0040   50.9540 C.3   102  GLY102      0.1869
     84  C        -21.6830  -35.7330   50.0360 C.2   102  GLY102      0.2309
     85  O        -20.8160  -35.1100   49.4370 O.2   102  GLY102     -0.2863
     86  N        -17.4220  -36.3160   52.2650 N.3   106  HIS106     -0.1226
     87  CA       -18.1590  -35.2590   52.9540 C.3   106  HIS106      0.1752
     88  C        -19.1980  -35.7880   53.9260 C.2   106  HIS106      0.2595
     89  O        -19.7660  -36.8440   53.6940 O.2   106  HIS106     -0.2718
     90  CB       -18.7550  -34.2790   51.9420 C.3   106  HIS106      0.0759
     91  CG       -17.7210  -33.6560   51.0490 C.ar  106  HIS106      0.0818
     92  ND1      -16.6370  -32.9570   51.5420 N.ar  106  HIS106     -0.2268
     93  CD2      -17.5900  -33.6550   49.7010 C.ar  106  HIS106      0.1154
     94  CE1      -15.8910  -32.5430   50.5340 C.ar  106  HIS106      0.1986
     95  NE2      -16.4480  -32.9500   49.4060 N.ar  106  HIS106     -0.2212
     96  N        -19.4270  -35.0760   55.0260 N.am  107  GLU107     -0.1979
     97  CA       -20.3690  -35.5770   56.0120 C.3   107  GLU107      0.1602
     98  C        -21.7890  -35.4740   55.4530 C.2   107  GLU107      0.2287
     99  O        -22.1370  -34.4970   54.8030 O.2   107  GLU107     -0.2864
    100  CB       -20.1940  -34.9250   57.4090 C.3   107  GLU107      0.0415
    101  CG       -19.0930  -35.5890   58.3700 C.3   107  GLU107      0.1163
    102  CD       -19.1370  -37.1760   58.4950 C.2   107  GLU107      0.3649
    103  OE1      -19.8740  -37.7490   59.3530 O.co2 107  GLU107     -0.2457
    104  OE2      -18.4000  -37.8620   57.7370 O.co2 107  GLU107     -0.2457
    105  N        -26.2630  -31.5830   47.1470 N.3   126  VAL126     -0.1231
    106  CA       -26.3680  -30.2120   46.6390 C.3   126  VAL126      0.1692
    107  C        -25.0570  -29.4270   46.6980 C.2   126  VAL126      0.2592
    108  O        -24.4760  -29.2930   47.7700 O.2   126  VAL126     -0.2718
    109  CB       -27.3400  -29.4050   47.4950 C.3   126  VAL126      0.0266
    110  CG1      -27.4390  -27.9810   46.9640 C.3   126  VAL126      0.0020
    111  CG2      -28.6810  -30.0820   47.5680 C.3   126  VAL126      0.0020
    112  N        -24.6060  -28.8860   45.5690 N.am  127  ASP127     -0.1960
    113  CA       -23.5010  -27.9110   45.5710 C.3   127  ASP127      0.1840
    114  C        -24.1270  -26.5080   45.6190 C.2   127  ASP127      0.2622
    115  O        -24.7360  -26.0520   44.6410 O.2   127  ASP127     -0.2715
    116  CB       -22.6200  -28.0940   44.3270 C.3   127  ASP127      0.1450
    117  CG       -21.4430  -27.1120   44.2670 C.2   127  ASP127      0.3671
    118  OD1      -21.4170  -26.1220   45.0340 O.co2 127  ASP127     -0.2456
    119  OD2      -20.5370  -27.3250   43.4290 O.co2 127  ASP127     -0.2456
    120  N        -23.9890  -25.8320   46.7580 N.am  128  VAL128     -0.1963
    121  CA       -24.7310  -24.5920   46.9760 C.3   128  VAL128      0.1727
    122  C        -24.2180  -23.4320   46.1320 C.2   128  VAL128      0.2616
    123  O        -24.9280  -22.4470   45.9520 O.2   128  VAL128     -0.2715
    124  CB       -24.7800  -24.1640   48.4520 C.3   128  VAL128      0.0290
    125  CG1      -25.0750  -25.3490   49.3500 C.3   128  VAL128      0.0023
    126  CG2      -23.4860  -23.5200   48.8340 C.3   128  VAL128      0.0023
    127  N        -23.0040  -23.5420   45.6000 N.am  129  PHE129     -0.1974
    128  CA       -22.5130  -22.5020   44.6990 C.3   129  PHE129      0.1639
    129  C        -23.3660  -22.3620   43.4380 C.2   129  PHE129      0.2290
    130  O        -23.3770  -21.3130   42.7910 O.2   129  PHE129     -0.2864
    131  CB       -21.0440  -22.7100   44.3560 C.3   129  PHE129      0.0560
    132  CG       -20.1360  -22.5350   45.5310 C.ar  129  PHE129     -0.0200
    133  CD1      -20.1220  -21.3350   46.2340 C.ar  129  PHE129     -0.0042
    134  CD2      -19.3030  -23.5640   45.9510 C.ar  129  PHE129     -0.0042
    135  CE1      -19.2860  -21.1690   47.3330 C.ar  129  PHE129     -0.0003
    136  CE2      -18.4700  -23.4060   47.0490 C.ar  129  PHE129     -0.0003
    137  CZ       -18.4630  -22.2110   47.7400 C.ar  129  PHE129     -0.0000
    138  N        -21.7020  -22.4040   56.6630 N.3   142  ASP142     -0.1225
    139  CA       -20.5400  -22.9060   57.3950 C.3   142  ASP142      0.1805
    140  C        -19.5000  -23.5110   56.4620 C.2   142  ASP142      0.2598
    141  O        -18.6420  -24.2630   56.8990 O.2   142  ASP142     -0.2718
    142  CB       -20.9590  -23.9310   58.4630 C.3   142  ASP142      0.1424
    143  CG       -19.9770  -23.9970   59.6360 C.2   142  ASP142      0.3668
    144  OD1      -19.1900  -23.0460   59.8060 O.co2 142  ASP142     -0.2456
    145  OD2      -19.9900  -24.9830   60.4040 O.co2 142  ASP142     -0.2456
    146  N        -19.5830  -23.1710   55.1820 N.am  143  ILE143     -0.1966
    147  CA       -18.6410  -23.6530   54.1790 C.3   143  ILE143      0.1727
    148  C        -17.2700  -22.9680   54.3070 C.2   143  ILE143      0.2617
    149  O        -17.1750  -21.8260   54.7300 O.2   143  ILE143     -0.2715
    150  CB       -19.2160  -23.4390   52.7770 C.3   143  ILE143      0.0290
    151  CG1      -20.5930  -24.0920   52.6940 C.3   143  ILE143      0.0022
    152  CG2      -18.3000  -24.0020   51.7070 C.3   143  ILE143      0.0023
    153  CD1      -21.2700  -23.8770   51.3920 C.3   143  ILE143      0.0001
    154  N        -16.2030  -23.6840   53.9690 N.am  144  GLY144     -0.1940
    155  CA       -14.8660  -23.1350   54.0310 C.3   144  GLY144      0.2014
    156  C        -13.8190  -24.2040   54.2330 C.2   144  GLY144      0.2638
    157  O        -13.4700  -24.5250   55.3730 O.2   144  GLY144     -0.2714
    158  N        -13.2930  -24.7510   53.1390 N.am  145  GLU145     -0.1977
    159  CA       -12.3470  -25.8550   53.2640 C.3   145  GLU145      0.1602
    160  C        -10.8960  -25.4030   53.4100 C.2   145  GLU145      0.2287
    161  O        -10.3490  -24.7150   52.5390 O.2   145  GLU145     -0.2864
    162  CB       -12.4480  -26.8090   52.0850 C.3   145  GLU145      0.0415
    163  CG       -11.5790  -28.0450   52.2890 C.3   145  GLU145      0.1163
    164  CD       -11.3780  -28.8430   51.0080 C.2   145  GLU145      0.3649
    165  OE1      -11.8780  -28.4070   49.9390 O.co2 145  GLU145     -0.2457
    166  OE2      -10.7150  -29.9050   51.0730 O.co2 145  GLU145     -0.2457
    167  N        -19.6520  -18.3320   58.0490 N.3   178  LYS178     -0.1245
    168  CA       -18.2540  -18.6150   58.3160 C.3   178  LYS178      0.1561
    169  C        -17.3390  -17.8560   57.3670 C.2   178  LYS178      0.2260
    170  O        -17.6030  -17.7760   56.1780 O.2   178  LYS178     -0.2867
    171  CB       -17.9850  -20.1060   58.1880 C.3   178  LYS178      0.0271
    172  CG       -16.5730  -20.5290   58.5530 C.3   178  LYS178      0.0035
    173  CD       -16.4130  -21.9710   58.1710 C.3   178  LYS178      0.0206
    174  CE       -15.0210  -22.4810   58.3850 C.3   178  LYS178      0.1093
    175  NZ       -14.9640  -23.8080   57.7380 N.3   178  LYS178     -0.1314
@<TRIPOS>BOND
     1   130   129    2
     2   119   117   ar
     3   129   128    1
     4   117   116    1
     5   117   118   ar
     6   116   113    1
     7   131   128    1
     8   131   132    1
     9    81    80    1
    10   115   114    2
    11   128   127    1
    12    80    79    1
    13   132   134   ar
    14   132   133   ar
    15   112   113    1
    16   112   107   am
    17   113   114    1
    18   127   122   am
    19   114   120   am
    20   134   136   ar
    21   123   122    2
    22   122   121    1
    23   133   135   ar
    24   106   107    1
    25   106   105    1
    26   106   109    1
    27   107   108    2
    28    79    78    1
    29   120   121    1
    30   110   109    1
    31   121   124    1
    32   136   137   ar
    33   135   137   ar
    34   109   111    1
    35    78    77    1
    36   124   126    1
    37   124   125    1
    38    76    75    2
    39    77    74    1
    40    74    75    1
    41    74    73    1
    42    95    93   ar
    43    95    94   ar
    44    85    84    2
    45    75    82   am
    46    93    91   ar
    47   165   164   ar
    48    84    83    1
    49    69    68    2
    50    73    68   am
    51    94    92   ar
    52    82    83    1
    53    68    67    1
    54   164   166   ar
    55   164   163    1
    56    91    92   ar
    57    91    90    1
    58   153   151    1
    59   152   150    1
    60    66    67    1
    61    67    70    1
    62    90    87    1
    63   162   163    1
    64   162   159    1
    65    86    87    1
    66   161   160    2
    67   151   150    1
    68   150   147    1
    69    87    88    1
    70   158   159    1
    71   158   156   am
    72    70    72    1
    73    70    71    1
    74   159   160    1
    75    19    20    1
    76    89    88    2
    77    88    96   am
    78    20    21    1
    79   154   155    1
    80   154   148   am
    81   155   156    1
    82   147   148    1
    83   147   146    1
    84   156   157    2
    85   148   149    2
    86    14    13    2
    87    99    98    2
    88    96    97    1
    89   146   140   am
    90    13    12    1
    91    21    23   am
    92    21    22    2
    93    98    97    1
    94    23    24    1
    95    28    27    1
    96    11    12    1
    97    97   100    1
    98   170   169    2
    99    12    15    1
   100   140   141    2
   101   140   139    1
   102    29    30    1
   103    29    25   am
   104   138   139    1
   105    24    27    1
   106    24    25    1
   107    30    31    1
   108    32    31    2
   109   169   168    1
   110   139   142    1
   111   100   101    1
   112    25    26    2
   113    15    16    1
   114    31    33   am
   115   104   102   ar
   116   175   174    1
   117    17    16   ar
   118   167   168    1
   119   173   174    1
   120   173   172    1
   121   171   168    1
   122   171   172    1
   123    16    18   ar
   124   101   102    1
   125   142   143    1
   126   102   103   ar
   127    33    34    1
   128   143   144   ar
   129   143   145   ar
   130    34    35    1
   131    34    37    1
   132    35    44   am
   133    35    36    2
   134    44    45    1
   135    38    37    1
   136    38    39    1
   137    45    46    1
   138    40    39    1
   139    40    41    2
   140    46    47    2
   141    46    48   am
   142    56    57    1
   143    56    53    1
   144    43    41    1
   145    62    64   ar
   146    62    59   ar
   147    48    49    1
   148    64    65   ar
   149    57    59   ar
   150    57    58   ar
   151    59    61   ar
   152    41    42    1
   153    65    63   ar
   154    58    60   ar
   155    61    63   ar
   156    61    60   ar
   157    54    53    1
   158    54    55    2
   159    52    53    1
   160    52    50   am
   161    49    50    1
   162    50    51    2
   163     6     5    1
   164     5     2    1
   165     8     7    1
   166     8     9    1
   167     2     1    1
   168     2     3    1
   169     9    10    2
   170     3     4    2
