@<TRIPOS>MOLECULE
tmp/4k6nA00.pdb
 169 161 0 0 0
SMALL
GASTEIGER

@<TRIPOS>ATOM
      1  N        -15.3830   23.5570  -23.1600 N.3     8  THR8       -0.1218
      2  CA       -15.4580   23.5930  -21.6920 C.3     8  THR8        0.1862
      3  C        -16.9000   23.8220  -21.2530 C.2     8  THR8        0.2287
      4  O        -17.5810   24.7110  -21.7900 O.2     8  THR8       -0.2866
      5  CB       -14.5560   24.6970  -21.0730 C.3     8  THR8        0.1770
      6  OG1      -14.9430   25.9840  -21.5920 O.3     8  THR8       -0.2211
      7  CG2      -13.0770   24.4640  -21.4300 C.3     8  THR8        0.0375
      8  N        -22.4800   21.7570  -27.4160 N.3   103  GLN103     -0.1245
      9  CA       -21.0260   21.6490  -27.4300 C.3   103  GLN103      0.1566
     10  C        -20.6050   20.6460  -28.5010 C.2   103  GLN103      0.2260
     11  O        -19.6240   20.8610  -29.2100 O.2   103  GLN103     -0.2867
     12  CB       -20.4780   21.1750  -26.0720 C.3   103  GLN103      0.0367
     13  CG       -20.5980   22.2170  -24.9500 C.3   103  GLN103      0.0905
     14  CD       -19.5010   23.2570  -24.9880 C.2   103  GLN103      0.2608
     15  OE1      -18.4930   23.1000  -25.6850 O.2   103  GLN103     -0.2717
     16  NE2      -19.6660   24.3090  -24.2000 N.am  103  GLN103     -0.0878
     17  N        -20.8830   22.1380  -32.0370 N.3   106  ARG106     -0.1245
     18  CA       -19.8520   23.1200  -32.3240 C.3   106  ARG106      0.1563
     19  C        -18.4970   22.4440  -32.5340 C.2   106  ARG106      0.2260
     20  O        -17.7640   22.7900  -33.4510 O.2   106  ARG106     -0.2867
     21  CB       -19.7620   24.1830  -31.2000 C.3   106  ARG106      0.0307
     22  CG       -18.6130   25.1590  -31.4230 C.3   106  ARG106      0.0489
     23  CD       -18.5720   26.2220  -30.3340 C.3   106  ARG106      0.2205
     24  NE       -18.1220   25.6670  -29.0600 N.pl3 106  ARG106     -0.0865
     25  CZ       -18.1210   26.3510  -27.9190 C.cat 106  ARG106      0.5346
     26  NH1      -18.5770   27.5870  -27.9030 N.pl3 106  ARG106      0.1354
     27  NH2      -17.7000   25.7770  -26.7910 N.pl3 106  ARG106      0.1354
     28  N        -13.4420   27.7980  -30.7320 N.3   229  LYS229     -0.1245
     29  CA       -12.7970   27.6870  -29.4570 C.3   229  LYS229      0.1561
     30  C        -11.6940   26.6580  -29.5700 C.2   229  LYS229      0.2260
     31  O        -11.9260   25.5600  -29.8800 O.2   229  LYS229     -0.2867
     32  CB       -13.7960   27.2610  -28.3800 C.3   229  LYS229      0.0271
     33  CG       -13.3250   27.4250  -26.9440 C.3   229  LYS229      0.0035
     34  CD       -14.4610   27.3240  -25.9410 C.3   229  LYS229      0.0206
     35  CE       -14.1310   27.9120  -24.5960 C.3   229  LYS229      0.1093
     36  NZ       -14.4520   29.3410  -24.4340 N.3   229  LYS229     -0.1314
     37  N         -4.7130   30.8860  -28.1920 N.3   233  ARG233     -0.1245
     38  CA        -5.4090   31.9760  -27.5190 C.3   233  ARG233      0.1563
     39  C         -4.5220   33.1550  -27.1720 C.2   233  ARG233      0.2260
     40  O         -4.8690   33.9360  -26.2750 O.2   233  ARG233     -0.2867
     41  CB        -6.1220   31.4340  -26.2580 C.3   233  ARG233      0.0307
     42  CG        -7.3500   30.5850  -26.5910 C.3   233  ARG233      0.0489
     43  CD        -8.0300   30.0200  -25.3420 C.3   233  ARG233      0.2205
     44  NE        -8.4350   31.0980  -24.4170 N.pl3 233  ARG233     -0.0865
     45  CZ        -9.6190   31.7080  -24.4230 C.cat 233  ARG233      0.5346
     46  NH1      -10.5390   31.3790  -25.3220 N.pl3 233  ARG233      0.1354
     47  NH2       -9.8750   32.6650  -23.5310 N.pl3 233  ARG233      0.1354
     48  N         -6.3580   36.4640  -26.8580 N.3   236  TYR236     -0.1241
     49  CA        -7.1630   36.6470  -25.6360 C.3   236  TYR236      0.1605
     50  C         -6.2660   36.8140  -24.4120 C.2   236  TYR236      0.2264
     51  O         -6.6070   37.5490  -23.4740 O.2   236  TYR236     -0.2867
     52  CB        -8.0930   35.4660  -25.4040 C.3   236  TYR236      0.0534
     53  CG        -9.1280   35.2120  -26.5040 C.ar  236  TYR236     -0.0201
     54  CD1      -10.0210   36.2080  -26.9080 C.ar  236  TYR236     -0.0009
     55  CD2       -9.2330   33.9540  -27.1040 C.ar  236  TYR236     -0.0009
     56  CE1      -10.9960   35.9520  -27.8860 C.ar  236  TYR236      0.0417
     57  CE2      -10.1990   33.6940  -28.0870 C.ar  236  TYR236      0.0417
     58  CZ       -11.0660   34.7020  -28.4710 C.ar  236  TYR236      0.1957
     59  OH       -12.0380   34.4650  -29.4140 O.3   236  TYR236     -0.2866
     60  N        -16.9120   40.3790  -28.0890 N.3   275  GLU275     -0.1231
     61  CA       -17.0650   39.4540  -26.9730 C.3   275  GLU275      0.1699
     62  C        -16.0740   39.8590  -25.8750 C.2   275  GLU275      0.2593
     63  O        -15.3760   40.8710  -26.0050 O.2   275  GLU275     -0.2718
     64  CB       -16.7890   38.0050  -27.4430 C.3   275  GLU275      0.0402
     65  CG       -15.3450   37.8050  -27.8790 C.3   275  GLU275      0.1161
     66  CD       -15.0670   36.4640  -28.5610 C.2   275  GLU275      0.3649
     67  OE1      -15.8070   35.4870  -28.3300 O.co2 275  GLU275     -0.2457
     68  OE2      -14.0600   36.3950  -29.3000 O.co2 275  GLU275     -0.2457
     69  N        -16.0610   39.0890  -24.7900 N.am  276  GLY276     -0.1942
     70  CA       -15.0370   39.1940  -23.7460 C.3   276  GLY276      0.2014
     71  C        -13.9750   38.1200  -23.9290 C.2   276  GLY276      0.2640
     72  O        -14.0990   37.2160  -24.7930 O.2   276  GLY276     -0.2714
     73  N        -12.9150   38.1910  -23.1200 N.am  277  SER277     -0.1935
     74  CA       -11.8410   37.1860  -23.2080 C.3   277  SER277      0.2055
     75  C        -12.2910   35.7390  -22.9440 C.2   277  SER277      0.2643
     76  O        -11.7390   34.8170  -23.5200 O.2   277  SER277     -0.2714
     77  CB       -10.6830   37.5530  -22.2570 C.3   277  SER277      0.2130
     78  OG       -11.0540   37.3290  -20.9030 O.3   277  SER277     -0.2179
     79  N        -13.2740   35.5470  -22.0660 N.am  278  ILE278     -0.1963
     80  CA       -13.7620   34.2130  -21.7050 C.3   278  ILE278      0.1727
     81  C        -15.3070   34.1370  -21.7120 C.2   278  ILE278      0.2617
     82  O        -15.9020   33.2000  -21.1600 O.2   278  ILE278     -0.2715
     83  CB       -13.2040   33.7220  -20.3360 C.3   278  ILE278      0.0290
     84  CG1      -13.6550   34.6480  -19.1820 C.3   278  ILE278      0.0022
     85  CG2      -11.6880   33.5440  -20.4000 C.3   278  ILE278      0.0023
     86  CD1      -13.4970   34.0390  -17.7660 C.3   278  ILE278      0.0001
     87  N        -15.9650   35.1220  -22.3380 N.am  279  THR279     -0.1937
     88  CA       -17.4300   35.1470  -22.3100 C.3   279  THR279      0.2028
     89  C        -17.9390   35.7530  -23.6160 C.2   279  THR279      0.2642
     90  O        -17.2080   36.4950  -24.2820 O.2   279  THR279     -0.2714
     91  CB       -17.9810   36.0760  -21.1790 C.3   279  THR279      0.1808
     92  OG1      -17.3400   37.3510  -21.2710 O.3   279  THR279     -0.2208
     93  CG2      -17.7590   35.4740  -19.7750 C.3   279  THR279      0.0379
     94  N        -19.1880   35.4460  -23.9650 N.am  280  ASN280     -0.1971
     95  CA       -19.9240   36.2870  -24.9130 C.3   280  ASN280      0.1688
     96  C        -20.6670   37.3730  -24.1160 C.2   280  ASN280      0.2292
     97  O        -20.8410   37.2390  -22.9090 O.2   280  ASN280     -0.2864
     98  CB       -20.8930   35.4580  -25.7490 C.3   280  ASN280      0.1181
     99  CG       -20.1770   34.5820  -26.7870 C.2   280  ASN280      0.2629
    100  OD1      -20.1510   33.3570  -26.6560 O.2   280  ASN280     -0.2716
    101  ND2      -19.6050   35.2140  -27.8250 N.am  280  ASN280     -0.0877
    102  N        -16.7310   34.2620  -30.7760 N.3   304  LEU304     -0.1245
    103  CA       -16.9870   32.8200  -30.6350 C.3   304  LEU304      0.1561
    104  C        -18.4950   32.5210  -30.6910 C.2   304  LEU304      0.2260
    105  O        -19.2970   33.2490  -30.0780 O.2   304  LEU304     -0.2867
    106  CB       -16.4000   32.2760  -29.3330 C.3   304  LEU304      0.0270
    107  CG       -16.7090   30.7810  -29.0850 C.3   304  LEU304      0.0019
    108  CD1      -16.0550   29.9070  -30.1470 C.3   304  LEU304      0.0001
    109  CD2      -16.2580   30.3660  -27.6830 C.3   304  LEU304      0.0001
    110  N        -20.5850   30.9850  -28.9600 N.3   306  GLY306     -0.1210
    111  CA       -20.6860   30.4050  -27.6020 C.3   306  GLY306      0.1956
    112  C        -21.9360   29.5710  -27.4650 C.2   306  GLY306      0.2613
    113  O        -22.9630   29.8860  -28.0740 O.2   306  GLY306     -0.2717
    114  N        -21.8440   28.4930  -26.6810 N.am  307  THR307     -0.1938
    115  CA       -22.9980   27.6480  -26.4260 C.3   307  THR307      0.2028
    116  C        -23.9970   28.3460  -25.5100 C.2   307  THR307      0.2642
    117  O        -25.1940   28.2070  -25.7140 O.2   307  THR307     -0.2714
    118  CB       -22.6340   26.2690  -25.8250 C.3   307  THR307      0.1808
    119  OG1      -21.8720   26.4480  -24.6250 O.3   307  THR307     -0.2208
    120  CG2      -21.8520   25.4320  -26.8220 C.3   307  THR307      0.0379
    121  N        -23.5120   29.1180  -24.5330 N.am  308  MET308     -0.1962
    122  CA       -24.4210   29.8370  -23.6480 C.3   308  MET308      0.1736
    123  C        -25.1270   30.9450  -24.4360 C.2   308  MET308      0.2616
    124  O        -26.3460   31.1700  -24.2700 O.2   308  MET308     -0.2715
    125  CB       -23.6900   30.4140  -22.4190 C.3   308  MET308      0.0427
    126  CG       -24.6300   30.9410  -21.3450 C.3   308  MET308      0.0599
    127  SD       -25.7480   29.7140  -20.6400 S.3   308  MET308     -0.1393
    128  CE       -26.8640   30.7970  -19.7090 C.3   308  MET308      0.0692
    129  N        -24.3820   31.6060  -25.3070 N.am  309  ARG309     -0.1977
    130  CA       -24.9780   32.5740  -26.2490 C.3   309  ARG309      0.1597
    131  C        -26.1020   31.8990  -27.0690 C.2   309  ARG309      0.2287
    132  O        -27.1870   32.4470  -27.2340 O.2   309  ARG309     -0.2864
    133  CB       -23.8580   33.0960  -27.1820 C.3   309  ARG309      0.0334
    134  CG       -24.3040   34.0150  -28.3290 C.3   309  ARG309      0.0492
    135  CD       -23.1760   34.1040  -29.3820 C.3   309  ARG309      0.2205
    136  NE       -23.5440   35.0540  -30.4330 N.pl3 309  ARG309     -0.0865
    137  CZ       -24.2600   34.7400  -31.5100 C.cat 309  ARG309      0.5346
    138  NH1      -24.6140   33.4750  -31.7350 N.pl3 309  ARG309      0.1354
    139  NH2      -24.5820   35.6890  -32.3810 N.pl3 309  ARG309      0.1354
    140  N        -21.5080   35.8270  -20.4130 N.3   337  PHE337     -0.1227
    141  CA       -21.9500   34.4380  -20.3440 C.3   337  PHE337      0.1736
    142  C        -20.9790   33.4430  -20.9710 C.2   337  PHE337      0.2595
    143  O        -20.3060   33.7440  -21.9550 O.2   337  PHE337     -0.2718
    144  CB       -23.4090   34.2420  -20.9040 C.3   337  PHE337      0.0547
    145  CG       -23.7900   35.1840  -22.0410 C.ar  337  PHE337     -0.0202
    146  CD1      -23.6730   34.7680  -23.3870 C.ar  337  PHE337     -0.0042
    147  CD2      -24.3110   36.4570  -21.7740 C.ar  337  PHE337     -0.0042
    148  CE1      -24.0330   35.6150  -24.4350 C.ar  337  PHE337     -0.0003
    149  CE2      -24.6930   37.3120  -22.8250 C.ar  337  PHE337     -0.0003
    150  CZ       -24.5490   36.8900  -24.1490 C.ar  337  PHE337     -0.0000
    151  N        -20.9200   32.2610  -20.3580 N.am  338  ASN338     -0.1960
    152  CA       -20.2280   31.1000  -20.9100 C.3   338  ASN338      0.1819
    153  C        -20.9070   29.8310  -20.3780 C.2   338  ASN338      0.2622
    154  O        -21.8290   29.9270  -19.5590 O.2   338  ASN338     -0.2715
    155  CB       -18.6780   31.1520  -20.6550 C.3   338  ASN338      0.1195
    156  CG       -18.2940   31.0390  -19.1790 C.2   338  ASN338      0.2630
    157  OD1      -18.8760   30.2730  -18.4180 O.2   338  ASN338     -0.2716
    158  ND2      -17.2830   31.8070  -18.7730 N.am  338  ASN338     -0.0877
    159  N        -20.4770   28.6760  -20.8710 N.am  339  GLY339     -0.1940
    160  CA       -21.1250   27.4030  -20.5850 C.3   339  GLY339      0.2014
    161  C        -20.6740   26.7660  -19.2860 C.2   339  GLY339      0.2638
    162  O        -21.0450   25.6240  -18.9990 O.2   339  GLY339     -0.2714
    163  N        -19.8690   27.4940  -18.5070 N.am  340  VAL340     -0.1977
    164  CA       -19.3910   26.9960  -17.2170 C.3   340  VAL340      0.1596
    165  C        -20.1470   27.6850  -16.0830 C.2   340  VAL340      0.2287
    166  O        -20.7250   27.0190  -15.2030 O.2   340  VAL340     -0.2864
    167  CB       -17.8610   27.1740  -17.1040 C.3   340  VAL340      0.0276
    168  CG1      -17.3730   26.7810  -15.7130 C.3   340  VAL340      0.0022
    169  CG2      -17.1580   26.3210  -18.1700 C.3   340  VAL340      0.0022
@<TRIPOS>BOND
     1    20    19    2
     2    19    18    1
     3   139   137    1
     4    18    17    1
     5    18    21    1
     6   138   137    1
     7   137   136    2
     8    22    21    1
     9    22    23    1
    10   102   103    1
    11    28    29    1
    12   104   103    1
    13   104   105    2
    14   103   106    1
    15   136   135    1
    16    23    24    1
    17   108   107    1
    18    31    30    2
    19    30    29    1
    20    29    32    1
    21    59    58    1
    22   135   134    1
    23   106   107    1
    24    68    66   ar
    25    11    10    2
    26   107   109    1
    27    24    25    2
    28   110   111    1
    29    66    67   ar
    30    66    65    1
    31    10     9    1
    32    58    57   ar
    33    58    56   ar
    34    32    33    1
    35   134   133    1
    36    37    38    1
    37    60    61    1
    38    57    55   ar
    39   113   112    2
    40    25    26    1
    41    25    27    1
    42    56    54   ar
    43    65    64    1
    44   101    99   am
    45   111   112    1
    46    38    39    1
    47    38    41    1
    48   112   114   am
    49    64    61    1
    50     9     8    1
    51     9    12    1
    52   132   131    2
    53   133   130    1
    54    39    40    2
    55    55    53   ar
    56   131   130    1
    57    61    62    1
    58    33    34    1
    59    54    53   ar
    60    48    49    1
    61   120   118    1
    62    99   100    2
    63    99    98    1
    64   114   115    1
    65    42    41    1
    66    42    43    1
    67    53    52    1
    68   115   118    1
    69   115   116    1
    70   130   129    1
    71    12    13    1
    72    63    62    2
    73    34    35    1
    74    62    69   am
    75   118   119    1
    76    98    95    1
    77   117   116    2
    78    15    14    2
    79    49    52    1
    80    49    50    1
    81   116   121   am
    82    43    44    1
    83    46    45    1
    84   129   123   am
    85    14    13    1
    86    14    16   am
    87    95    96    1
    88    95    94    1
    89    72    71    2
    90    69    70    1
    91    35    36    1
    92   121   122    1
    93   123   124    2
    94   123   122    1
    95   148   150   ar
    96   148   146   ar
    97    45    44    2
    98    45    47    1
    99    50    51    2
   100    90    89    2
   101   150   149   ar
   102    96    97    2
   103    94    89   am
   104    71    70    1
   105    71    73   am
   106   122   125    1
   107    89    88    1
   108    76    75    2
   109   146   145   ar
   110    74    73    1
   111    74    75    1
   112    74    77    1
   113     1     2    1
   114    75    79   am
   115   149   147   ar
   116   125   126    1
   117    87    88    1
   118    87    81   am
   119    88    91    1
   120    77    78    1
   121    79    80    1
   122   145   147   ar
   123   145   144    1
   124   143   142    2
   125     4     3    2
   126    81    80    1
   127    81    82    2
   128    80    83    1
   129     2     3    1
   130     2     5    1
   131     6     5    1
   132     7     5    1
   133   126   127    1
   134    92    91    1
   135    91    93    1
   136   142   151   am
   137   142   141    1
   138   152   155    1
   139   152   153    1
   140   152   151    1
   141   144   141    1
   142   159   160    1
   143   159   153   am
   144   155   156    1
   145   127   128    1
   146   160   161    1
   147   140   141    1
   148    85    83    1
   149   153   154    2
   150    83    84    1
   151   161   162    2
   152   161   163   am
   153    84    86    1
   154   156   158   am
   155   156   157    2
   156   163   164    1
   157   169   167    1
   158   164   167    1
   159   164   165    1
   160   167   168    1
   161   165   166    2
