@<TRIPOS>MOLECULE
tmp/4k6oE00.pdb
 104 99 0 0 0
SMALL
GASTEIGER

@<TRIPOS>ATOM
      1  N         -6.7780   -7.9210  -21.7650 N.3    91  THR91      -0.1203
      2  CA        -7.0190   -9.3260  -21.4940 C.3    91  THR91       0.1994
      3  C         -6.9480   -9.6150  -19.9980 C.2    91  THR91       0.2619
      4  O         -6.3980   -8.8330  -19.2200 O.2    91  THR91      -0.2717
      5  CB        -5.9660  -10.1830  -22.1930 C.3    91  THR91       0.1784
      6  OG1       -4.6690   -9.8360  -21.6930 O.3    91  THR91      -0.2211
      7  CG2       -5.9890   -9.9570  -23.6990 C.3    91  THR91       0.0376
      8  N         -7.4910  -10.7530  -19.5890 N.am   92  THR92      -0.1938
      9  CA        -7.5490  -11.0650  -18.1780 C.3    92  THR92       0.2028
     10  C         -7.5340  -12.5720  -17.9370 C.2    92  THR92       0.2642
     11  O         -7.8110  -13.3670  -18.8420 O.2    92  THR92      -0.2714
     12  CB        -8.8060  -10.4120  -17.5530 C.3    92  THR92       0.1808
     13  OG1       -8.7810  -10.5330  -16.1360 O.3    92  THR92      -0.2208
     14  CG2      -10.0800  -11.0530  -18.0480 C.3    92  THR92       0.0379
     15  N         -7.2030  -12.9470  -16.7050 N.am   93  GLY93      -0.1954
     16  CA        -7.2960  -14.3220  -16.2470 C.3    93  GLY93       0.1869
     17  C         -8.4590  -14.4720  -15.2770 C.2    93  GLY93       0.2309
     18  O         -8.5230  -13.7860  -14.2570 O.2    93  GLY93      -0.2863
     19  N          2.1870   -9.6120  -11.2810 N.3   159  PHE159     -0.1241
     20  CA         1.6180  -10.7240  -12.0200 C.3   159  PHE159      0.1605
     21  C          1.7800  -12.0220  -11.2410 C.2   159  PHE159      0.2264
     22  O          0.9870  -12.9420  -11.3950 O.2   159  PHE159     -0.2867
     23  CB         2.3140  -10.8330  -13.3830 C.3   159  PHE159      0.0534
     24  CG         1.7030  -11.8510  -14.3050 C.ar  159  PHE159     -0.0203
     25  CD1        0.6120  -11.5270  -15.0950 C.ar  159  PHE159     -0.0042
     26  CD2        2.2370  -13.1270  -14.4030 C.ar  159  PHE159     -0.0042
     27  CE1        0.0580  -12.4580  -15.9560 C.ar  159  PHE159     -0.0003
     28  CE2        1.6840  -14.0650  -15.2610 C.ar  159  PHE159     -0.0003
     29  CZ         0.6000  -13.7290  -16.0410 C.ar  159  PHE159     -0.0000
     30  N         -0.8940  -12.4870   -7.4070 N.3   163  GLN163     -0.1245
     31  CA        -1.9230  -13.3390   -8.0040 C.3   163  GLN163      0.1566
     32  C         -1.7470  -14.7860   -7.5200 C.2   163  GLN163      0.2260
     33  O         -2.3030  -15.7300   -8.0900 O.2   163  GLN163     -0.2867
     34  CB        -1.9050  -13.2250   -9.5350 C.3   163  GLN163      0.0367
     35  CG        -1.9630  -11.7810   -9.9760 C.3   163  GLN163      0.0905
     36  CD        -2.2880  -11.5720  -11.4380 C.2   163  GLN163      0.2608
     37  OE1       -2.8460  -12.4470  -12.1090 O.2   163  GLN163     -0.2717
     38  NE2       -1.9570  -10.3840  -11.9420 N.am  163  GLN163     -0.0878
     39  N          0.7320  -16.8850   -7.6780 N.3   165  ARG165     -0.1245
     40  CA         1.4590  -17.8370   -8.5130 C.3   165  ARG165      0.1563
     41  C          2.6810  -18.3570   -7.7590 C.2   165  ARG165      0.2260
     42  O          3.4760  -17.5650   -7.2360 O.2   165  ARG165     -0.2867
     43  CB         1.8980  -17.1740   -9.8270 C.3   165  ARG165      0.0307
     44  CG         0.7730  -16.9820  -10.8250 C.3   165  ARG165      0.0489
     45  CD         1.2730  -16.4380  -12.1680 C.3   165  ARG165      0.2205
     46  NE         0.2620  -16.6440  -13.2010 N.pl3 165  ARG165     -0.0865
     47  CZ        -0.7380  -15.8110  -13.4830 C.cat 165  ARG165      0.5346
     48  NH1       -1.6210  -16.1510  -14.4090 N.pl3 165  ARG165      0.1354
     49  NH2       -0.8630  -14.6550  -12.8480 N.pl3 165  ARG165      0.1354
     50  N         -8.3880  -11.5250  -12.4570 N.3   192  PHE192     -0.1227
     51  CA        -7.2140  -10.7160  -12.1370 C.3   192  PHE192      0.1736
     52  C         -6.7470   -9.9100  -13.3380 C.2   192  PHE192      0.2595
     53  O         -6.7030  -10.4130  -14.4750 O.2   192  PHE192     -0.2718
     54  CB        -6.0170  -11.6020  -11.7740 C.3   192  PHE192      0.0547
     55  CG        -5.9160  -11.9610  -10.3180 C.ar  192  PHE192     -0.0202
     56  CD1       -5.4820  -11.0290   -9.3900 C.ar  192  PHE192     -0.0042
     57  CD2       -6.1810  -13.2440   -9.8840 C.ar  192  PHE192     -0.0042
     58  CE1       -5.3470  -11.3610   -8.0520 C.ar  192  PHE192     -0.0003
     59  CE2       -6.0530  -13.5670   -8.5470 C.ar  192  PHE192     -0.0003
     60  CZ        -5.6430  -12.6240   -7.6380 C.ar  192  PHE192     -0.0000
     61  N         -6.3280   -8.6800  -13.0700 N.am  193  GLU193     -0.1965
     62  CA        -5.5270   -7.9150  -14.0150 C.3   193  GLU193      0.1733
     63  C         -4.7060   -6.9320  -13.1710 C.2   193  GLU193      0.2616
     64  O         -4.6270   -7.0990  -11.9480 O.2   193  GLU193     -0.2715
     65  CB        -6.3850   -7.2910  -15.1280 C.3   193  GLU193      0.0429
     66  CG        -7.5550   -6.4760  -14.6520 C.3   193  GLU193      0.1163
     67  CD        -7.1220   -5.1500  -14.0870 C.2   193  GLU193      0.3649
     68  OE1       -6.7110   -4.2710  -14.8830 O.co2 193  GLU193     -0.2457
     69  OE2       -7.1750   -4.9870  -12.8480 O.co2 193  GLU193     -0.2457
     70  N         -4.1220   -5.9050  -13.7790 N.am  194  MET194     -0.1977
     71  CA        -3.0730   -5.1320  -13.1040 C.3   194  MET194      0.1605
     72  C         -3.2000   -3.6100  -13.2240 C.2   194  MET194      0.2287
     73  O         -2.2860   -2.9070  -12.8030 O.2   194  MET194     -0.2864
     74  CB        -1.6700   -5.5550  -13.5790 C.3   194  MET194      0.0413
     75  CG        -1.3690   -7.0070  -13.3070 C.3   194  MET194      0.0598
     76  SD         0.2660   -7.5570  -13.8460 S.3   194  MET194     -0.1393
     77  CE         1.3170   -6.4260  -12.9360 C.3   194  MET194      0.0692
     78  N         -8.6720  -14.7500  -21.3450 N.3   217  ILE217     -0.1231
     79  CA        -7.7390  -15.5420  -22.1500 C.3   217  ILE217      0.1692
     80  C         -7.2400  -16.8020  -21.4420 C.2   217  ILE217      0.2591
     81  O         -6.8350  -17.7410  -22.1090 O.2   217  ILE217     -0.2718
     82  CB        -6.5650  -14.7150  -22.7220 C.3   217  ILE217      0.0266
     83  CG1       -5.6570  -14.1560  -21.6300 C.3   217  ILE217      0.0019
     84  CG2       -7.1130  -13.6120  -23.6260 C.3   217  ILE217      0.0020
     85  CD1       -4.3160  -13.7200  -22.1670 C.3   217  ILE217      0.0001
     86  N         -7.2790  -16.8160  -20.1120 N.am  218  ILE218     -0.1980
     87  CA        -7.0000  -18.0200  -19.3410 C.3   218  ILE218      0.1595
     88  C         -7.9390  -18.0940  -18.1500 C.2   218  ILE218      0.2287
     89  O         -8.5090  -17.0820  -17.7300 O.2   218  ILE218     -0.2864
     90  CB        -5.5380  -18.0890  -18.8250 C.3   218  ILE218      0.0276
     91  CG1       -5.2790  -17.0250  -17.7560 C.3   218  ILE218      0.0022
     92  CG2       -4.5380  -17.9620  -19.9710 C.3   218  ILE218      0.0022
     93  CD1       -3.9640  -17.1960  -17.0400 C.3   218  ILE218      0.0001
     94  N         -7.5840  -19.6230  -14.2550 N.3   220  ARG220     -0.1245
     95  CA        -6.6200  -20.1520  -13.2820 C.3   220  ARG220      0.1563
     96  C         -7.0400  -21.4700  -12.6420 C.2   220  ARG220      0.2260
     97  O         -6.2490  -22.0880  -11.9270 O.2   220  ARG220     -0.2867
     98  CB        -6.3640  -19.1340  -12.1660 C.3   220  ARG220      0.0307
     99  CG        -5.5380  -17.9210  -12.5780 C.3   220  ARG220      0.0489
    100  CD        -4.0520  -18.2440  -12.7790 C.3   220  ARG220      0.2205
    101  NE        -3.3980  -18.7250  -11.5630 N.pl3 220  ARG220     -0.0865
    102  CZ        -3.0360  -17.9530  -10.5420 C.cat 220  ARG220      0.5346
    103  NH1       -2.4550  -18.4910   -9.4800 N.pl3 220  ARG220      0.1354
    104  NH2       -3.2630  -16.6490  -10.5740 N.pl3 220  ARG220      0.1354
@<TRIPOS>BOND
     1     7     5    1
     2    84    82    1
     3    82    79    1
     4    82    83    1
     5     5     6    1
     6     5     2    1
     7    85    83    1
     8    79    80    1
     9    79    78    1
    10    81    80    2
    11     1     2    1
    12     2     3    1
    13    80    86   am
    14    86    87    1
    15     3     8   am
    16     3     4    2
    17    92    90    1
    18     8     9    1
    19    87    90    1
    20    87    88    1
    21    11    10    2
    22    90    91    1
    23     9    10    1
    24     9    12    1
    25    88    89    2
    26    14    12    1
    27    10    15   am
    28    91    93    1
    29    12    13    1
    30    15    16    1
    31    16    17    1
    32    29    27   ar
    33    29    28   ar
    34    27    25   ar
    35    17    18    2
    36    28    26   ar
    37    65    66    1
    38    65    62    1
    39    25    24   ar
    40    68    67   ar
    41    66    67    1
    42    53    52    2
    43    48    47    1
    44    26    24   ar
    45    24    23    1
    46    94    95    1
    47    67    69   ar
    48    62    63    1
    49    62    61    1
    50    76    75    1
    51    76    77    1
    52    70    63   am
    53    70    71    1
    54    74    75    1
    55    74    71    1
    56    47    46    2
    57    47    49    1
    58    23    20    1
    59    52    61   am
    60    52    51    1
    61    95    96    1
    62    95    98    1
    63    72    71    1
    64    72    73    2
    65    46    45    1
    66    63    64    2
    67   100    99    1
    68   100   101    1
    69    96    97    2
    70    99    98    1
    71    50    51    1
    72    45    44    1
    73    51    54    1
    74    37    36    2
    75    20    19    1
    76    20    21    1
    77    38    36   am
    78    54    55    1
    79   101   102    2
    80    36    35    1
    81    22    21    2
    82    44    43    1
    83   104   102    1
    84   102   103    1
    85    55    57   ar
    86    55    56   ar
    87    35    34    1
    88    57    59   ar
    89    43    40    1
    90    34    31    1
    91    56    58   ar
    92    59    60   ar
    93    40    41    1
    94    40    39    1
    95    33    32    2
    96    58    60   ar
    97    31    32    1
    98    31    30    1
    99    41    42    2
