@<TRIPOS>MOLECULE
tmp/4k6oE01.pdb
 82 77 0 0 0
SMALL
GASTEIGER

@<TRIPOS>ATOM
      1  N         -3.5040   -1.8280  -22.9560 N.3    23  GLY23      -0.1225
      2  CA        -2.2120   -1.9300  -22.3060 C.3    23  GLY23       0.1811
      3  C         -1.0260   -2.0170  -23.2600 C.2    23  GLY23       0.2280
      4  O          0.0000   -1.3550  -23.0600 O.2    23  GLY23      -0.2866
      5  N          0.9510    0.8340  -20.9830 N.3    65  GLY65      -0.1210
      6  CA         1.9470   -0.0170  -20.3630 C.3    65  GLY65       0.1956
      7  C          1.3130   -0.9140  -19.3100 C.2    65  GLY65       0.2611
      8  O          0.1040   -0.8800  -19.0820 O.2    65  GLY65      -0.2717
      9  N          2.1430   -1.7190  -18.6600 N.am   66  ILE66      -0.1979
     10  CA         1.7000   -2.6170  -17.6070 C.3    66  ILE66       0.1595
     11  C          1.7670   -1.9110  -16.2610 C.2    66  ILE66       0.2287
     12  O          2.8040   -1.3320  -15.9030 O.2    66  ILE66      -0.2864
     13  CB         2.5930   -3.8770  -17.5470 C.3    66  ILE66       0.0276
     14  CG1        2.4480   -4.6920  -18.8360 C.3    66  ILE66       0.0022
     15  CG2        2.2430   -4.7230  -16.3280 C.3    66  ILE66       0.0022
     16  CD1        3.4820   -5.7960  -18.9810 C.3    66  ILE66       0.0001
     17  N        -10.9590    1.4300  -20.9350 N.3    88  ARG88      -0.1245
     18  CA        -9.8970    0.4420  -20.8600 C.3    88  ARG88       0.1563
     19  C        -10.3640   -0.8760  -21.4740 C.2    88  ARG88       0.2260
     20  O        -11.4380   -1.3690  -21.1440 O.2    88  ARG88      -0.2867
     21  CB        -9.5260    0.2320  -19.3890 C.3    88  ARG88       0.0307
     22  CG        -8.6870   -0.9880  -19.0940 C.3    88  ARG88       0.0489
     23  CD        -7.3380   -0.8000  -19.6390 C.3    88  ARG88       0.2205
     24  NE        -6.3370   -1.7590  -19.1790 N.pl3  88  ARG88      -0.0865
     25  CZ        -5.0620   -1.6110  -19.4900 C.cat  88  ARG88       0.5346
     26  NH1       -4.1500   -2.4830  -19.0890 N.pl3  88  ARG88       0.1354
     27  NH2       -4.7120   -0.5630  -20.2260 N.pl3  88  ARG88       0.1354
     28  N         -8.5210   -4.7980  -22.2120 N.3    90  GLY90      -0.1210
     29  CA        -7.3370   -5.5700  -21.8760 C.3    90  GLY90       0.1956
     30  C         -7.6770   -6.9900  -21.4790 C.2    90  GLY90       0.2613
     31  O         -8.7250   -7.2490  -20.9190 O.2    90  GLY90      -0.2717
     32  N         -6.7780   -7.9210  -21.7650 N.am   91  THR91      -0.1938
     33  CA        -7.0190   -9.3260  -21.4940 C.3    91  THR91       0.2028
     34  C         -6.9480   -9.6150  -19.9980 C.2    91  THR91       0.2642
     35  O         -6.3980   -8.8330  -19.2200 O.2    91  THR91      -0.2714
     36  CB        -5.9660  -10.1830  -22.1930 C.3    91  THR91       0.1808
     37  OG1       -4.6690   -9.8360  -21.6930 O.3    91  THR91      -0.2208
     38  CG2       -5.9890   -9.9570  -23.6990 C.3    91  THR91       0.0379
     39  N         -7.4910  -10.7530  -19.5890 N.am   92  THR92      -0.1950
     40  CA        -7.5490  -11.0650  -18.1780 C.3    92  THR92       0.1897
     41  C         -7.5340  -12.5720  -17.9370 C.2    92  THR92       0.2313
     42  O         -7.8110  -13.3670  -18.8420 O.2    92  THR92      -0.2863
     43  CB        -8.8060  -10.4120  -17.5530 C.3    92  THR92       0.1794
     44  OG1       -8.7810  -10.5330  -16.1360 O.3    92  THR92      -0.2208
     45  CG2      -10.0800  -11.0530  -18.0480 C.3    92  THR92       0.0378
     46  N          2.1870   -9.6120  -11.2810 N.3   159  PHE159     -0.1241
     47  CA         1.6180  -10.7240  -12.0200 C.3   159  PHE159      0.1605
     48  C          1.7800  -12.0220  -11.2410 C.2   159  PHE159      0.2264
     49  O          0.9870  -12.9420  -11.3950 O.2   159  PHE159     -0.2867
     50  CB         2.3140  -10.8330  -13.3830 C.3   159  PHE159      0.0534
     51  CG         1.7030  -11.8510  -14.3050 C.ar  159  PHE159     -0.0203
     52  CD1        0.6120  -11.5270  -15.0950 C.ar  159  PHE159     -0.0042
     53  CD2        2.2370  -13.1270  -14.4030 C.ar  159  PHE159     -0.0042
     54  CE1        0.0580  -12.4580  -15.9560 C.ar  159  PHE159     -0.0003
     55  CE2        1.6840  -14.0650  -15.2610 C.ar  159  PHE159     -0.0003
     56  CZ         0.6000  -13.7290  -16.0410 C.ar  159  PHE159     -0.0000
     57  N         -6.3280   -8.6800  -13.0700 N.3   193  GLU193     -0.1231
     58  CA        -5.5270   -7.9150  -14.0150 C.3   193  GLU193      0.1699
     59  C         -4.7060   -6.9320  -13.1710 C.2   193  GLU193      0.2592
     60  O         -4.6270   -7.0990  -11.9480 O.2   193  GLU193     -0.2718
     61  CB        -6.3850   -7.2910  -15.1280 C.3   193  GLU193      0.0402
     62  CG        -7.5550   -6.4760  -14.6520 C.3   193  GLU193      0.1161
     63  CD        -7.1220   -5.1500  -14.0870 C.2   193  GLU193      0.3649
     64  OE1       -6.7110   -4.2710  -14.8830 O.co2 193  GLU193     -0.2457
     65  OE2       -7.1750   -4.9870  -12.8480 O.co2 193  GLU193     -0.2457
     66  N         -4.1220   -5.9050  -13.7790 N.am  194  MET194     -0.1965
     67  CA        -3.0730   -5.1320  -13.1040 C.3   194  MET194      0.1736
     68  C         -3.2000   -3.6100  -13.2240 C.2   194  MET194      0.2616
     69  O         -2.2860   -2.9070  -12.8030 O.2   194  MET194     -0.2715
     70  CB        -1.6700   -5.5550  -13.5790 C.3   194  MET194      0.0427
     71  CG        -1.3690   -7.0070  -13.3070 C.3   194  MET194      0.0599
     72  SD         0.2660   -7.5570  -13.8460 S.3   194  MET194     -0.1393
     73  CE         1.3170   -6.4260  -12.9360 C.3   194  MET194      0.0692
     74  N         -4.2870   -3.0890  -13.7930 N.am  195  GLU195     -0.1977
     75  CA        -4.4050   -1.6370  -13.9900 C.3   195  GLU195      0.1602
     76  C         -5.7160   -1.0080  -13.5090 C.2   195  GLU195      0.2287
     77  O         -5.7730    0.2000  -13.3030 O.2   195  GLU195     -0.2864
     78  CB        -4.2170   -1.2910  -15.4730 C.3   195  GLU195      0.0415
     79  CG        -2.8240   -1.6130  -16.0110 C.3   195  GLU195      0.1163
     80  CD        -2.6210   -3.0750  -16.3970 C.2   195  GLU195      0.3649
     81  OE1       -3.6110   -3.7800  -16.6950 O.co2 195  GLU195     -0.2457
     82  OE2       -1.4490   -3.5150  -16.4150 O.co2 195  GLU195     -0.2457
@<TRIPOS>BOND
     1    38    36    1
     2     3     4    2
     3     3     2    1
     4     1     2    1
     5    28    29    1
     6    36    37    1
     7    36    33    1
     8    29    30    1
     9    32    33    1
    10    32    30   am
    11    33    34    1
    12    30    31    2
    13    19    20    2
    14    19    18    1
    15     5     6    1
    16    17    18    1
    17    18    21    1
    18     6     7    1
    19    27    25    1
    20    34    39   am
    21    34    35    2
    22    23    24    1
    23    23    22    1
    24    39    40    1
    25    25    24    2
    26    25    26    1
    27    21    22    1
    28     7     8    2
    29     7     9   am
    30    16    14    1
    31    42    41    2
    32    14    13    1
    33     9    10    1
    34    40    41    1
    35    40    43    1
    36    45    43    1
    37    10    13    1
    38    10    11    1
    39    43    44    1
    40    13    15    1
    41    81    80   ar
    42    82    80   ar
    43    80    79    1
    44    11    12    2
    45    56    54   ar
    46    56    55   ar
    47    79    78    1
    48    54    52   ar
    49    78    75    1
    50    55    53   ar
    51    61    62    1
    52    61    58    1
    53    52    51   ar
    54    64    63   ar
    55    62    63    1
    56    53    51   ar
    57    51    50    1
    58    63    65   ar
    59    58    59    1
    60    58    57    1
    61    75    74    1
    62    75    76    1
    63    72    71    1
    64    72    73    1
    65    74    68   am
    66    66    59   am
    67    66    67    1
    68    70    71    1
    69    70    67    1
    70    76    77    2
    71    50    47    1
    72    68    67    1
    73    68    69    2
    74    59    60    2
    75    47    46    1
    76    47    48    1
    77    49    48    2
