@<TRIPOS>MOLECULE
tmp/4k6rA00.pdb
 162 155 0 0 0
SMALL
GASTEIGER

@<TRIPOS>ATOM
      1  N         12.5020   29.3540  -13.6270 N.3     7  LEU7       -0.1245
      2  CA        11.2670   30.1700  -13.5310 C.3     7  LEU7        0.1561
      3  C         10.4290   29.6120  -12.4220 C.2     7  LEU7        0.2260
      4  O          9.9270   28.4700  -12.5030 O.2     7  LEU7       -0.2867
      5  CB        10.5150   30.1430  -14.8530 C.3     7  LEU7        0.0270
      6  CG        11.4190   30.3180  -16.0880 C.3     7  LEU7        0.0019
      7  CD1       10.5940   30.3220  -17.3750 C.3     7  LEU7        0.0001
      8  CD2       12.2260   31.6520  -15.9170 C.3     7  LEU7        0.0001
      9  N          7.9460   31.8560  -10.5730 N.3     9  ALA9       -0.1231
     10  CA         7.2580   33.1050  -10.1850 C.3     9  ALA9        0.1694
     11  C          5.7630   32.9060  -10.2060 C.2     9  ALA9        0.2593
     12  O          5.0230   33.8070   -9.7620 O.2     9  ALA9       -0.2718
     13  CB         7.6020   34.1780  -11.1720 C.3     9  ALA9        0.0304
     14  N          5.2980   31.7450  -10.6780 N.am   10  GLY10      -0.1943
     15  CA         3.8350   31.5330  -10.8160 C.3    10  GLY10       0.1998
     16  C          3.1330   31.3410   -9.4910 C.2    10  GLY10       0.2481
     17  O          3.7040   30.7840   -8.5740 O.2    10  GLY10      -0.2729
     18  N          1.8370   31.7330   -9.3890 N.am   11  PRO11      -0.2715
     19  CA         1.1540   31.4940   -8.1150 C.3    11  PRO11       0.1536
     20  C          0.8080   29.9850   -7.8530 C.2    11  PRO11       0.2599
     21  O          0.4850   29.6290   -6.7100 O.2    11  PRO11      -0.2715
     22  CB        -0.1960   32.2320   -8.2730 C.3    11  PRO11       0.0310
     23  CG        -0.0500   33.0930   -9.4890 C.3    11  PRO11       0.0237
     24  CD         0.9750   32.3700  -10.3960 C.3    11  PRO11       0.0939
     25  N          0.8120   29.1460   -8.8680 N.am   12  GLY12      -0.1941
     26  CA         0.3640   27.7460   -8.6530 C.3    12  GLY12       0.2014
     27  C         -1.0380   27.6070   -8.0980 C.2    12  GLY12       0.2640
     28  O         -1.2700   26.7550   -7.1970 O.2    12  GLY12      -0.2714
     29  N         -1.9770   28.4030   -8.6240 N.am   13  THR13      -0.1936
     30  CA        -3.3780   28.4150   -8.1420 C.3    13  THR13       0.2028
     31  C         -4.0150   27.0160   -8.2520 C.2    13  THR13       0.2642
     32  O         -4.8230   26.6240   -7.4140 O.2    13  THR13      -0.2714
     33  CB        -4.2590   29.4520   -8.9790 C.3    13  THR13       0.1808
     34  OG1       -3.6570   30.7330   -8.9260 O.3    13  THR13      -0.2208
     35  CG2       -5.7100   29.5610   -8.5000 C.3    13  THR13       0.0379
     36  N         -3.6440   26.2860   -9.2970 N.am   14  ARG14      -0.1977
     37  CA        -4.1200   24.8810   -9.4870 C.3    14  ARG14       0.1597
     38  C         -3.7280   23.9200   -8.3510 C.2    14  ARG14       0.2287
     39  O         -4.3830   22.8990   -8.1830 O.2    14  ARG14      -0.2864
     40  CB        -3.6870   24.3110  -10.8530 C.3    14  ARG14       0.0334
     41  CG        -4.5670   24.9260  -11.9610 C.3    14  ARG14       0.0492
     42  CD        -3.9740   24.5670  -13.3200 C.3    14  ARG14       0.2205
     43  NE        -2.6310   25.2000  -13.4570 N.pl3  14  ARG14      -0.0865
     44  CZ        -1.8500   25.0160  -14.5510 C.cat  14  ARG14       0.5346
     45  NH1       -2.2240   24.1470  -15.5160 N.pl3  14  ARG14       0.1354
     46  NH2       -0.6760   25.6570  -14.6910 N.pl3  14  ARG14       0.1354
     47  N          3.7320   26.8400   -4.1800 N.3    21  LYS21      -0.1245
     48  CA         3.8380   25.5970   -4.9450 C.3    21  LYS21       0.1561
     49  C          5.2220   25.0050   -4.9970 C.2    21  LYS21       0.2260
     50  O          5.3630   23.7690   -4.8020 O.2    21  LYS21      -0.2867
     51  CB         3.3670   25.8550   -6.3860 C.3    21  LYS21       0.0271
     52  CG         3.5990   24.6760   -7.3630 C.3    21  LYS21       0.0035
     53  CD         2.8950   25.0380   -8.6970 C.3    21  LYS21       0.0206
     54  CE         3.5020   24.3270   -9.8170 C.3    21  LYS21       0.1093
     55  NZ         2.9930   24.8810  -11.1680 N.3    21  LYS21      -0.1314
     56  N          8.2950   35.5380   -7.8710 N.3    52  GLY52      -0.1210
     57  CA         7.2280   36.4650   -8.1480 C.3    52  GLY52       0.1956
     58  C          6.1930   36.3600   -7.0480 C.2    52  GLY52       0.2611
     59  O          6.3630   36.8740   -5.9410 O.2    52  GLY52      -0.2717
     60  N          5.1230   35.6240   -7.3400 N.am   53  HIS53      -0.1975
     61  CA         4.0930   35.3680   -6.3700 C.3    53  HIS53       0.1656
     62  C          4.6910   34.7400   -5.0710 C.2    53  HIS53       0.2291
     63  O          5.3960   33.7090   -5.1370 O.2    53  HIS53      -0.2864
     64  CB         3.0090   34.4130   -6.9380 C.3    53  HIS53       0.0771
     65  CG         1.8320   34.2900   -6.0060 C.ar   53  HIS53       0.0820
     66  ND1        1.6750   33.2270   -5.1320 N.ar   53  HIS53      -0.2267
     67  CD2        0.8400   35.1650   -5.6990 C.ar   53  HIS53       0.1154
     68  CE1        0.5720   33.4010   -4.4090 C.ar   53  HIS53       0.1986
     69  NE2        0.0630   34.5830   -4.7130 N.ar   53  HIS53      -0.2212
     70  N          9.7890   38.9050  -10.7310 N.3    78  GLN78      -0.1231
     71  CA         8.8370   39.1730  -11.7620 C.3    78  GLN78       0.1698
     72  C          7.6160   39.8490  -11.1100 C.2    78  GLN78       0.2592
     73  O          6.9830   39.2970  -10.1800 O.2    78  GLN78      -0.2718
     74  CB         8.4340   37.9050  -12.5150 C.3    78  GLN78       0.0381
     75  CG         7.1680   38.1760  -13.4590 C.3    78  GLN78       0.0905
     76  CD         6.9050   36.9260  -14.3330 C.2    78  GLN78       0.2608
     77  OE1        7.2990   35.8200  -13.9350 O.2    78  GLN78      -0.2717
     78  NE2        6.3010   37.0990  -15.5370 N.am   78  GLN78      -0.0878
     79  N          7.2490   41.0320  -11.6210 N.am   79  ASP79      -0.1960
     80  CA         6.2440   41.8160  -10.9160 C.3    79  ASP79       0.1840
     81  C          4.9250   41.9930  -11.6600 C.2    79  ASP79       0.2622
     82  O          4.1020   42.7960  -11.2490 O.2    79  ASP79      -0.2715
     83  CB         6.8110   43.1800  -10.4870 C.3    79  ASP79       0.1450
     84  CG         7.2290   44.0290  -11.6820 C.2    79  ASP79       0.3671
     85  OD1        7.6370   45.1640  -11.4510 O.co2  79  ASP79      -0.2456
     86  OD2        7.1560   43.5890  -12.8610 O.co2  79  ASP79      -0.2456
     87  N          4.7160   41.2430  -12.7300 N.am   80  ARG80      -0.1964
     88  CA         3.4260   41.2110  -13.3880 C.3    80  ARG80       0.1714
     89  C          3.1130   39.7630  -13.7370 C.2    80  ARG80       0.2458
     90  O          4.0530   39.0050  -14.1090 O.2    80  ARG80      -0.2730
     91  CB         3.5500   41.9730  -14.7100 C.3    80  ARG80       0.0347
     92  CG         3.6360   43.4800  -14.5380 C.3    80  ARG80       0.0492
     93  CD         3.5870   44.0800  -15.9620 C.3    80  ARG80       0.2205
     94  NE         4.8980   44.0900  -16.6530 N.pl3  80  ARG80      -0.0865
     95  CZ         5.0980   44.5420  -17.9000 C.cat  80  ARG80       0.5346
     96  NH1        4.0660   44.9730  -18.6330 N.pl3  80  ARG80       0.1354
     97  NH2        6.3390   44.5860  -18.4110 N.pl3  80  ARG80       0.1354
     98  N          1.8030   39.3850  -13.7280 N.am   81  PRO81      -0.2716
     99  CA         1.3160   38.0310  -14.0890 C.3    81  PRO81       0.1536
    100  C          1.3250   37.9200  -15.5860 C.2    81  PRO81       0.2598
    101  O          0.2920   37.7600  -16.2110 O.2    81  PRO81      -0.2715
    102  CB        -0.1440   37.9880  -13.5620 C.3    81  PRO81       0.0310
    103  CG        -0.2140   39.1270  -12.5760 C.3    81  PRO81       0.0237
    104  CD         0.7370   40.1820  -13.0960 C.3    81  PRO81       0.0939
    105  N          2.5120   37.9480  -16.1730 N.am   82  LEU82      -0.1964
    106  CA         2.5700   38.1990  -17.6040 C.3    82  LEU82       0.1728
    107  C          3.2010   37.0470  -18.4010 C.2    82  LEU82       0.2617
    108  O          3.4240   37.1820  -19.6180 O.2    82  LEU82      -0.2715
    109  CB         3.2990   39.5750  -17.8310 C.3    82  LEU82       0.0311
    110  CG         3.4300   40.1450  -19.2650 C.3    82  LEU82       0.0022
    111  CD1        2.0930   40.2440  -19.9840 C.3    82  LEU82       0.0001
    112  CD2        4.1230   41.5670  -19.1910 C.3    82  LEU82       0.0001
    113  N          3.4090   35.8700  -17.7690 N.am   83  GLY83      -0.1940
    114  CA         3.7720   34.7250  -18.5800 C.3    83  GLY83       0.2014
    115  C          5.2450   34.3480  -18.4170 C.2    83  GLY83       0.2639
    116  O          6.1170   35.1320  -17.9510 O.2    83  GLY83      -0.2714
    117  N          5.5320   33.1170  -18.8290 N.am   84  THR84      -0.1950
    118  CA         6.9230   32.6030  -18.8000 C.3    84  THR84       0.1897
    119  C          7.9140   33.3870  -19.6610 C.2    84  THR84       0.2313
    120  O          9.1120   33.3660  -19.3740 O.2    84  THR84      -0.2863
    121  CB         6.9590   31.1510  -19.2580 C.3    84  THR84       0.1794
    122  OG1        6.2640   31.0440  -20.5190 O.3    84  THR84      -0.2208
    123  CG2        6.1920   30.2470  -18.1510 C.3    84  THR84       0.0378
    124  N          8.8110   36.0860  -17.5830 N.3    87  ALA87      -0.1245
    125  CA         9.6750   35.5520  -16.4760 C.3    87  ALA87       0.1562
    126  C         11.1630   35.5020  -16.9790 C.2    87  ALA87       0.2260
    127  O         12.1150   35.8640  -16.2820 O.2    87  ALA87      -0.2867
    128  CB         9.1740   34.1090  -16.1260 C.3    87  ALA87       0.0290
    129  N          9.0420   23.7550  -11.4950 N.3   109  ASP109     -0.1239
    130  CA         8.0560   22.6520  -11.2110 C.3   109  ASP109      0.1674
    131  C          8.3420   21.4330  -12.0510 C.2   109  ASP109      0.2266
    132  O          7.4120   20.6140  -12.3110 O.2   109  ASP109     -0.2867
    133  CB         6.5660   23.0890  -11.3380 C.3   109  ASP109      0.1410
    134  CG         6.1940   23.6190  -12.7790 C.2   109  ASP109      0.3668
    135  OD1        7.0410   23.6290  -13.6790 O.co2 109  ASP109     -0.2456
    136  OD2        5.0180   23.9610  -13.0590 O.co2 109  ASP109     -0.2456
    137  N         -4.4350   33.0300  -22.4580 N.3   200  GLN200     -0.1245
    138  CA        -4.1460   33.5960  -21.1470 C.3   200  GLN200      0.1566
    139  C         -3.8550   35.0980  -21.2190 C.2   200  GLN200      0.2260
    140  O         -3.6080   35.7300  -20.1790 O.2   200  GLN200     -0.2867
    141  CB        -2.8700   32.8980  -20.5410 C.3   200  GLN200      0.0367
    142  CG        -2.9930   31.3150  -20.4440 C.3   200  GLN200      0.0905
    143  CD        -4.2750   30.9300  -19.7530 C.2   200  GLN200      0.2608
    144  OE1       -4.6170   31.4980  -18.6940 O.2   200  GLN200     -0.2717
    145  NE2       -5.0260   29.9600  -20.3560 N.am  200  GLN200     -0.0878
    146  N         -0.9180   36.2810  -22.1270 N.3   202  GLU202     -0.1245
    147  CA         0.3800   36.3220  -21.4460 C.3   202  GLU202      0.1567
    148  C          1.4220   36.3080  -22.5700 C.2   202  GLU202      0.2260
    149  O          1.0900   35.9710  -23.7300 O.2   202  GLU202     -0.2867
    150  CB         0.5570   35.0300  -20.6330 C.3   202  GLU202      0.0388
    151  CG        -0.1820   35.0750  -19.2720 C.3   202  GLU202      0.1160
    152  CD        -0.1920   33.7180  -18.5720 C.2   202  GLU202      0.3649
    153  OE1        0.5100   32.7600  -19.0310 O.co2 202  GLU202     -0.2457
    154  OE2       -0.8680   33.6400  -17.5430 O.co2 202  GLU202     -0.2457
    155  N          1.7060   20.7260  -12.0880 N.3   234  ASN234     -0.1240
    156  CA         0.8830   21.9110  -11.9150 C.3   234  ASN234      0.1653
    157  C         -0.2270   21.7570  -10.9160 C.2   234  ASN234      0.2266
    158  O         -0.9780   22.7080  -10.6570 O.2   234  ASN234     -0.2867
    159  CB         0.2510   22.3110  -13.2670 C.3   234  ASN234      0.1155
    160  CG         1.2360   23.0270  -14.2070 C.2   234  ASN234      0.2627
    161  OD1        2.2790   23.5750  -13.7860 O.2   234  ASN234     -0.2716
    162  ND2        0.9400   22.9550  -15.5020 N.am  234  ASN234     -0.0877
@<TRIPOS>BOND
     1   149   148    2
     2   148   147    1
     3   137   138    1
     4   146   147    1
     5   147   150    1
     6   139   138    1
     7   139   140    2
     8   138   141    1
     9   150   151    1
    10   141   142    1
    11   122   121    1
    12   142   143    1
    13   145   143   am
    14   111   110    1
    15   143   144    2
    16   119   120    2
    17   119   118    1
    18   108   107    2
    19   151   152    1
    20   110   112    1
    21   110   109    1
    22   121   118    1
    23   121   123    1
    24   153   152   ar
    25   117   118    1
    26   117   115   am
    27    96    95    1
    28   114   115    1
    29   114   113    1
    30   152   154   ar
    31   115   116    2
    32    97    95    1
    33   107   113   am
    34   107   106    1
    35    95    94    2
    36   109   106    1
    37   106   105    1
    38   124   125    1
    39     7     6    1
    40   126   125    1
    41   126   127    2
    42    94    93    1
    43   125   128    1
    44   101   100    2
    45   105   100   am
    46     6     8    1
    47     6     5    1
    48    93    92    1
    49   100    99    1
    50    78    76   am
    51    45    44    1
    52   162   160   am
    53     5     2    1
    54    91    92    1
    55    91    88    1
    56    46    44    1
    57    44    43    2
    58    76    77    2
    59    76    75    1
    60   160   161    2
    61   160   159    1
    62    90    89    2
    63    99    98    1
    64    99   102    1
    65    89    98   am
    66    89    88    1
    67    98   104    1
    68   135   134   ar
    69     1     2    1
    70   102   103    1
    71     2     3    1
    72    75    74    1
    73    43    42    1
    74    88    87    1
    75    42    41    1
    76   159   156    1
    77   104   103    1
    78   136   134   ar
    79    86    84   ar
    80   134   133    1
    81    87    81   am
    82    74    71    1
    83     4     3    2
    84   132   131    2
    85   155   156    1
    86   131   130    1
    87    41    40    1
    88   156   157    1
    89    71    72    1
    90    71    70    1
    91    84    85   ar
    92    84    83    1
    93    81    82    2
    94    81    80    1
    95    79    72   am
    96    79    80    1
    97   129   130    1
    98   133   130    1
    99    13    10    1
   100    55    54    1
   101    72    73    2
   102    80    83    1
   103   157   158    2
   104    40    37    1
   105    15    14    1
   106    15    16    1
   107    14    11   am
   108     9    10    1
   109    24    23    1
   110    24    18    1
   111    11    10    1
   112    11    12    2
   113    54    53    1
   114    16    18   am
   115    16    17    2
   116    23    22    1
   117    37    36    1
   118    37    38    1
   119    18    19    1
   120    36    31   am
   121    33    34    1
   122    33    35    1
   123    33    30    1
   124    25    26    1
   125    25    20   am
   126    53    52    1
   127    26    27    1
   128    29    30    1
   129    29    27   am
   130    38    39    2
   131    22    19    1
   132    31    30    1
   133    31    32    2
   134    57    56    1
   135    57    58    1
   136    19    20    1
   137    27    28    2
   138    20    21    2
   139    52    51    1
   140    60    58   am
   141    60    61    1
   142    58    59    2
   143    64    61    1
   144    64    65    1
   145    51    48    1
   146    61    62    1
   147    65    67   ar
   148    65    66   ar
   149    67    69   ar
   150    63    62    2
   151    66    68   ar
   152    49    48    1
   153    49    50    2
   154    48    47    1
   155    69    68   ar
