@<TRIPOS>MOLECULE
tmp/4k6rA01.pdb
 152 142 0 0 0
SMALL
GASTEIGER

@<TRIPOS>ATOM
      1  N         -3.6440   26.2860   -9.2970 N.3    14  ARG14      -0.1245
      2  CA        -4.1200   24.8810   -9.4870 C.3    14  ARG14       0.1563
      3  C         -3.7280   23.9200   -8.3510 C.2    14  ARG14       0.2260
      4  O         -4.3830   22.8990   -8.1830 O.2    14  ARG14      -0.2867
      5  CB        -3.6870   24.3110  -10.8530 C.3    14  ARG14       0.0307
      6  CG        -4.5670   24.9260  -11.9610 C.3    14  ARG14       0.0489
      7  CD        -3.9740   24.5670  -13.3200 C.3    14  ARG14       0.2205
      8  NE        -2.6310   25.2000  -13.4570 N.pl3  14  ARG14      -0.0865
      9  CZ        -1.8500   25.0160  -14.5510 C.cat  14  ARG14       0.5346
     10  NH1       -2.2240   24.1470  -15.5160 N.pl3  14  ARG14       0.1354
     11  NH2       -0.6760   25.6570  -14.6910 N.pl3  14  ARG14       0.1354
     12  N          5.5320   33.1170  -18.8290 N.3    84  THR84      -0.1218
     13  CA         6.9230   32.6030  -18.8000 C.3    84  THR84       0.1862
     14  C          7.9140   33.3870  -19.6610 C.2    84  THR84       0.2287
     15  O          9.1120   33.3660  -19.3740 O.2    84  THR84      -0.2866
     16  CB         6.9590   31.1510  -19.2580 C.3    84  THR84       0.1770
     17  OG1        6.2640   31.0440  -20.5190 O.3    84  THR84      -0.2211
     18  CG2        6.1920   30.2470  -18.1510 C.3    84  THR84       0.0375
     19  N         11.8450   25.3160  -15.5430 N.3   107  SER107     -0.1217
     20  CA        10.7980   25.8180  -14.6080 C.3   107  SER107      0.1889
     21  C         11.0730   25.1740  -13.2140 C.2   107  SER107      0.2288
     22  O         11.7290   24.1030  -13.0990 O.2   107  SER107     -0.2866
     23  CB         9.3600   25.5690  -15.1870 C.3   107  SER107      0.2089
     24  OG         8.8420   26.6750  -16.0850 O.3   107  SER107     -0.2183
     25  N          9.0420   23.7550  -11.4950 N.3   109  ASP109     -0.1225
     26  CA         8.0560   22.6520  -11.2110 C.3   109  ASP109      0.1805
     27  C          8.3420   21.4330  -12.0510 C.2   109  ASP109      0.2598
     28  O          7.4120   20.6140  -12.3110 O.2   109  ASP109     -0.2718
     29  CB         6.5660   23.0890  -11.3380 C.3   109  ASP109      0.1424
     30  CG         6.1940   23.6190  -12.7790 C.2   109  ASP109      0.3668
     31  OD1        7.0410   23.6290  -13.6790 O.co2 109  ASP109     -0.2456
     32  OD2        5.0180   23.9610  -13.0590 O.co2 109  ASP109     -0.2456
     33  N          9.6180   21.2710  -12.4270 N.am  110  THR110     -0.1953
     34  CA        10.1010   20.0720  -13.1470 C.3   110  THR110      0.1897
     35  C         11.0760   19.3270  -12.2130 C.2   110  THR110      0.2313
     36  O         12.2780   19.3880  -12.3820 O.2   110  THR110     -0.2863
     37  CB        10.7320   20.5200  -14.4720 C.3   110  THR110      0.1794
     38  OG1        9.7570   21.2780  -15.1660 O.3   110  THR110     -0.2208
     39  CG2       11.0600   19.3260  -15.4120 C.3   110  THR110      0.0378
     40  N         -2.4360   19.5250  -20.5500 N.3   144  GLY144     -0.1210
     41  CA        -1.8140   20.6950  -19.9210 C.3   144  GLY144      0.1956
     42  C         -0.3750   21.0100  -20.3590 C.2   144  GLY144      0.2612
     43  O          0.1850   22.0710  -19.9670 O.2   144  GLY144     -0.2717
     44  N          0.2250   20.1650  -21.1980 N.am  145  TYR145     -0.1962
     45  CA         1.5550   20.4480  -21.7420 C.3   145  TYR145      0.1771
     46  C          1.4160   21.2120  -23.0550 C.2   145  TYR145      0.2620
     47  O          0.3910   21.0650  -23.7090 O.2   145  TYR145     -0.2715
     48  CB         2.3050   19.1410  -22.0900 C.3   145  TYR145      0.0574
     49  CG         2.8810   18.3990  -20.9060 C.ar  145  TYR145     -0.0198
     50  CD1        4.2050   18.6220  -20.5070 C.ar  145  TYR145     -0.0009
     51  CD2        2.0970   17.4820  -20.1870 C.ar  145  TYR145     -0.0009
     52  CE1        4.7540   17.9540  -19.4500 C.ar  145  TYR145      0.0417
     53  CE2        2.6460   16.8100  -19.0800 C.ar  145  TYR145      0.0417
     54  CZ         3.9780   17.0570  -18.7520 C.ar  145  TYR145      0.1957
     55  OH         4.5140   16.4270  -17.6590 O.3   145  TYR145     -0.2866
     56  N          2.4460   22.0000  -23.4340 N.am  146  GLY146     -0.1954
     57  CA         2.5490   22.5310  -24.7900 C.3   146  GLY146      0.1869
     58  C          2.7930   21.3010  -25.7050 C.2   146  GLY146      0.2309
     59  O          3.5730   20.3950  -25.3320 O.2   146  GLY146     -0.2863
     60  N          0.0670   25.7280  -26.7770 N.3   161  GLU161     -0.1245
     61  CA        -0.2770   25.3980  -25.4020 C.3   161  GLU161      0.1567
     62  C         -1.6060   24.7220  -25.3530 C.2   161  GLU161      0.2260
     63  O         -2.4480   24.9260  -26.2590 O.2   161  GLU161     -0.2867
     64  CB        -0.2900   26.6580  -24.5460 C.3   161  GLU161      0.0388
     65  CG         1.1420   27.2410  -24.4020 C.3   161  GLU161      0.1160
     66  CD         2.0270   26.3090  -23.6410 C.2   161  GLU161      0.3649
     67  OE1        1.8070   26.0790  -22.3770 O.co2 161  GLU161     -0.2457
     68  OE2        2.9710   25.8090  -24.2880 O.co2 161  GLU161     -0.2457
     69  N          6.2530   19.6540  -24.8650 N.3   176  ASN176     -0.1225
     70  CA         7.3080   20.5330  -24.3960 C.3   176  ASN176      0.1785
     71  C          7.6820   20.2790  -22.9290 C.2   176  ASN176      0.2597
     72  O          6.8320   20.4040  -22.0650 O.2   176  ASN176     -0.2718
     73  CB         6.8040   21.9790  -24.5320 C.3   176  ASN176      0.1169
     74  CG         7.8610   23.0200  -24.1570 C.2   176  ASN176      0.2627
     75  OD1        9.0650   22.7690  -24.2990 O.2   176  ASN176     -0.2716
     76  ND2        7.4120   24.1760  -23.5910 N.am  176  ASN176     -0.0877
     77  N          8.9750   20.0480  -22.6580 N.am  177  ALA177     -0.1966
     78  CA         9.5300   19.9090  -21.3070 C.3   177  ALA177      0.1728
     79  C          9.5570   21.2710  -20.5630 C.2   177  ALA177      0.2616
     80  O          9.6300   21.3280  -19.3270 O.2   177  ALA177     -0.2715
     81  CB        10.9700   19.3940  -21.4140 C.3   177  ALA177      0.0334
     82  N          9.5590   22.3400  -21.3430 N.am  178  GLY178     -0.1955
     83  CA         9.8600   23.6980  -20.7890 C.3   178  GLY178      0.1869
     84  C         11.2820   23.8090  -20.2910 C.2   178  GLY178      0.2309
     85  O         11.5530   24.5270  -19.2910 O.2   178  GLY178     -0.2863
     86  N         15.1270   24.5420  -21.9850 N.3   180  TYR180     -0.1241
     87  CA        15.6460   25.0190  -23.2780 C.3   180  TYR180      0.1605
     88  C         17.0810   25.4940  -23.1030 C.2   180  TYR180      0.2264
     89  O         17.4860   25.8800  -22.0030 O.2   180  TYR180     -0.2867
     90  CB        14.9180   26.3240  -23.6760 C.3   180  TYR180      0.0534
     91  CG        13.3880   26.3430  -23.5550 C.ar  180  TYR180     -0.0201
     92  CD1       12.7480   26.5820  -22.3030 C.ar  180  TYR180     -0.0009
     93  CD2       12.5820   26.1710  -24.6880 C.ar  180  TYR180     -0.0009
     94  CE1       11.3240   26.6290  -22.2210 C.ar  180  TYR180      0.0417
     95  CE2       11.1750   26.2300  -24.5920 C.ar  180  TYR180      0.0417
     96  CZ        10.5830   26.4990  -23.3480 C.ar  180  TYR180      0.1957
     97  OH         9.1920   26.5610  -23.3260 O.3   180  TYR180     -0.2866
     98  N         -0.9180   36.2810  -22.1270 N.3   202  GLU202     -0.1245
     99  CA         0.3800   36.3220  -21.4460 C.3   202  GLU202      0.1567
    100  C          1.4220   36.3080  -22.5700 C.2   202  GLU202      0.2260
    101  O          1.0900   35.9710  -23.7300 O.2   202  GLU202     -0.2867
    102  CB         0.5570   35.0300  -20.6330 C.3   202  GLU202      0.0388
    103  CG        -0.1820   35.0750  -19.2720 C.3   202  GLU202      0.1160
    104  CD        -0.1920   33.7180  -18.5720 C.2   202  GLU202      0.3649
    105  OE1        0.5100   32.7600  -19.0310 O.co2 202  GLU202     -0.2457
    106  OE2       -0.8680   33.6400  -17.5430 O.co2 202  GLU202     -0.2457
    107  N          3.9240   34.0490  -23.7870 N.3   204  TYR204     -0.1227
    108  CA         4.3010   32.6450  -23.6170 C.3   204  TYR204      0.1736
    109  C          5.8090   32.5080  -24.0520 C.2   204  TYR204      0.2595
    110  O          6.1320   32.8300  -25.1670 O.2   204  TYR204     -0.2718
    111  CB         3.4630   31.8080  -24.6160 C.3   204  TYR204      0.0548
    112  CG         2.0140   31.4500  -24.2610 C.ar  204  TYR204     -0.0200
    113  CD1        1.4950   31.6210  -22.9770 C.ar  204  TYR204     -0.0009
    114  CD2        1.1860   30.8750  -25.2300 C.ar  204  TYR204     -0.0009
    115  CE1        0.1570   31.2130  -22.6570 C.ar  204  TYR204      0.0417
    116  CE2       -0.1320   30.4450  -24.9290 C.ar  204  TYR204      0.0417
    117  CZ        -0.6390   30.6370  -23.6090 C.ar  204  TYR204      0.1957
    118  OH        -1.9240   30.2000  -23.3110 O.3   204  TYR204     -0.2866
    119  N          6.6770   31.9370  -23.2520 N.am  205  LEU205     -0.1966
    120  CA         8.0590   31.7050  -23.7190 C.3   205  LEU205      0.1728
    121  C          8.0110   30.7730  -24.9340 C.2   205  LEU205      0.2616
    122  O          8.8760   30.8480  -25.8190 O.2   205  LEU205     -0.2715
    123  CB         8.8760   31.0360  -22.5910 C.3   205  LEU205      0.0311
    124  CG        10.3560   30.6200  -22.8990 C.3   205  LEU205      0.0022
    125  CD1       11.1960   31.8740  -23.3000 C.3   205  LEU205      0.0001
    126  CD2       10.9630   29.9800  -21.6030 C.3   205  LEU205      0.0001
    127  N          7.0280   29.8720  -24.9740 N.am  206  THR206     -0.1951
    128  CA         6.9680   28.8770  -26.0320 C.3   206  THR206      0.1897
    129  C          6.8130   29.4720  -27.4370 C.2   206  THR206      0.2313
    130  O          7.1950   28.8320  -28.4370 O.2   206  THR206     -0.2863
    131  CB         5.8240   27.9330  -25.8000 C.3   206  THR206      0.1794
    132  OG1        4.6390   28.6940  -25.5230 O.3   206  THR206     -0.2208
    133  CG2        6.1160   27.0040  -24.6040 C.3   206  THR206      0.0378
    134  N         11.4850   15.0380  -17.2860 N.3   230  VAL230     -0.1245
    135  CA        11.1060   16.3920  -17.7440 C.3   230  VAL230      0.1561
    136  C          9.6030   16.6340  -17.5040 C.2   230  VAL230      0.2260
    137  O          8.9610   17.5840  -18.0640 O.2   230  VAL230     -0.2867
    138  CB        11.4160   16.6160  -19.2470 C.3   230  VAL230      0.0252
    139  CG1       12.9500   16.5990  -19.5010 C.3   230  VAL230      0.0019
    140  CG2       10.6890   15.5120  -20.1050 C.3   230  VAL230      0.0019
    141  N          6.2620   17.8250  -15.6810 N.3   232  GLY232     -0.1225
    142  CA         5.9580   18.9300  -14.7800 C.3   232  GLY232      0.1811
    143  C          4.8540   18.6570  -13.7940 C.2   232  GLY232      0.2280
    144  O          4.0790   17.6560  -13.9490 O.2   232  GLY232     -0.2866
    145  N          1.7060   20.7260  -12.0880 N.3   234  ASN234     -0.1240
    146  CA         0.8830   21.9110  -11.9150 C.3   234  ASN234      0.1653
    147  C         -0.2270   21.7570  -10.9160 C.2   234  ASN234      0.2266
    148  O         -0.9780   22.7080  -10.6570 O.2   234  ASN234     -0.2867
    149  CB         0.2510   22.3110  -13.2670 C.3   234  ASN234      0.1155
    150  CG         1.2360   23.0270  -14.2070 C.2   234  ASN234      0.2627
    151  OD1        2.2790   23.5750  -13.7860 O.2   234  ASN234     -0.2716
    152  ND2        0.9400   22.9550  -15.5020 N.am  234  ASN234     -0.0877
@<TRIPOS>BOND
     1   130   129    2
     2   129   128    1
     3    60    61    1
     4    63    62    2
     5   128   131    1
     6   128   127    1
     7   122   121    2
     8   131   132    1
     9   131   133    1
    10    58    59    2
    11    58    57    1
    12    61    62    1
    13    61    64    1
    14   114   116   ar
    15   114   112   ar
    16   110   109    2
    17   127   121   am
    18   121   120    1
    19   116   117   ar
    20    69    70    1
    21    57    56    1
    22    93    95   ar
    23    93    91   ar
    24   111   112    1
    25   111   108    1
    26    95    96   ar
    27    64    65    1
    28    73    70    1
    29    73    74    1
    30    65    66    1
    31    70    71    1
    32    75    74    2
    33    68    66   ar
    34   112   113   ar
    35    74    76   am
    36   109   108    1
    37   109   119   am
    38   107   108    1
    39   101   100    2
    40   120   119    1
    41   120   123    1
    42    47    46    2
    43    90    91    1
    44    90    87    1
    45    66    67   ar
    46   117   118    1
    47   117   115   ar
    48    91    92   ar
    49    56    46   am
    50    96    97    1
    51    96    94   ar
    52   125   124    1
    53    87    88    1
    54    87    86    1
    55    88    89    2
    56    46    45    1
    57   113   115   ar
    58    71    77   am
    59    71    72    2
    60   124   123    1
    61   124   126    1
    62    77    78    1
    63   100    99    1
    64    92    94   ar
    65    98    99    1
    66    48    45    1
    67    48    49    1
    68    45    44    1
    69    99   102    1
    70    81    78    1
    71    82    83    1
    72    82    79   am
    73    78    79    1
    74    44    42   am
    75    49    50   ar
    76    49    51   ar
    77    83    84    1
    78   102   103    1
    79    79    80    2
    80    40    41    1
    81    17    16    1
    82    50    52   ar
    83    42    43    2
    84    42    41    1
    85    84    85    2
    86    51    53   ar
    87   140   138    1
    88    14    15    2
    89    14    13    1
    90   139   138    1
    91    52    54   ar
    92   103   104    1
    93    16    13    1
    94    16    18    1
    95   138   135    1
    96    53    54   ar
    97   105   104   ar
    98    12    13    1
    99    54    55    1
   100   104   106   ar
   101   137   136    2
   102   135   136    1
   103   135   134    1
   104    24    23    1
   105   141   142    1
   106    19    20    1
   107    10     9    1
   108   152   150   am
   109    39    37    1
   110    23    20    1
   111    38    37    1
   112   142   143    1
   113    11     9    1
   114    20    21    1
   115     9     8    2
   116    37    34    1
   117   150   151    2
   118   150   149    1
   119   144   143    2
   120    31    30   ar
   121     8     7    1
   122     7     6    1
   123   149   146    1
   124    21    22    2
   125    34    33    1
   126    34    35    1
   127    32    30   ar
   128    30    29    1
   129    33    27   am
   130    36    35    2
   131    28    27    2
   132   145   146    1
   133    27    26    1
   134     6     5    1
   135   146   147    1
   136    25    26    1
   137    29    26    1
   138   147   148    2
   139     5     2    1
   140     2     1    1
   141     2     3    1
   142     3     4    2
