@<TRIPOS>MOLECULE
tmp/4k6yB00.pdb
 132 126 0 0 0
SMALL
GASTEIGER

@<TRIPOS>ATOM
      1  N          2.8390   22.7100   50.1200 N.3    15  GLY15      -0.1210
      2  CA         3.7470   22.8200   49.0010 C.3    15  GLY15       0.1956
      3  C          3.6490   21.5730   48.1470 C.2    15  GLY15       0.2612
      4  O          3.0280   20.5880   48.5490 O.2    15  GLY15      -0.2717
      5  N          4.2580   21.6190   46.9690 N.am   16  LEU16      -0.1965
      6  CA         4.2600   20.4830   46.0500 C.3    16  LEU16       0.1728
      7  C          5.1530   19.3500   46.5640 C.2    16  LEU16       0.2617
      8  O          4.9070   18.1730   46.2870 O.2    16  LEU16      -0.2715
      9  CB         4.7340   20.9290   44.6630 C.3    16  LEU16       0.0311
     10  CG         3.9480   22.0330   43.9380 C.3    16  LEU16       0.0022
     11  CD1        4.8200   22.8020   42.9530 C.3    16  LEU16       0.0001
     12  CD2        2.7230   21.4720   43.2370 C.3    16  LEU16       0.0001
     13  N          6.1960   19.7060   47.3080 N.am   17  GLY17      -0.1940
     14  CA         7.1280   18.7210   47.8210 C.3    17  GLY17       0.2014
     15  C          8.1790   18.3310   46.8000 C.2    17  GLY17       0.2639
     16  O          8.4540   17.1550   46.5870 O.2    17  GLY17      -0.2714
     17  N          8.7750   19.3320   46.1650 N.am   18  ILE18      -0.1963
     18  CA         9.7420   19.0920   45.1030 C.3    18  ILE18       0.1727
     19  C         10.9000   20.0540   45.2860 C.2    18  ILE18       0.2617
     20  O         10.6810   21.2410   45.5300 O.2    18  ILE18      -0.2715
     21  CB         9.1410   19.3650   43.7040 C.3    18  ILE18       0.0290
     22  CG1        7.8300   18.6010   43.4930 C.3    18  ILE18       0.0022
     23  CG2       10.1290   18.9870   42.6180 C.3    18  ILE18       0.0023
     24  CD1        7.1170   18.9960   42.2100 C.3    18  ILE18       0.0001
     25  N         12.1270   19.5520   45.1780 N.am   19  SER19      -0.1936
     26  CA        13.2800   20.4400   45.0660 C.3    19  SER19       0.2055
     27  C         13.6110   20.5790   43.5980 C.2    19  SER19       0.2643
     28  O         13.6240   19.5970   42.8660 O.2    19  SER19      -0.2714
     29  CB        14.4910   19.8750   45.7950 C.3    19  SER19       0.2130
     30  OG        14.2930   19.8830   47.1990 O.3    19  SER19      -0.2179
     31  N         13.8940   21.8150   43.1960 N.am   20  ILE20      -0.1963
     32  CA        14.0760   22.1980   41.8040 C.3    20  ILE20       0.1727
     33  C         15.4840   22.7590   41.6240 C.2    20  ILE20       0.2617
     34  O         15.9460   23.5220   42.4660 O.2    20  ILE20      -0.2715
     35  CB        13.0650   23.3380   41.4400 C.3    20  ILE20       0.0290
     36  CG1       11.6260   22.8300   41.5270 C.3    20  ILE20       0.0022
     37  CG2       13.3630   23.9180   40.0660 C.3    20  ILE20       0.0023
     38  CD1       11.3420   21.6680   40.5950 C.3    20  ILE20       0.0001
     39  N         16.1600   22.3860   40.5410 N.am   21  THR21      -0.1937
     40  CA        17.4420   23.0080   40.2030 C.3    21  THR21       0.2028
     41  C         17.5180   23.2100   38.6910 C.2    21  THR21       0.2642
     42  O         16.6050   22.8220   37.9710 O.2    21  THR21      -0.2714
     43  CB        18.6330   22.1860   40.7430 C.3    21  THR21       0.1808
     44  OG1       19.8340   22.9730   40.6800 O.3    21  THR21      -0.2208
     45  CG2       18.7960   20.8970   39.9600 C.3    21  THR21       0.0379
     46  N         18.5770   23.8490   38.2090 N.am   22  GLY22      -0.1954
     47  CA        18.7230   24.0900   36.7860 C.3    22  GLY22       0.1869
     48  C         17.9500   25.2950   36.2890 C.2    22  GLY22       0.2309
     49  O         17.4880   26.1140   37.0790 O.2    22  GLY22      -0.2863
     50  N         21.7980   28.2070   33.3490 N.3    26  HIS26      -0.1241
     51  CA        22.7750   27.1260   33.4510 C.3    26  HIS26       0.1621
     52  C         22.7760   26.2190   32.2310 C.2    26  HIS26       0.2264
     53  O         23.4870   25.2090   32.1970 O.2    26  HIS26      -0.2867
     54  CB        22.5390   26.3290   34.7260 C.3    26  HIS26       0.0745
     55  CG        22.7510   27.1360   35.9640 C.ar   26  HIS26       0.0817
     56  ND1       23.9440   27.7740   36.2300 N.ar   26  HIS26      -0.2268
     57  CD2       21.9230   27.4410   36.9890 C.ar   26  HIS26       0.1154
     58  CE1       23.8490   28.4200   37.3770 C.ar   26  HIS26       0.1986
     59  NE2       22.6340   28.2330   37.8590 N.ar   26  HIS26      -0.2212
     60  N         20.5040   24.2680   31.1020 N.3    28  VAL28      -0.1245
     61  CA        19.8480   22.9820   31.3170 C.3    28  VAL28       0.1561
     62  C         18.3880   23.2130   31.6650 C.2    28  VAL28       0.2260
     63  O         17.9990   24.3180   32.0060 O.2    28  VAL28      -0.2867
     64  CB        20.5210   22.1830   32.4570 C.3    28  VAL28       0.0252
     65  CG1       21.9720   21.8810   32.1070 C.3    28  VAL28       0.0019
     66  CG2       20.4370   22.9490   33.7690 C.3    28  VAL28       0.0019
     67  N         14.9780   21.0750   36.5270 N.3    31  LEU31      -0.1245
     68  CA        15.1580   19.6720   36.8790 C.3    31  LEU31       0.1561
     69  C         14.6850   19.3850   38.2910 C.2    31  LEU31       0.2260
     70  O         14.9030   20.1830   39.2020 O.2    31  LEU31      -0.2867
     71  CB        16.6380   19.3010   36.7880 C.3    31  LEU31       0.0270
     72  CG        17.2210   19.3340   35.3840 C.3    31  LEU31       0.0019
     73  CD1       18.7310   19.4160   35.4670 C.3    31  LEU31       0.0001
     74  CD2       16.7980   18.1070   34.6040 C.3    31  LEU31       0.0001
     75  N         15.3000   17.6440   41.6060 N.3    33  SER33      -0.1217
     76  CA        16.4700   17.1270   42.3040 C.3    33  SER33       0.1889
     77  C         16.0870   16.3250   43.5470 C.2    33  SER33       0.2288
     78  O         16.8710   15.5010   44.0240 O.2    33  SER33      -0.2866
     79  CB        17.4230   18.2690   42.6630 C.3    33  SER33       0.2089
     80  OG        16.7840   19.2090   43.5070 O.3    33  SER33      -0.2183
     81  N         10.0500   14.9760   47.9750 N.3    36  HIS36      -0.1241
     82  CA         9.9300   14.9010   49.4270 C.3    36  HIS36       0.1621
     83  C          8.8290   13.9490   49.8780 C.2    36  HIS36       0.2264
     84  O          7.7000   14.0170   49.4000 O.2    36  HIS36      -0.2867
     85  CB         9.7560   16.3030   49.9890 C.3    36  HIS36       0.0745
     86  CG        10.8480   17.2270   49.5620 C.ar   36  HIS36       0.0817
     87  ND1       12.1090   17.1880   50.1170 N.ar   36  HIS36      -0.2268
     88  CD2       10.8920   18.1680   48.5920 C.ar   36  HIS36       0.1154
     89  CE1       12.8730   18.0870   49.5230 C.ar   36  HIS36       0.1986
     90  NE2       12.1560   18.7010   48.6010 N.ar   36  HIS36      -0.2212
     91  N         15.7760   29.9540   36.3100 N.3    66  HIS66      -0.1241
     92  CA        15.3820   29.2780   37.5410 C.3    66  HIS66       0.1621
     93  C         14.3270   30.0360   38.3480 C.2    66  HIS66       0.2264
     94  O         13.2730   29.4830   38.6610 O.2    66  HIS66      -0.2867
     95  CB        16.6240   29.0530   38.4060 C.3    66  HIS66       0.0745
     96  CG        16.3610   28.2900   39.6620 C.ar   66  HIS66       0.0817
     97  ND1       16.4710   26.9200   39.7370 N.ar   66  HIS66      -0.2268
     98  CD2       15.9990   28.7090   40.8990 C.ar   66  HIS66       0.1154
     99  CE1       16.1970   26.5250   40.9680 C.ar   66  HIS66       0.1986
    100  NE2       15.9060   27.5900   41.6920 N.ar   66  HIS66      -0.2212
    101  N         10.4410   28.8880   39.0970 N.3    70  VAL70      -0.1245
    102  CA        10.0290   28.6000   40.4630 C.3    70  VAL70       0.1561
    103  C          8.8120   29.4460   40.8510 C.2    70  VAL70       0.2260
    104  O          7.8580   28.9490   41.4500 O.2    70  VAL70      -0.2867
    105  CB        11.1910   28.8130   41.4320 C.3    70  VAL70       0.0252
    106  CG1       10.7150   28.7460   42.8880 C.3    70  VAL70       0.0019
    107  CG2       12.2620   27.7660   41.1710 C.3    70  VAL70       0.0019
    108  N          5.7580   28.0300   39.0470 N.3    73  LEU73      -0.1231
    109  CA         5.3870   26.7710   39.6700 C.3    73  LEU73       0.1693
    110  C          4.6620   27.0180   40.9890 C.2    73  LEU73       0.2592
    111  O          3.6640   26.3750   41.2830 O.2    73  LEU73      -0.2718
    112  CB         6.6360   25.9000   39.8820 C.3    73  LEU73       0.0284
    113  CG         7.1590   25.2530   38.5980 C.3    73  LEU73       0.0019
    114  CD1        8.6350   24.8860   38.7210 C.3    73  LEU73       0.0001
    115  CD2        6.3310   24.0120   38.2710 C.3    73  LEU73       0.0001
    116  N          5.1580   27.9740   41.7690 N.am   74  SER74      -0.1952
    117  CA         4.6120   28.2260   43.0990 C.3    74  SER74       0.1924
    118  C          3.2320   28.8610   43.0810 C.2    74  SER74       0.2314
    119  O          2.5130   28.8280   44.0830 O.2    74  SER74      -0.2863
    120  CB         5.5720   29.1040   43.8890 C.3    74  SER74       0.2116
    121  OG         6.7370   28.3610   44.2040 O.3    74  SER74      -0.2180
    122  N          1.8190   18.6380   35.1570 N.3    82  PHE82      -0.1241
    123  CA         3.2380   18.7720   34.8400 C.3    82  PHE82       0.1605
    124  C          3.5230   18.0200   33.5620 C.2    82  PHE82       0.2264
    125  O          3.1440   16.8600   33.4290 O.2    82  PHE82      -0.2867
    126  CB         4.0970   18.1610   35.9550 C.3    82  PHE82       0.0534
    127  CG         4.1500   18.9940   37.2050 C.ar   82  PHE82      -0.0203
    128  CD1        3.0610   19.0520   38.0520 C.ar   82  PHE82      -0.0042
    129  CD2        5.2810   19.7160   37.5270 C.ar   82  PHE82      -0.0042
    130  CE1        3.0930   19.8290   39.1950 C.ar   82  PHE82      -0.0003
    131  CE2        5.3260   20.4820   38.6790 C.ar   82  PHE82      -0.0003
    132  CZ         4.2300   20.5470   39.5020 C.ar   82  PHE82      -0.0000
@<TRIPOS>BOND
     1    60    61    1
     2    61    62    1
     3    61    64    1
     4    62    63    2
     5    65    64    1
     6    53    52    2
     7    52    51    1
     8    64    66    1
     9    50    51    1
    10   125   124    2
    11    51    54    1
    12   124   123    1
    13    74    72    1
    14    54    55    1
    15   123   122    1
    16   123   126    1
    17    72    73    1
    18    72    71    1
    19   126   127    1
    20    55    56   ar
    21    55    57   ar
    22    56    58   ar
    23    48    47    1
    24    48    49    2
    25    91    92    1
    26    67    68    1
    27    47    46    1
    28    71    68    1
    29    68    69    1
    30    57    59   ar
    31   127   129   ar
    32   127   128   ar
    33    58    59   ar
    34   129   131   ar
    35    92    93    1
    36    92    95    1
    37    42    41    2
    38   128   130   ar
    39    46    41   am
    40   115   113    1
    41    69    70    2
    42    93    94    2
    43    95    96    1
    44   113   114    1
    45   113   112    1
    46   131   132   ar
    47    41    40    1
    48   108   109    1
    49   101   102    1
    50   130   132   ar
    51    96    97   ar
    52    96    98   ar
    53   109   112    1
    54   109   110    1
    55    97    99   ar
    56    45    43    1
    57    37    35    1
    58    40    39    1
    59    40    43    1
    60   102   103    1
    61   102   105    1
    62    39    33   am
    63    38    36    1
    64    44    43    1
    65   103   104    2
    66    98   100   ar
    67    99   100   ar
    68   110   111    2
    69   110   116   am
    70   107   105    1
    71   105   106    1
    72    35    36    1
    73    35    32    1
    74    75    76    1
    75    33    32    1
    76    33    34    2
    77   116   117    1
    78    32    31    1
    79    24    22    1
    80    76    79    1
    81    76    77    1
    82    23    21    1
    83    79    80    1
    84    28    27    2
    85    11    10    1
    86   118   117    1
    87   118   119    2
    88   117   120    1
    89    31    27   am
    90    12    10    1
    91    22    21    1
    92    77    78    2
    93    27    26    1
    94    21    18    1
    95   120   121    1
    96    10     9    1
    97     9     6    1
    98    26    25    1
    99    26    29    1
   100    18    19    1
   101    18    17    1
   102    25    19   am
   103    19    20    2
   104    29    30    1
   105     6     7    1
   106     6     5    1
   107    17    15   am
   108     8     7    2
   109     7    13   am
   110    16    15    2
   111    15    14    1
   112     5     3   am
   113    13    14    1
   114    81    82    1
   115     3     4    2
   116     3     2    1
   117    88    90   ar
   118    88    86   ar
   119    90    89   ar
   120     2     1    1
   121    84    83    2
   122    82    83    1
   123    82    85    1
   124    89    87   ar
   125    86    85    1
   126    86    87   ar
