@<TRIPOS>MOLECULE
tmp/4k6yA00.pdb
 157 150 0 0 0
SMALL
GASTEIGER

@<TRIPOS>ATOM
      1  N          2.7590   13.4170   25.2140 N.3    15  GLY15      -0.1210
      2  CA         3.0580   14.5020   24.2960 C.3    15  GLY15       0.1956
      3  C          2.8340   14.0650   22.8530 C.2    15  GLY15       0.2612
      4  O          2.2900   12.9850   22.5900 O.2    15  GLY15      -0.2717
      5  N          3.2650   14.8940   21.9120 N.am   16  LEU16      -0.1965
      6  CA         3.0920   14.5730   20.5010 C.3    16  LEU16       0.1728
      7  C          4.1060   13.5410   20.0360 C.2    16  LEU16       0.2617
      8  O          3.8420   12.7930   19.1030 O.2    16  LEU16      -0.2715
      9  CB         3.2300   15.8360   19.6420 C.3    16  LEU16       0.0311
     10  CG         2.1150   16.8650   19.8000 C.3    16  LEU16       0.0022
     11  CD1        2.5070   18.1870   19.1670 C.3    16  LEU16       0.0001
     12  CD2        0.8350   16.3270   19.1750 C.3    16  LEU16       0.0001
     13  N          5.2760   13.5140   20.6670 N.am   17  GLY17      -0.1940
     14  CA         6.3180   12.5830   20.2540 C.3    17  GLY17       0.2014
     15  C          7.1680   13.0960   19.1060 C.2    17  GLY17       0.2639
     16  O          7.6280   12.3260   18.2560 O.2    17  GLY17      -0.2714
     17  N          7.3910   14.4050   19.0660 N.am   18  ILE18      -0.1963
     18  CA         8.2860   14.9760   18.0610 C.3    18  ILE18       0.1727
     19  C          9.2010   15.9850   18.6980 C.2    18  ILE18       0.2617
     20  O          8.9180   16.5130   19.7780 O.2    18  ILE18      -0.2715
     21  CB         7.5350   15.6540   16.9040 C.3    18  ILE18       0.0290
     22  CG1        6.7440   16.8520   17.4090 C.3    18  ILE18       0.0022
     23  CG2        6.6130   14.6500   16.2140 C.3    18  ILE18       0.0023
     24  CD1        5.9930   17.6000   16.3010 C.3    18  ILE18       0.0001
     25  N         10.3160   16.2300   18.0330 N.am   19  SER19      -0.1936
     26  CA        11.0840   17.4180   18.3130 C.3    19  SER19       0.2055
     27  C         10.8870   18.3540   17.1540 C.2    19  SER19       0.2643
     28  O         10.8720   17.9290   15.9960 O.2    19  SER19      -0.2714
     29  CB        12.5640   17.1010   18.4650 C.3    19  SER19       0.2130
     30  OG        12.7770   16.3070   19.6150 O.3    19  SER19      -0.2179
     31  N         10.7350   19.6360   17.4680 N.am   20  ILE20      -0.1963
     32  CA        10.6510   20.6570   16.4380 C.3    20  ILE20       0.1727
     33  C         11.8190   21.6310   16.5310 C.2    20  ILE20       0.2617
     34  O         12.3540   21.8860   17.6220 O.2    20  ILE20      -0.2715
     35  CB         9.3080   21.4320   16.4840 C.3    20  ILE20       0.0290
     36  CG1        9.0880   22.0880   17.8510 C.3    20  ILE20       0.0022
     37  CG2        8.1440   20.5190   16.1010 C.3    20  ILE20       0.0023
     38  CD1        8.0890   23.2550   17.8160 C.3    20  ILE20       0.0001
     39  N         12.2180   22.1490   15.3770 N.am   21  THR21      -0.1937
     40  CA        13.2350   23.1770   15.2990 C.3    21  THR21       0.2028
     41  C         12.7570   24.2550   14.3360 C.2    21  THR21       0.2642
     42  O         11.7220   24.1070   13.6990 O.2    21  THR21      -0.2714
     43  CB        14.5860   22.5670   14.8690 C.3    21  THR21       0.1808
     44  OG1       15.6430   23.5060   15.1010 O.3    21  THR21      -0.2208
     45  CG2       14.5600   22.1410   13.4140 C.3    21  THR21       0.0379
     46  N         13.4790   25.3640   14.2680 N.am   22  GLY22      -0.1954
     47  CA        13.1000   26.4150   13.3500 C.3    22  GLY22       0.1869
     48  C         12.1360   27.3910   13.9750 C.2    22  GLY22       0.2309
     49  O         12.0060   27.4660   15.1980 O.2    22  GLY22      -0.2863
     50  N         11.7740   33.4520   13.7790 N.3    25  GLU25      -0.1231
     51  CA        12.9520   34.2370   14.1560 C.3    25  GLU25       0.1699
     52  C         14.2150   33.7010   13.4890 C.2    25  GLU25       0.2592
     53  O         15.2380   34.3850   13.4450 O.2    25  GLU25      -0.2718
     54  CB        13.1240   34.2910   15.6750 C.3    25  GLU25       0.0402
     55  CG        13.4530   32.9650   16.3090 C.3    25  GLU25       0.1161
     56  CD        12.2230   32.2480   16.8370 C.2    25  GLU25       0.3649
     57  OE1       11.3660   31.8380   16.0250 O.co2  25  GLU25      -0.2457
     58  OE2       12.1280   32.0990   18.0730 O.co2  25  GLU25      -0.2457
     59  N         14.1360   32.4870   12.9610 N.am   26  HIS26      -0.1976
     60  CA        15.2610   31.8620   12.2760 C.3    26  HIS26       0.1656
     61  C         15.0940   31.9090   10.7570 C.2    26  HIS26       0.2291
     62  O         15.9480   31.4190   10.0210 O.2    26  HIS26      -0.2864
     63  CB        15.4380   30.4200   12.7570 C.3    26  HIS26       0.0771
     64  CG        15.6110   30.3030   14.2390 C.ar   26  HIS26       0.0820
     65  ND1       16.6560   30.9040   14.9110 N.ar   26  HIS26      -0.2267
     66  CD2       14.8690   29.6780   15.1830 C.ar   26  HIS26       0.1154
     67  CE1       16.5520   30.6520   16.2010 C.ar   26  HIS26       0.1986
     68  NE2       15.4760   29.9060   16.3940 N.ar   26  HIS26      -0.2212
     69  N         12.8790   30.2630    9.0130 N.3    28  VAL28      -0.1245
     70  CA        12.4820   28.9640    8.4790 C.3    28  VAL28       0.1561
     71  C         11.2080   28.4930    9.1600 C.2    28  VAL28       0.2260
     72  O         10.8660   28.9690   10.2410 O.2    28  VAL28      -0.2867
     73  CB        13.5840   27.9110    8.6620 C.3    28  VAL28       0.0252
     74  CG1       14.8430   28.3230    7.9050 C.3    28  VAL28       0.0019
     75  CG2       13.8880   27.7050   10.1340 C.3    28  VAL28       0.0019
     76  N          9.9170   22.9710   11.8190 N.3    31  LEU31      -0.1245
     77  CA        10.3270   21.7330   11.1710 C.3    31  LEU31       0.1561
     78  C         10.4070   20.5880   12.1610 C.2    31  LEU31       0.2260
     79  O         10.8700   20.7630   13.2870 O.2    31  LEU31      -0.2867
     80  CB        11.7070   21.9270   10.5450 C.3    31  LEU31       0.0270
     81  CG        11.7720   22.9270    9.3930 C.3    31  LEU31       0.0019
     82  CD1       13.2000   23.3880    9.1860 C.3    31  LEU31       0.0001
     83  CD2       11.2400   22.2600    8.1430 C.3    31  LEU31       0.0001
     84  N         12.2830   17.7520   13.5430 N.3    33  SER33      -0.1202
     85  CA        13.6640   17.2690   13.5300 C.3    33  SER33       0.2020
     86  C         13.7960   15.8510   14.0760 C.2    33  SER33       0.2618
     87  O         14.7770   15.1720   13.7960 O.2    33  SER33      -0.2717
     88  CB        14.5820   18.2220   14.3030 C.3    33  SER33       0.2103
     89  OG        14.1890   18.3250   15.6540 O.3    33  SER33      -0.2182
     90  N         12.8060   15.4060   14.8450 N.am   34  GLU34      -0.1979
     91  CA        12.7980   14.0510   15.3850 C.3    34  GLU34       0.1602
     92  C         11.3830   13.5280   15.4830 C.2    34  GLU34       0.2287
     93  O         10.4620   14.2760   15.8080 O.2    34  GLU34      -0.2864
     94  CB        13.4180   13.9980   16.7840 C.3    34  GLU34       0.0415
     95  CG        14.8370   14.4890   16.8650 C.3    34  GLU34       0.1163
     96  CD        15.4520   14.2320   18.2260 C.2    34  GLU34       0.3649
     97  OE1       15.0060   14.8590   19.2120 O.co2  34  GLU34      -0.2457
     98  OE2       16.3730   13.3950   18.3130 O.co2  34  GLU34      -0.2457
     99  N          9.8570   10.5280   17.7140 N.3    36  HIS36      -0.1241
    100  CA        10.2870    9.6330   18.7790 C.3    36  HIS36       0.1621
    101  C          9.5720    8.2920   18.7370 C.2    36  HIS36       0.2264
    102  O          8.3520    8.2320   18.6140 O.2    36  HIS36      -0.2867
    103  CB        10.1440   10.3420   20.1190 C.3    36  HIS36       0.0745
    104  CG        10.9020   11.6270   20.1660 C.ar   36  HIS36       0.0817
    105  ND1       12.2740   11.6780   20.0470 N.ar   36  HIS36      -0.2268
    106  CD2       10.4820   12.9110   20.2590 C.ar   36  HIS36       0.1154
    107  CE1       12.6690   12.9390   20.0940 C.ar   36  HIS36       0.1986
    108  NE2       11.6010   13.7050   20.2160 N.ar   36  HIS36      -0.2212
    109  N          5.8230    6.8800   20.2150 N.3    39  GLN39      -0.1245
    110  CA         4.9680    7.9700   20.6890 C.3    39  GLN39       0.1566
    111  C          3.9480    8.3660   19.5980 C.2    39  GLN39       0.2260
    112  O          3.9820    7.8250   18.4970 O.2    39  GLN39      -0.2867
    113  CB         5.8250    9.1440   21.1920 C.3    39  GLN39       0.0367
    114  CG         6.6300    8.8240   22.4570 C.3    39  GLN39       0.0905
    115  CD         7.4060   10.0380   22.9890 C.2    39  GLN39       0.2608
    116  OE1        6.8250   11.0700   23.3570 O.2    39  GLN39      -0.2717
    117  NE2        8.7280    9.9130   23.0340 N.am   39  GLN39      -0.0878
    118  N          9.3850   30.1760   17.2920 N.3    66  HIS66      -0.1226
    119  CA         9.5700   28.8530   17.8660 C.3    66  HIS66       0.1752
    120  C          8.6760   28.5900   19.0870 C.2    66  HIS66       0.2595
    121  O          7.9350   27.6020   19.1420 O.2    66  HIS66      -0.2718
    122  CB        11.0410   28.6330   18.2410 C.3    66  HIS66       0.0759
    123  CG        11.3310   27.2460   18.7060 C.ar   66  HIS66       0.0818
    124  ND1       11.6630   26.2290   17.8370 N.ar   66  HIS66      -0.2268
    125  CD2       11.3100   26.6940   19.9430 C.ar   66  HIS66       0.1154
    126  CE1       11.8460   25.1140   18.5190 C.ar   66  HIS66       0.1986
    127  NE2       11.6280   25.3650   19.7970 N.ar   66  HIS66      -0.2212
    128  N          8.7570   29.4640   20.0830 N.am   67  LYS67      -0.1980
    129  CA         8.0170   29.2270   21.3210 C.3    67  LYS67       0.1596
    130  C          6.5150   29.4160   21.1720 C.2    67  LYS67       0.2287
    131  O          5.7370   28.7970   21.8900 O.2    67  LYS67      -0.2864
    132  CB         8.5720   30.0710   22.4660 C.3    67  LYS67       0.0298
    133  CG         9.9940   29.6800   22.8480 C.3    67  LYS67       0.0038
    134  CD        10.5230   30.4980   24.0320 C.3    67  LYS67       0.0206
    135  CE         9.8550   30.0690   25.3210 C.3    67  LYS67       0.1093
    136  NZ        10.2650   30.9360   26.4770 N.3    67  LYS67      -0.1314
    137  N          5.4760   26.0470   20.0350 N.3    70  VAL70      -0.1245
    138  CA         5.4490   25.1020   21.1390 C.3    70  VAL70       0.1561
    139  C          4.1360   25.2360   21.9190 C.2    70  VAL70       0.2260
    140  O          3.4670   24.2450   22.1770 O.2    70  VAL70      -0.2867
    141  CB         6.6570   25.2810   22.0790 C.3    70  VAL70       0.0252
    142  CG1        6.4670   24.4720   23.3460 C.3    70  VAL70       0.0019
    143  CG2        7.9620   24.8820   21.3740 C.3    70  VAL70       0.0019
    144  N          1.1710   23.9940   19.6650 N.3    73  LEU73      -0.1231
    145  CA         1.2040   22.5490   19.4720 C.3    73  LEU73       0.1693
    146  C          0.8730   21.7690   20.7390 C.2    73  LEU73       0.2592
    147  O          0.1000   20.8100   20.6960 O.2    73  LEU73      -0.2718
    148  CB         2.5570   22.1220   18.8870 C.3    73  LEU73       0.0284
    149  CG         2.7010   22.4830   17.4020 C.3    73  LEU73       0.0019
    150  CD1        4.1630   22.5870   17.0120 C.3    73  LEU73       0.0001
    151  CD2        1.9560   21.4840   16.5060 C.3    73  LEU73       0.0001
    152  N          1.4650   22.1710   21.8620 N.am   74  SER74      -0.1952
    153  CA         1.2430   21.4760   23.1250 C.3    74  SER74       0.1924
    154  C         -0.1710   21.6120   23.6840 C.2    74  SER74       0.2314
    155  O         -0.5730   20.7970   24.5270 O.2    74  SER74      -0.2863
    156  CB         2.2600   21.9430   24.1670 C.3    74  SER74       0.2116
    157  OG         3.5510   21.4750   23.8340 O.3    74  SER74      -0.2180
@<TRIPOS>BOND
     1    74    73    1
     2    83    81    1
     3    70    73    1
     4    70    69    1
     5    70    71    1
     6    73    75    1
     7    71    72    2
     8    82    81    1
     9    81    80    1
    10    62    61    2
    11    80    77    1
    12    61    60    1
    13    77    76    1
    14    77    78    1
    15    78    79    2
    16    60    63    1
    17    60    59    1
    18    63    64    1
    19    59    52   am
    20    47    48    1
    21    47    46    1
    22    45    43    1
    23    53    52    2
    24    52    51    1
    25    85    84    1
    26    85    86    1
    27    85    88    1
    28    42    41    2
    29    50    51    1
    30    87    86    2
    31    48    49    2
    32    86    90   am
    33    51    54    1
    34    64    65   ar
    35    64    66   ar
    36    46    41   am
    37    88    89    1
    38    41    40    1
    39    90    91    1
    40    43    44    1
    41    43    40    1
    42    65    67   ar
    43    66    68   ar
    44    40    39    1
    45    39    33   am
    46    91    92    1
    47    91    94    1
    48    92    93    2
    49    54    55    1
    50    28    27    2
    51    57    56   ar
    52    37    35    1
    53    67    68   ar
    54    23    21    1
    55    24    22    1
    56    55    56    1
    57    32    35    1
    58    32    33    1
    59    32    31    1
    60    35    36    1
    61   151   149    1
    62    33    34    2
    63    94    95    1
    64    56    58   ar
    65    95    96    1
    66    21    22    1
    67    21    18    1
    68   150   149    1
    69    27    31   am
    70    27    26    1
    71   118   119    1
    72   149   148    1
    73    99   100    1
    74    38    36    1
    75   124   126   ar
    76   124   123   ar
    77   119   122    1
    78   119   120    1
    79    25    26    1
    80    25    19   am
    81    18    19    1
    82    18    17    1
    83    96    98   ar
    84    96    97   ar
    85   122   123    1
    86    16    15    2
    87    26    29    1
    88    29    30    1
    89   112   111    2
    90   126   127   ar
    91   102   101    2
    92    19    20    2
    93   123   125   ar
    94   101   100    1
    95   100   103    1
    96   148   145    1
    97    17    15   am
    98   120   121    2
    99   120   128   am
   100     8     7    2
   101    15    14    1
   102    11    10    1
   103    12    10    1
   104   145   144    1
   105   145   146    1
   106   111   110    1
   107     9    10    1
   108     9     6    1
   109   127   125   ar
   110   137   138    1
   111     7     6    1
   112     7    13   am
   113   105   107   ar
   114   105   104   ar
   115   128   129    1
   116   107   108   ar
   117   103   104    1
   118   104   106   ar
   119   109   110    1
   120   108   106   ar
   121    14    13    1
   122     6     5    1
   123   110   113    1
   124   147   146    2
   125   146   152   am
   126   138   139    1
   127   138   141    1
   128   130   129    1
   129   130   131    2
   130   113   114    1
   131   129   132    1
   132   143   141    1
   133   152   153    1
   134     5     3   am
   135   139   140    2
   136   141   142    1
   137   114   115    1
   138   132   133    1
   139     4     3    2
   140   133   134    1
   141     3     2    1
   142   115   117   am
   143   115   116    2
   144   153   154    1
   145   153   156    1
   146   154   155    2
   147   157   156    1
   148   134   135    1
   149     2     1    1
   150   135   136    1
