@<TRIPOS>MOLECULE
tmp/4k6zA00.pdb
 149 139 0 0 0
SMALL
GASTEIGER

@<TRIPOS>ATOM
      1  N         26.3920    4.3190  -10.4980 N.3    15  ARG15      -0.1245
      2  CA        25.4330    3.3330   -9.9970 C.3    15  ARG15       0.1563
      3  C         24.8060    3.7990   -8.6880 C.2    15  ARG15       0.2260
      4  O         25.4180    4.5560   -7.9320 O.2    15  ARG15      -0.2867
      5  CB        26.0640    1.9190   -9.8280 C.3    15  ARG15       0.0307
      6  CG        27.3640    1.8680   -9.0280 C.3    15  ARG15       0.0489
      7  CD        27.8500    0.4420   -8.8530 C.3    15  ARG15       0.2205
      8  NE        29.0800    0.3540   -8.0570 N.pl3  15  ARG15      -0.0865
      9  CZ        29.1160    0.0710   -6.7550 C.cat  15  ARG15       0.5346
     10  NH1       27.9890   -0.1410   -6.0800 N.pl3  15  ARG15       0.1354
     11  NH2       30.2780    0.0000   -6.1180 N.pl3  15  ARG15       0.1354
     12  N         23.9170    3.3350   -5.0040 N.3    17  LEU17      -0.1231
     13  CA        24.5420    2.6310   -3.8840 C.3    17  LEU17       0.1693
     14  C         23.4640    2.1300   -2.9190 C.2    17  LEU17       0.2593
     15  O         23.2450    0.9310   -2.8180 O.2    17  LEU17      -0.2718
     16  CB        25.5820    3.5150   -3.1510 C.3    17  LEU17       0.0284
     17  CG        26.9540    3.7000   -3.7960 C.3    17  LEU17       0.0019
     18  CD1       27.7380    4.8170   -3.1050 C.3    17  LEU17       0.0001
     19  CD2       27.7510    2.4410   -3.7420 C.3    17  LEU17       0.0001
     20  N         22.7880    3.0500   -2.2510 N.am   18  GLY18      -0.1942
     21  CA        21.7670    2.7030   -1.2760 C.3    18  GLY18       0.2014
     22  C         20.5730    3.6290   -1.2300 C.2    18  GLY18       0.2639
     23  O         20.6580    4.8050   -1.6040 O.2    18  GLY18      -0.2714
     24  N         19.4470    3.0770   -0.7610 N.am   19  GLU19      -0.1963
     25  CA        18.1810    3.7820   -0.6150 C.3    19  GLU19       0.1733
     26  C         17.9560    4.1210    0.8570 C.2    19  GLU19       0.2616
     27  O         18.1190    3.2540    1.7260 O.2    19  GLU19      -0.2715
     28  CB        17.0250    2.9210   -1.1570 C.3    19  GLU19       0.0429
     29  CG        15.7210    3.6770   -1.3310 C.3    19  GLU19       0.1163
     30  CD        15.1980    3.6420   -2.7510 C.2    19  GLU19       0.3649
     31  OE1       14.5000    2.6620   -3.1020 O.co2  19  GLU19      -0.2457
     32  OE2       15.5110    4.5780   -3.5230 O.co2  19  GLU19      -0.2457
     33  N         17.5950    5.3790    1.1050 N.am   20  GLY20      -0.1955
     34  CA        17.2780    5.9060    2.4300 C.3    20  GLY20       0.1869
     35  C         15.8100    6.2720    2.5370 C.2    20  GLY20       0.2309
     36  O         15.0720    6.1640    1.5500 O.2    20  GLY20      -0.2863
     37  N         21.1080    7.5150   -2.2390 N.3    25  VAL25      -0.1245
     38  CA        22.5740    7.5600   -2.2900 C.3    25  VAL25       0.1561
     39  C         23.1130    6.8300   -3.5220 C.2    25  VAL25       0.2260
     40  O         23.0240    5.6060   -3.5980 O.2    25  VAL25      -0.2867
     41  CB        23.2660    7.1020   -0.9730 C.3    25  VAL25       0.0252
     42  CG1       24.7830    7.1490   -1.1040 C.3    25  VAL25       0.0019
     43  CG2       22.8200    7.9580    0.2010 C.3    25  VAL25       0.0019
     44  N         30.2530    9.3680   -2.9330 N.3    42  ALA42      -0.1245
     45  CA        28.8780    8.9560   -2.6410 C.3    42  ALA42       0.1562
     46  C         28.0560   10.2200   -2.5460 C.2    42  ALA42       0.2260
     47  O         28.4860   11.2040   -1.9190 O.2    42  ALA42      -0.2867
     48  CB        28.8140    8.1770   -1.3520 C.3    42  ALA42       0.0290
     49  N         31.3230    8.1870    8.6950 N.3    69  VAL69      -0.1245
     50  CA        31.5950    8.4730    7.2720 C.3    69  VAL69       0.1561
     51  C         32.0440    9.9210    7.0860 C.2    69  VAL69       0.2260
     52  O         31.4840   10.8250    7.6920 O.2    69  VAL69      -0.2867
     53  CB        30.4080    8.0590    6.3370 C.3    69  VAL69       0.0252
     54  CG1       29.1540    8.9020    6.5630 C.3    69  VAL69       0.0019
     55  CG2       30.8110    8.0670    4.8650 C.3    69  VAL69       0.0019
     56  N         29.4290   12.7210    0.2380 N.3    83  MET83      -0.1230
     57  CA        30.1500   11.8850    1.2160 C.3    83  MET83       0.1702
     58  C         31.3000   11.0940    0.5790 C.2    83  MET83       0.2592
     59  O         31.4190   11.0500   -0.6470 O.2    83  MET83      -0.2718
     60  CB        29.1920   10.8920    1.8920 C.3    83  MET83       0.0401
     61  CG        28.1820   11.5300    2.7810 C.3    83  MET83       0.0596
     62  SD        26.8920   10.3600    3.2420 S.3    83  MET83      -0.1393
     63  CE        25.9660   10.2480    1.6990 C.3    83  MET83       0.0692
     64  N         32.1330   10.4470    1.4020 N.am   84  GLU84      -0.1966
     65  CA        33.1640    9.5690    0.8410 C.3    84  GLU84       0.1733
     66  C         32.5070    8.2530    0.3990 C.2    84  GLU84       0.2616
     67  O         31.4120    7.8930    0.8680 O.2    84  GLU84      -0.2715
     68  CB        34.3470    9.3020    1.8010 C.3    84  GLU84       0.0429
     69  CG        33.9650    8.6020    3.0920 C.3    84  GLU84       0.1163
     70  CD        35.0640    8.3650    4.1100 C.2    84  GLU84       0.3649
     71  OE1       36.2590    8.4200    3.7390 O.co2  84  GLU84      -0.2457
     72  OE2       34.7220    8.0970    5.2830 O.co2  84  GLU84      -0.2457
     73  N         33.1690    7.5730   -0.5370 N.am   85  PHE85      -0.1960
     74  CA        32.7260    6.3080   -1.0800 C.3    85  PHE85       0.1771
     75  C         33.5680    5.1800   -0.4510 C.2    85  PHE85       0.2619
     76  O         34.8000    5.2400   -0.4650 O.2    85  PHE85      -0.2715
     77  CB        32.8140    6.3550   -2.6190 C.3    85  PHE85       0.0574
     78  CG        32.7990    5.0370   -3.3460 C.ar   85  PHE85      -0.0200
     79  CD1       31.7050    4.1780   -3.2470 C.ar   85  PHE85      -0.0042
     80  CD2       33.8580    4.6660   -4.1610 C.ar   85  PHE85      -0.0042
     81  CE1       31.6880    2.9500   -3.9250 C.ar   85  PHE85      -0.0003
     82  CE2       33.8430    3.4380   -4.8340 C.ar   85  PHE85      -0.0003
     83  CZ        32.7600    2.5840   -4.6990 C.ar   85  PHE85      -0.0000
     84  N         32.8890    4.1860    0.1470 N.am   86  LEU86      -0.1977
     85  CA        33.5200    3.0170    0.7550 C.3    86  LEU86       0.1596
     86  C         33.1720    1.8250   -0.1420 C.2    86  LEU86       0.2287
     87  O         32.0220    1.3830   -0.1670 O.2    86  LEU86      -0.2864
     88  CB        33.0730    2.8310    2.2250 C.3    86  LEU86       0.0297
     89  CG        33.8430    3.6170    3.3210 C.3    86  LEU86       0.0022
     90  CD1       33.7850    5.0980    3.1160 C.3    86  LEU86       0.0001
     91  CD2       33.2480    3.3660    4.6910 C.3    86  LEU86       0.0001
     92  N         31.0060   -1.4350    0.6600 N.3    89  GLY89      -0.1210
     93  CA        29.5860   -1.2260    0.8720 C.3    89  GLY89       0.1956
     94  C         29.1430   -1.3280    2.3110 C.2    89  GLY89       0.2612
     95  O         29.9340   -1.0950    3.2280 O.2    89  GLY89      -0.2717
     96  N         27.8540   -1.6310    2.5120 N.am   90  SER90      -0.1952
     97  CA        27.2980   -1.7500    3.8450 C.3    90  SER90       0.1924
     98  C         27.4170   -3.1740    4.4080 C.2    90  SER90       0.2314
     99  O         27.6520   -4.1200    3.6490 O.2    90  SER90      -0.2863
    100  CB        25.8700   -1.2180    3.8850 C.3    90  SER90       0.2116
    101  OG        24.8930   -2.1360    3.4310 O.3    90  SER90      -0.2180
    102  N         25.2700   -6.2260    2.7790 N.3    93  GLU93      -0.1245
    103  CA        25.7350   -7.0300    1.6330 C.3    93  GLU93       0.1567
    104  C         27.1650   -7.5440    1.7860 C.2    93  GLU93       0.2260
    105  O         27.5680   -8.4430    1.0500 O.2    93  GLU93      -0.2867
    106  CB        25.6230   -6.2730    0.2930 C.3    93  GLU93       0.0388
    107  CG        24.4160   -5.3720    0.1440 C.3    93  GLU93       0.1160
    108  CD        24.7010   -3.9400    0.5380 C.2    93  GLU93       0.3649
    109  OE1       25.8900   -3.6000    0.7580 O.co2  93  GLU93      -0.2457
    110  OE2       23.7280   -3.1530    0.6140 O.co2  93  GLU93      -0.2457
    111  N         22.0850   -1.8590    7.8890 N.3   134  ARG134     -0.1231
    112  CA        22.1110   -1.2920    6.5390 C.3   134  ARG134      0.1694
    113  C         22.7240    0.1380    6.5740 C.2   134  ARG134      0.2592
    114  O         23.0360    0.6880    5.5130 O.2   134  ARG134     -0.2718
    115  CB        20.6950   -1.2800    5.9300 C.3   134  ARG134      0.0321
    116  CG        19.7430   -0.4350    6.7540 C.3   134  ARG134      0.0489
    117  CD        18.2850   -0.3570    6.3200 C.3   134  ARG134      0.2205
    118  NE        17.5140    0.1180    7.4750 N.pl3 134  ARG134     -0.0865
    119  CZ        17.3570    1.3990    7.8190 C.cat 134  ARG134      0.5346
    120  NH1       17.8440    2.3690    7.0490 N.pl3 134  ARG134      0.1354
    121  NH2       16.6940    1.7180    8.9190 N.pl3 134  ARG134      0.1354
    122  N         22.8830    0.7460    7.7960 N.am  135  ASN135     -0.1974
    123  CA        23.4480    2.1080    7.9350 C.3   135  ASN135      0.1688
    124  C         24.9050    2.0970    8.3930 C.2   135  ASN135      0.2292
    125  O         25.4410    3.1490    8.7470 O.2   135  ASN135     -0.2864
    126  CB        22.5740    3.0110    8.8150 C.3   135  ASN135      0.1181
    127  CG        21.1650    3.1760    8.2830 C.2   135  ASN135      0.2629
    128  OD1       20.2110    2.5780    8.9630 O.2   135  ASN135     -0.2716
    129  ND2       20.9250    3.7650    7.2210 N.am  135  ASN135     -0.0877
    130  N         28.6550    1.1340    7.0860 N.3   137  LEU137     -0.1245
    131  CA        29.5450    0.9280    5.9420 C.3   137  LEU137      0.1561
    132  C         30.8690    0.2810    6.3650 C.2   137  LEU137      0.2260
    133  O         31.3220    0.4730    7.4910 O.2   137  LEU137     -0.2867
    134  CB        29.7730    2.2730    5.2280 C.3   137  LEU137      0.0270
    135  CG        28.5120    2.9280    4.6800 C.3   137  LEU137      0.0019
    136  CD1       28.8080    4.3270    4.1830 C.3   137  LEU137      0.0001
    137  CD2       27.8680    2.0860    3.5770 C.3   137  LEU137      0.0001
    138  N         27.3900    5.2610    8.2760 N.3   147  GLY147     -0.1210
    139  CA        27.2990    5.9450    6.9940 C.3   147  GLY147      0.1956
    140  C         26.0330    6.7020    6.6590 C.2   147  GLY147      0.2611
    141  O         25.9010    7.1760    5.5320 O.2   147  GLY147     -0.2717
    142  N         25.0870    6.8190    7.5910 N.am  148  ASP148     -0.1973
    143  CA        23.8670    7.5770    7.2960 C.3   148  ASP148      0.1709
    144  C         23.3480    8.2340    8.5420 C.2   148  ASP148      0.2293
    145  O         23.3300    7.5830    9.5900 O.2   148  ASP148     -0.2864
    146  CB        22.7680    6.7040    6.7010 C.3   148  ASP148      0.1436
    147  CG        21.7320    7.5150    5.9840 C.2   148  ASP148      0.3671
    148  OD1       21.8970    7.7330    4.7680 O.co2 148  ASP148     -0.2456
    149  OD2       20.7780    7.9880    6.6500 O.co2 148  ASP148     -0.2456
@<TRIPOS>BOND
     1     1     2    1
     2     2     5    1
     3     2     3    1
     4     5     6    1
     5     6     7    1
     6     7     8    1
     7     3     4    2
     8     8     9    2
     9     9    11    1
    10     9    10    1
    11    12    13    1
    12    82    83   ar
    13    82    80   ar
    14    83    81   ar
    15    80    78   ar
    16    81    79   ar
    17    13    16    1
    18    13    14    1
    19    17    19    1
    20    17    16    1
    21    17    18    1
    22    40    39    2
    23    32    30   ar
    24    39    38    1
    25    78    79   ar
    26    78    77    1
    27    31    30   ar
    28    44    45    1
    29    14    15    2
    30    14    20   am
    31    30    29    1
    32    45    46    1
    33    45    48    1
    34    77    74    1
    35    46    47    2
    36    38    37    1
    37    38    41    1
    38    20    21    1
    39    23    22    2
    40    29    28    1
    41    21    22    1
    42    22    24   am
    43    28    25    1
    44    42    41    1
    45    74    73    1
    46    74    75    1
    47    41    43    1
    48    24    25    1
    49    59    58    2
    50    25    26    1
    51    73    66   am
    52    76    75    2
    53    75    84   am
    54    87    86    2
    55    86    85    1
    56   107   106    1
    57   107   108    1
    58    84    85    1
    59    56    57    1
    60   106   103    1
    61    66    65    1
    62    66    67    2
    63   108   110   ar
    64   108   109   ar
    65    58    57    1
    66    58    64   am
    67    92    93    1
    68    85    88    1
    69    65    64    1
    70    65    68    1
    71    26    33   am
    72    26    27    2
    73    93    94    1
    74   105   104    2
    75    33    34    1
    76    57    60    1
    77    36    35    2
    78   103   104    1
    79   103   102    1
    80    63    62    1
    81    68    69    1
    82    60    61    1
    83    88    89    1
    84    94    96   am
    85    94    95    2
    86    34    35    1
    87    96    97    1
    88    61    62    1
    89    69    70    1
    90    90    89    1
    91    89    91    1
    92   101   100    1
    93   137   135    1
    94    99    98    2
    95    71    70   ar
    96    97   100    1
    97    97    98    1
    98    70    72   ar
    99   136   135    1
   100   135   134    1
   101   148   147   ar
   102    55    53    1
   103   134   131    1
   104   114   113    2
   105   141   140    2
   106   115   112    1
   107   115   116    1
   108   131   132    1
   109   131   130    1
   110   147   149   ar
   111   147   146    1
   112   117   116    1
   113   117   118    1
   114    53    54    1
   115    53    50    1
   116   132   133    2
   117   112   113    1
   118   112   111    1
   119   113   122   am
   120   140   139    1
   121   140   142   am
   122   146   143    1
   123   139   138    1
   124   120   119    1
   125    51    50    1
   126    51    52    2
   127   129   127   am
   128    50    49    1
   129   143   142    1
   130   143   144    1
   131   118   119    2
   132   122   123    1
   133   119   121    1
   134   123   124    1
   135   123   126    1
   136   127   126    1
   137   127   128    2
   138   124   125    2
   139   144   145    2
