@<TRIPOS>MOLECULE
tmp/4k72A00.pdb
 101 97 0 0 0
SMALL
GASTEIGER

@<TRIPOS>ATOM
      1  N         10.3500   24.7320   51.8560 N.3    15  GLY15      -0.1210
      2  CA         9.6630   24.5110   50.5950 C.3    15  GLY15       0.1956
      3  C         10.0140   25.6090   49.6100 C.2    15  GLY15       0.2612
      4  O         10.9100   26.4150   49.8570 O.2    15  GLY15      -0.2717
      5  N          9.3160   25.6350   48.4840 N.am   16  LEU16      -0.1965
      6  CA         9.5240   26.6750   47.4880 C.3    16  LEU16       0.1728
      7  C          8.8280   27.9540   47.9100 C.2    16  LEU16       0.2617
      8  O          9.2820   29.0490   47.5940 O.2    16  LEU16      -0.2715
      9  CB         8.9950   26.2150   46.1260 C.3    16  LEU16       0.0311
     10  CG         9.8430   25.1520   45.4320 C.3    16  LEU16       0.0022
     11  CD1        9.1490   24.6490   44.1450 C.3    16  LEU16       0.0001
     12  CD2       11.2170   25.7130   45.1280 C.3    16  LEU16       0.0001
     13  N          7.7250   27.7980   48.6360 N.am   17  GLY17      -0.1940
     14  CA         6.9300   28.9190   49.0990 C.3    17  GLY17       0.2014
     15  C          5.9360   29.4170   48.0580 C.2    17  GLY17       0.2639
     16  O          5.6780   30.6130   47.9530 O.2    17  GLY17      -0.2714
     17  N          5.3860   28.4900   47.2820 N.am   18  ILE18      -0.1963
     18  CA         4.3940   28.8280   46.2730 C.3    18  ILE18       0.1727
     19  C          3.2090   27.8880   46.3650 C.2    18  ILE18       0.2617
     20  O          3.3370   26.7580   46.8340 O.2    18  ILE18      -0.2715
     21  CB         4.9760   28.7160   44.8390 C.3    18  ILE18       0.0290
     22  CG1        5.3390   27.2600   44.5270 C.3    18  ILE18       0.0022
     23  CG2        6.1960   29.6000   44.6910 C.3    18  ILE18       0.0023
     24  CD1        5.9510   27.0500   43.1360 C.3    18  ILE18       0.0001
     25  N          2.0510   28.3720   45.9310 N.am   19  SER19      -0.1936
     26  CA         0.9460   27.4970   45.6010 C.3    19  SER19       0.2055
     27  C          0.7450   27.6020   44.0900 C.2    19  SER19       0.2643
     28  O          0.9400   28.6660   43.5010 O.2    19  SER19      -0.2714
     29  CB        -0.3180   27.8920   46.3580 C.3    19  SER19       0.2130
     30  OG        -0.1040   27.8470   47.7650 O.3    19  SER19      -0.2179
     31  N          0.3860   26.4900   43.4600 N.am   20  ILE20      -0.1963
     32  CA         0.1800   26.4940   42.0180 C.3    20  ILE20       0.1727
     33  C         -1.1790   25.9160   41.6310 C.2    20  ILE20       0.2616
     34  O         -1.7520   25.0980   42.3490 O.2    20  ILE20      -0.2715
     35  CB         1.3120   25.7430   41.2440 C.3    20  ILE20       0.0290
     36  CG1        1.3230   24.2500   41.5830 C.3    20  ILE20       0.0022
     37  CG2        2.6750   26.3760   41.5160 C.3    20  ILE20       0.0023
     38  CD1        2.0590   23.3860   40.5500 C.3    20  ILE20       0.0001
     39  N         -1.6890   26.3760   40.4940 N.am   21  THR21      -0.1951
     40  CA        -2.9020   25.8380   39.8940 C.3    21  THR21       0.1897
     41  C         -2.6010   25.5130   38.4250 C.2    21  THR21       0.2313
     42  O         -1.5180   25.8330   37.9190 O.2    21  THR21      -0.2863
     43  CB        -4.0580   26.8660   39.9480 C.3    21  THR21       0.1794
     44  OG1       -3.7070   28.0280   39.1830 O.3    21  THR21      -0.2208
     45  CG2       -4.3390   27.2930   41.3820 C.3    21  THR21       0.0378
     46  N         -0.4240   30.7370   42.1940 N.3    33  SER33      -0.1202
     47  CA        -1.6140   31.3510   42.7720 C.3    33  SER33       0.2020
     48  C         -1.3220   32.0100   44.1300 C.2    33  SER33       0.2618
     49  O         -2.0160   32.9380   44.5370 O.2    33  SER33      -0.2717
     50  CB        -2.7210   30.3110   42.9320 C.3    33  SER33       0.2103
     51  OG        -2.2670   29.2070   43.6940 O.3    33  SER33      -0.2182
     52  N         -0.3000   31.5170   44.8260 N.am   34  GLU34      -0.1979
     53  CA         0.1490   32.1250   46.0780 C.3    34  GLU34       0.1602
     54  C          1.6710   32.2300   46.1880 C.2    34  GLU34       0.2287
     55  O          2.4040   31.3470   45.7290 O.2    34  GLU34      -0.2864
     56  CB        -0.3700   31.3320   47.2750 C.3    34  GLU34       0.0415
     57  CG        -1.8690   31.3460   47.4480 C.3    34  GLU34       0.1163
     58  CD        -2.2730   30.8540   48.8260 C.2    34  GLU34       0.3649
     59  OE1       -2.4370   29.6280   48.9990 O.co2  34  GLU34      -0.2457
     60  OE2       -2.4030   31.6930   49.7420 O.co2  34  GLU34      -0.2457
     61  N          4.1260   32.5380   49.3540 N.3    36  HIS36      -0.1241
     62  CA         4.1010   32.4880   50.8160 C.3    36  HIS36       0.1621
     63  C          5.1430   33.3970   51.4860 C.2    36  HIS36       0.2264
     64  O          6.3320   33.3210   51.1980 O.2    36  HIS36      -0.2867
     65  CB         4.2290   31.0460   51.2860 C.3    36  HIS36       0.0745
     66  CG         3.2650   30.1280   50.6130 C.ar   36  HIS36       0.0817
     67  ND1        3.5510   28.8070   50.3470 N.ar   36  HIS36      -0.2268
     68  CD2        2.0260   30.3530   50.1170 C.ar   36  HIS36       0.1154
     69  CE1        2.5240   28.2550   49.7270 C.ar   36  HIS36       0.1986
     70  NE2        1.5870   29.1730   49.5730 N.ar   36  HIS36      -0.2212
     71  N         -0.8120   18.6590   36.1680 N.3    66  HIS66      -0.1241
     72  CA        -0.6260   19.2650   37.4840 C.3    66  HIS66       0.1621
     73  C          0.2050   18.4110   38.4480 C.2    66  HIS66       0.2264
     74  O          1.1690   18.9000   39.0120 O.2    66  HIS66      -0.2867
     75  CB        -1.9790   19.6190   38.1130 C.3    66  HIS66       0.0745
     76  CG        -1.8660   20.4310   39.3650 C.ar   66  HIS66       0.0817
     77  ND1       -1.8400   21.8090   39.3580 N.ar   66  HIS66      -0.2268
     78  CD2       -1.7760   20.0580   40.6650 C.ar   66  HIS66       0.1154
     79  CE1       -1.7330   22.2490   40.6000 C.ar   66  HIS66       0.1986
     80  NE2       -1.6910   21.2070   41.4120 N.ar   66  HIS66      -0.2212
     81  N          3.8480   19.2840   40.1270 N.3    70  VAL70      -0.1245
     82  CA         4.0210   19.3760   41.5870 C.3    70  VAL70       0.1561
     83  C          5.2290   18.5300   41.9970 C.2    70  VAL70       0.2260
     84  O          6.1160   19.0000   42.7060 O.2    70  VAL70      -0.2867
     85  CB         2.7370   18.9520   42.3630 C.3    70  VAL70       0.0252
     86  CG1        3.0210   18.7650   43.8570 C.3    70  VAL70       0.0019
     87  CG2        1.6080   19.9760   42.1560 C.3    70  VAL70       0.0019
     88  N          8.6320   20.0160   40.7710 N.3    73  LEU73      -0.1231
     89  CA         8.8940   21.2270   41.5350 C.3    73  LEU73       0.1693
     90  C          9.3640   20.8770   42.9370 C.2    73  LEU73       0.2592
     91  O         10.3090   21.4690   43.4510 O.2    73  LEU73      -0.2718
     92  CB         7.6370   22.1080   41.5850 C.3    73  LEU73       0.0284
     93  CG         7.3300   22.8350   40.2750 C.3    73  LEU73       0.0019
     94  CD1        5.8810   23.2820   40.1770 C.3    73  LEU73       0.0001
     95  CD2        8.2830   24.0270   40.1310 C.3    73  LEU73       0.0001
     96  N          8.7080   19.8950   43.5430 N.am   74  SER74      -0.1952
     97  CA         9.0460   19.4820   44.9110 C.3    74  SER74       0.1924
     98  C         10.4070   18.7820   45.0270 C.2    74  SER74       0.2314
     99  O         10.9580   18.6370   46.1320 O.2    74  SER74      -0.2863
    100  CB         7.9380   18.5980   45.4960 C.3    74  SER74       0.2116
    101  OG         8.0130   17.2750   44.9890 O.3    74  SER74      -0.2180
@<TRIPOS>BOND
     1    71    72    1
     2    72    75    1
     3    72    73    1
     4    42    41    2
     5    75    76    1
     6    41    40    1
     7    73    74    2
     8    44    43    1
     9    77    76   ar
    10    77    79   ar
    11    76    78   ar
    12    40    43    1
    13    40    39    1
    14    43    45    1
    15    81    82    1
    16    95    93    1
    17    94    93    1
    18    93    92    1
    19    39    33   am
    20    38    36    1
    21    79    80   ar
    22    78    80   ar
    23    88    89    1
    24    35    37    1
    25    35    36    1
    26    35    32    1
    27    89    92    1
    28    89    90    1
    29    82    83    1
    30    82    85    1
    31    33    32    1
    32    33    34    2
    33    83    84    2
    34    32    31    1
    35    87    85    1
    36    46    47    1
    37    85    86    1
    38    47    50    1
    39    47    48    1
    40    50    51    1
    41    90    91    2
    42    90    96   am
    43    24    22    1
    44    31    27   am
    45    28    27    2
    46    96    97    1
    47    27    26    1
    48    48    49    2
    49    48    52   am
    50    11    10    1
    51    22    21    1
    52    23    21    1
    53    52    53    1
    54    21    18    1
    55    97    98    1
    56    97   100    1
    57   101   100    1
    58    98    99    2
    59    12    10    1
    60    10     9    1
    61    26    25    1
    62    26    29    1
    63    55    54    2
    64    25    19   am
    65    53    54    1
    66    53    56    1
    67     9     6    1
    68    18    19    1
    69    18    17    1
    70    29    30    1
    71    19    20    2
    72    56    57    1
    73    17    15   am
    74    57    58    1
    75     6     7    1
    76     6     5    1
    77     8     7    2
    78     7    13   am
    79    16    15    2
    80    15    14    1
    81     5     3   am
    82    13    14    1
    83    58    59   ar
    84    58    60   ar
    85    61    62    1
    86    70    69   ar
    87    70    68   ar
    88     3     4    2
    89     3     2    1
    90    69    67   ar
    91    68    66   ar
    92    67    66   ar
    93     2     1    1
    94    66    65    1
    95    62    65    1
    96    62    63    1
    97    64    63    2
