@<TRIPOS>MOLECULE
tmp/4k72B00.pdb
 149 143 0 0 0
SMALL
GASTEIGER

@<TRIPOS>ATOM
      1  N         14.4140   34.9430   27.9740 N.3    15  GLY15      -0.1210
      2  CA        14.2360   33.8570   27.0280 C.3    15  GLY15       0.1956
      3  C         14.6800   34.3370   25.6490 C.2    15  GLY15       0.2612
      4  O         15.3320   35.3760   25.5280 O.2    15  GLY15      -0.2717
      5  N         14.3380   33.5810   24.6100 N.am   16  LEU16      -0.1965
      6  CA        14.7140   33.9470   23.2420 C.3    16  LEU16       0.1728
      7  C         13.8120   35.0390   22.6570 C.2    16  LEU16       0.2617
      8  O         14.2580   35.8820   21.8570 O.2    16  LEU16      -0.2715
      9  CB        14.6870   32.7120   22.3380 C.3    16  LEU16       0.0311
     10  CG        15.6810   31.6120   22.7260 C.3    16  LEU16       0.0022
     11  CD1       15.3880   30.3180   21.9690 C.3    16  LEU16       0.0001
     12  CD2       17.1050   32.0850   22.5020 C.3    16  LEU16       0.0001
     13  N         12.5410   35.0110   23.0370 N.am   17  GLY17      -0.1940
     14  CA        11.5760   35.9710   22.5310 C.3    17  GLY17       0.2014
     15  C         10.9620   35.5430   21.2040 C.2    17  GLY17       0.2639
     16  O         10.6770   36.3710   20.3340 O.2    17  GLY17      -0.2714
     17  N         10.7700   34.2400   21.0460 N.am   18  ILE18      -0.1963
     18  CA        10.0920   33.7150   19.8670 C.3    18  ILE18       0.1727
     19  C          9.0510   32.6990   20.2790 C.2    18  ILE18       0.2617
     20  O          9.1330   32.1070   21.3600 O.2    18  ILE18      -0.2715
     21  CB        11.0650   33.0640   18.8280 C.3    18  ILE18       0.0290
     22  CG1       11.6610   31.7560   19.3470 C.3    18  ILE18       0.0022
     23  CG2       12.1720   34.0170   18.4350 C.3    18  ILE18       0.0023
     24  CD1       12.5980   31.0880   18.3460 C.3    18  ILE18       0.0001
     25  N          8.0580   32.5140   19.4160 N.am   19  SER19      -0.1936
     26  CA         7.1710   31.3810   19.5370 C.3    19  SER19       0.2055
     27  C          7.5060   30.4580   18.3820 C.2    19  SER19       0.2643
     28  O          7.8120   30.9230   17.2830 O.2    19  SER19      -0.2714
     29  CB         5.7100   31.8160   19.4680 C.3    19  SER19       0.2130
     30  OG         5.3790   32.6220   20.5860 O.3    19  SER19      -0.2179
     31  N          7.4820   29.1580   18.6480 N.am   20  ILE20      -0.1963
     32  CA         7.7380   28.1570   17.6190 C.3    20  ILE20       0.1727
     33  C          6.5470   27.2130   17.4820 C.2    20  ILE20       0.2617
     34  O          5.8290   26.9370   18.4470 O.2    20  ILE20      -0.2715
     35  CB         9.0280   27.3220   17.8920 C.3    20  ILE20       0.0290
     36  CG1        8.9770   26.6430   19.2710 C.3    20  ILE20       0.0022
     37  CG2       10.3000   28.1830   17.7390 C.3    20  ILE20       0.0023
     38  CD1        9.9860   25.5040   19.4200 C.3    20  ILE20       0.0001
     39  N          6.3530   26.7060   16.2710 N.am   21  THR21      -0.1937
     40  CA         5.2990   25.7490   16.0200 C.3    21  THR21       0.2028
     41  C          5.9350   24.6100   15.2370 C.2    21  THR21       0.2642
     42  O          7.0640   24.7350   14.7710 O.2    21  THR21      -0.2714
     43  CB         4.1460   26.4000   15.2330 C.3    21  THR21       0.1808
     44  OG1        3.0250   25.5120   15.1810 O.3    21  THR21      -0.2208
     45  CG2        4.5990   26.7250   13.8330 C.3    21  THR21       0.0379
     46  N          5.2320   23.4880   15.1350 N.am   22  GLY22      -0.1954
     47  CA         5.6740   22.3740   14.3170 C.3    22  GLY22       0.1869
     48  C          6.5480   21.3810   15.0560 C.2    22  GLY22       0.2309
     49  O          6.5730   21.3340   16.2970 O.2    22  GLY22      -0.2863
     50  N          6.7190   15.2130   14.8000 N.3    25  GLU25      -0.1231
     51  CA         5.4370   14.5210   14.9570 C.3    25  GLU25       0.1699
     52  C          4.3130   15.1980   14.1680 C.2    25  GLU25       0.2592
     53  O          3.2370   14.6260   13.9870 O.2    25  GLU25      -0.2718
     54  CB         5.0430   14.3960   16.4310 C.3    25  GLU25       0.0402
     55  CG         4.6210   15.7120   17.0820 C.3    25  GLU25       0.1161
     56  CD         5.7830   16.4460   17.7530 C.2    25  GLU25       0.3649
     57  OE1        6.7480   16.8320   17.0560 O.co2  25  GLU25      -0.2457
     58  OE2        5.7270   16.6310   18.9860 O.co2  25  GLU25      -0.2457
     59  N          4.5650   16.4140   13.6970 N.am   26  HIS26      -0.1976
     60  CA         3.5860   17.1320   12.8870 C.3    26  HIS26       0.1656
     61  C          3.9640   17.1340   11.4050 C.2    26  HIS26       0.2291
     62  O          3.2740   17.7310   10.5870 O.2    26  HIS26      -0.2864
     63  CB         3.4150   18.5650   13.3970 C.3    26  HIS26       0.0771
     64  CG         3.0770   18.6450   14.8520 C.ar   26  HIS26       0.0820
     65  ND1        1.9230   18.1040   15.3800 N.ar   26  HIS26      -0.2267
     66  CD2        3.7440   19.1930   15.8940 C.ar   26  HIS26       0.1154
     67  CE1        1.8920   18.3180   16.6830 C.ar   26  HIS26       0.1986
     68  NE2        2.9870   18.9780   17.0210 N.ar   26  HIS26      -0.2212
     69  N          6.2360   18.7020    9.9800 N.3    28  VAL28      -0.1245
     70  CA         6.6520   20.0360    9.5600 C.3    28  VAL28       0.1561
     71  C          7.8460   20.4510   10.4120 C.2    28  VAL28       0.2260
     72  O          8.0050   19.9660   11.5280 O.2    28  VAL28      -0.2867
     73  CB         5.5200   21.0810    9.7360 C.3    28  VAL28       0.0252
     74  CG1        4.3350   20.7640    8.8160 C.3    28  VAL28       0.0019
     75  CG2        5.0800   21.1590   11.1970 C.3    28  VAL28       0.0019
     76  N          6.7880   31.2080   14.6330 N.3    33  SER33      -0.1202
     77  CA         5.4210   31.6630   14.4140 C.3    33  SER33       0.2020
     78  C          5.2180   33.0760   14.9530 C.2    33  SER33       0.2618
     79  O          4.2550   33.7570   14.5950 O.2    33  SER33      -0.2717
     80  CB         4.4130   30.6830   15.0360 C.3    33  SER33       0.2103
     81  OG         4.6540   30.4800   16.4280 O.3    33  SER33      -0.2182
     82  N          6.1420   33.5210   15.7970 N.am   34  GLU34      -0.1979
     83  CA         6.0600   34.8370   16.4150 C.3    34  GLU34       0.1602
     84  C          7.4380   35.3390   16.8300 C.2    34  GLU34       0.2287
     85  O          8.2640   34.5780   17.3450 O.2    34  GLU34      -0.2864
     86  CB         5.1650   34.7860   17.6570 C.3    34  GLU34       0.0415
     87  CG         3.7390   35.2060   17.4540 C.3    34  GLU34       0.1163
     88  CD         3.0380   35.4760   18.7770 C.2    34  GLU34       0.3649
     89  OE1        2.9890   34.5570   19.6160 O.co2  34  GLU34      -0.2457
     90  OE2        2.5630   36.6130   18.9860 O.co2  34  GLU34      -0.2457
     91  N          8.7310   38.1160   19.4360 N.3    36  HIS36      -0.1241
     92  CA         8.1840   39.0120   20.4650 C.3    36  HIS36       0.1621
     93  C          8.9380   40.3440   20.5920 C.2    36  HIS36       0.2264
     94  O         10.1470   40.3680   20.7920 O.2    36  HIS36      -0.2867
     95  CB         8.0260   38.2780   21.8060 C.3    36  HIS36       0.0745
     96  CG         7.2590   37.0000   21.6730 C.ar   36  HIS36       0.0817
     97  ND1        5.9260   36.9710   21.3210 N.ar   36  HIS36      -0.2268
     98  CD2        7.6480   35.7080   21.7790 C.ar   36  HIS36       0.1154
     99  CE1        5.5210   35.7170   21.2420 C.ar   36  HIS36       0.1986
    100  NE2        6.5470   34.9310   21.5090 N.ar   36  HIS36      -0.2212
    101  N         12.1910   41.6910   22.7930 N.3    39  GLN39      -0.1245
    102  CA        12.9510   40.5480   23.3090 C.3    39  GLN39       0.1566
    103  C         14.1470   40.2220   22.3870 C.2    39  GLN39       0.2260
    104  O         14.2840   40.8180   21.3180 O.2    39  GLN39      -0.2867
    105  CB        12.0260   39.3400   23.5860 C.3    39  GLN39       0.0367
    106  CG        11.0840   39.5650   24.7640 C.3    39  GLN39       0.0905
    107  CD        10.2950   38.3220   25.1760 C.2    39  GLN39       0.2608
    108  OE1       10.8540   37.3360   25.6710 O.2    39  GLN39      -0.2717
    109  NE2        8.9850   38.3780   24.9940 N.am   39  GLN39      -0.0878
    110  N          8.5760   18.5570   18.7080 N.3    66  HIS66      -0.1226
    111  CA         8.3590   19.8950   19.2100 C.3    66  HIS66       0.1752
    112  C          9.0280   20.1130   20.5630 C.2    66  HIS66       0.2595
    113  O          9.7740   21.0720   20.7410 O.2    66  HIS66      -0.2718
    114  CB         6.8670   20.1850   19.3370 C.3    66  HIS66       0.0759
    115  CG         6.5760   21.5750   19.7980 C.ar   66  HIS66       0.0818
    116  ND1        6.4060   22.6280   18.9240 N.ar   66  HIS66      -0.2268
    117  CD2        6.4640   22.0990   21.0440 C.ar   66  HIS66       0.1154
    118  CE1        6.1870   23.7340   19.6090 C.ar   66  HIS66       0.1986
    119  NE2        6.2190   23.4410   20.8970 N.ar   66  HIS66      -0.2212
    120  N          8.7520   19.2250   21.5150 N.am   67  LYS67      -0.1980
    121  CA         9.2660   19.4030   22.8710 C.3    67  LYS67       0.1596
    122  C         10.7760   19.1850   22.9650 C.2    67  LYS67       0.2287
    123  O         11.4470   19.8010   23.8020 O.2    67  LYS67      -0.2864
    124  CB         8.4900   18.5290   23.8740 C.3    67  LYS67       0.0298
    125  CG         7.1010   19.0780   24.1450 C.3    67  LYS67       0.0038
    126  CD         6.4570   18.4610   25.3890 C.3    67  LYS67       0.0206
    127  CE         5.7490   17.1660   25.0490 C.3    67  LYS67       0.1093
    128  NZ         4.9680   16.6210   26.2000 N.3    67  LYS67      -0.1314
    129  N         12.1050   22.5470   22.0250 N.3    70  VAL70      -0.1245
    130  CA        11.9670   23.4670   23.1570 C.3    70  VAL70       0.1561
    131  C         13.1030   23.2760   24.1580 C.2    70  VAL70       0.2260
    132  O         13.7610   24.2400   24.5320 O.2    70  VAL70      -0.2867
    133  CB        10.5880   23.3620   23.8620 C.3    70  VAL70       0.0252
    134  CG1       10.6060   24.1100   25.2130 C.3    70  VAL70       0.0019
    135  CG2        9.4810   23.9010   22.9550 C.3    70  VAL70       0.0019
    136  N         16.5300   24.4930   22.5470 N.3    73  LEU73      -0.1231
    137  CA        16.5960   25.9290   22.3350 C.3    73  LEU73       0.1693
    138  C         16.6900   26.6650   23.6720 C.2    73  LEU73       0.2592
    139  O         17.4590   27.6090   23.8200 O.2    73  LEU73      -0.2718
    140  CB        15.3670   26.3970   21.5700 C.3    73  LEU73       0.0284
    141  CG        15.3180   26.0300   20.0760 C.3    73  LEU73       0.0019
    142  CD1       13.9120   26.0820   19.5310 C.3    73  LEU73       0.0001
    143  CD2       16.2560   26.9500   19.2770 C.3    73  LEU73       0.0001
    144  N         15.9100   26.2140   24.6410 N.am   74  SER74      -0.1952
    145  CA        15.8530   26.8990   25.9280 C.3    74  SER74       0.1924
    146  C         17.1320   26.7460   26.7310 C.2    74  SER74       0.2314
    147  O         17.3880   27.5540   27.6170 O.2    74  SER74      -0.2863
    148  CB        14.6430   26.4380   26.7380 C.3    74  SER74       0.2116
    149  OG        13.4500   26.9880   26.2040 O.3    74  SER74      -0.2180
@<TRIPOS>BOND
     1    74    73    1
     2    70    73    1
     3    70    69    1
     4    70    71    1
     5    73    75    1
     6    71    72    2
     7    62    61    2
     8    61    60    1
     9    60    63    1
    10    60    59    1
    11    63    64    1
    12    59    52   am
    13    45    43    1
    14    53    52    2
    15    52    51    1
    16    47    48    1
    17    47    46    1
    18    77    76    1
    19    77    78    1
    20    77    80    1
    21    79    78    2
    22    42    41    2
    23    50    51    1
    24    64    65   ar
    25    64    66   ar
    26    78    82   am
    27    51    54    1
    28    80    81    1
    29    48    49    2
    30    46    41   am
    31    44    43    1
    32    43    40    1
    33    41    40    1
    34    65    67   ar
    35    82    83    1
    36    66    68   ar
    37    40    39    1
    38    39    33   am
    39    83    84    1
    40    83    86    1
    41    54    55    1
    42    67    68   ar
    43    84    85    2
    44    57    56   ar
    45    55    56    1
    46    28    27    2
    47    87    86    1
    48    87    88    1
    49    33    32    1
    50    33    34    2
    51    32    35    1
    52    32    31    1
    53    37    35    1
    54    56    58   ar
    55    35    36    1
    56    24    22    1
    57    27    31   am
    58    27    26    1
    59    23    21    1
    60   110   111    1
    61    88    90   ar
    62    88    89   ar
    63    21    22    1
    64    21    18    1
    65   116   118   ar
    66   116   115   ar
    67   111   114    1
    68   111   112    1
    69    36    38    1
    70   143   141    1
    71   114   115    1
    72    25    26    1
    73    25    19   am
    74    91    92    1
    75    29    26    1
    76    29    30    1
    77   142   141    1
    78   118   119   ar
    79   115   117   ar
    80    18    19    1
    81    18    17    1
    82   141   140    1
    83    19    20    2
    84    16    15    2
    85    92    93    1
    86    92    95    1
    87   112   113    2
    88   112   120   am
    89    93    94    2
    90   119   117   ar
    91    17    15   am
    92    15    14    1
    93    99    97   ar
    94    99   100   ar
    95   104   103    2
    96    97    96   ar
    97   100    98   ar
    98   120   121    1
    99   140   137    1
   100    96    98   ar
   101    96    95    1
   102     8     7    2
   103    11    10    1
   104   129   130    1
   105   137   136    1
   106   137   138    1
   107     9    10    1
   108     9     6    1
   109   103   102    1
   110    12    10    1
   111    14    13    1
   112     7    13   am
   113     7     6    1
   114   101   102    1
   115   121   122    1
   116   121   124    1
   117   135   133    1
   118   122   123    2
   119   130   133    1
   120   130   131    1
   121     6     5    1
   122   102   105    1
   123   105   106    1
   124   138   139    2
   125   138   144   am
   126   133   134    1
   127   124   125    1
   128   125   126    1
   129   131   132    2
   130     5     3   am
   131   144   145    1
   132   106   107    1
   133   109   107   am
   134   127   126    1
   135   127   128    1
   136   107   108    2
   137     4     3    2
   138     3     2    1
   139   145   146    1
   140   145   148    1
   141   149   148    1
   142   146   147    2
   143     2     1    1
