@<TRIPOS>MOLECULE
tmp/4k74A00.pdb
 166 160 0 0 0
SMALL
GASTEIGER

@<TRIPOS>ATOM
      1  N        -12.1770   19.9540   13.7500 N.3   148  ARG148     -0.1245
      2  CA       -13.2330   19.2050   13.0800 C.3   148  ARG148      0.1563
      3  C        -13.6540   18.0900   14.0150 C.2   148  ARG148      0.2260
      4  O        -13.0570   17.0130   14.0200 O.2   148  ARG148     -0.2867
      5  CB       -12.7910   18.6500   11.7430 C.3   148  ARG148      0.0307
      6  CG       -12.7470   19.6900   10.6410 C.3   148  ARG148      0.0489
      7  CD       -11.3600   20.1310   10.3610 C.3   148  ARG148      0.2205
      8  NE       -10.8390   19.5000    9.1520 N.pl3 148  ARG148     -0.0865
      9  CZ        -9.7480   18.7410    9.0680 C.cat 148  ARG148      0.5346
     10  NH1       -9.0300   18.4470   10.1440 N.pl3 148  ARG148      0.1354
     11  NH2       -9.3760   18.2610    7.8800 N.pl3 148  ARG148      0.1354
     12  N        -11.1000    8.7310    9.6560 N.3   168  THR168     -0.1203
     13  CA       -10.0700    9.5150    8.9800 C.3   168  THR168      0.1994
     14  C         -9.7020   10.7640    9.7820 C.2   168  THR168      0.2618
     15  O        -10.5190   11.3170   10.5130 O.2   168  THR168     -0.2717
     16  CB       -10.5440    9.9120    7.5400 C.3   168  THR168      0.1784
     17  OG1       -9.5570   10.7080    6.8870 O.3   168  THR168     -0.2211
     18  CG2      -11.8530   10.6660    7.5920 C.3   168  THR168      0.0376
     19  N         -8.4660   11.2040    9.6570 N.am  169  ASP169     -0.1959
     20  CA        -8.0500   12.4600   10.3020 C.3   169  ASP169      0.1840
     21  C         -7.7220   13.5230    9.2840 C.2   169  ASP169      0.2623
     22  O         -7.1560   14.5530    9.6440 O.2   169  ASP169     -0.2715
     23  CB        -6.8610   12.2340   11.2430 C.3   169  ASP169      0.1450
     24  CG        -5.6840   11.6140   10.5580 C.2   169  ASP169      0.3671
     25  OD1       -4.7540   11.2110   11.3000 O.co2 169  ASP169     -0.2456
     26  OD2       -5.6950   11.5110    9.2970 O.co2 169  ASP169     -0.2456
     27  N         -8.1070   13.2690    8.0270 N.am  170  GLY170     -0.1940
     28  CA        -7.8450   14.1780    6.9110 C.3   170  GLY170      0.2014
     29  C         -6.6480   13.7770    6.0430 C.2   170  GLY170      0.2639
     30  O         -6.6000   14.1410    4.8600 O.2   170  GLY170     -0.2714
     31  N         -5.6840   13.0540    6.6280 N.am  171  HIS171     -0.1959
     32  CA        -4.4410   12.6390    5.9350 C.3   171  HIS171      0.1787
     33  C         -4.4290   11.1850    5.5400 C.2   171  HIS171      0.2620
     34  O         -3.6930   10.7900    4.6680 O.2   171  HIS171     -0.2715
     35  CB        -3.2440   12.8760    6.8380 C.3   171  HIS171      0.0785
     36  CG        -3.1600   14.2720    7.3510 C.ar  171  HIS171      0.0821
     37  ND1       -2.5280   15.2790    6.6580 N.ar  171  HIS171     -0.2267
     38  CD2       -3.6650   14.8410    8.4730 C.ar  171  HIS171      0.1154
     39  CE1       -2.6290   16.4060    7.3420 C.ar  171  HIS171      0.1986
     40  NE2       -3.3210   16.1690    8.4440 N.ar  171  HIS171     -0.2212
     41  N         -5.2730   10.4000    6.1890 N.am  172  ARG172     -0.1963
     42  CA        -5.3230    8.9740    5.9910 C.3   172  ARG172      0.1729
     43  C         -6.7210    8.5090    6.3800 C.2   172  ARG172      0.2616
     44  O         -7.4500    9.2330    7.0840 O.2   172  ARG172     -0.2715
     45  CB        -4.2840    8.3230    6.8960 C.3   172  ARG172      0.0348
     46  CG        -4.3370    8.8800    8.3120 C.3   172  ARG172      0.0492
     47  CD        -3.8830    7.8950    9.2800 C.3   172  ARG172      0.2205
     48  NE        -3.8380    8.4230   10.6310 N.pl3 172  ARG172     -0.0865
     49  CZ        -3.1990    7.8200   11.6200 C.cat 172  ARG172      0.5346
     50  NH1       -2.5900    6.6630   11.4010 N.pl3 172  ARG172      0.1354
     51  NH2       -3.1690    8.3730   12.8220 N.pl3 172  ARG172      0.1354
     52  N         -7.1000    7.3090    5.9400 N.am  173  LEU173     -0.1977
     53  CA        -8.4580    6.8430    6.1190 C.3   173  LEU173      0.1596
     54  C         -8.4500    5.3420    6.2190 C.2   173  LEU173      0.2287
     55  O         -7.5900    4.6860    5.6520 O.2   173  LEU173     -0.2864
     56  CB        -9.3350    7.3070    4.9420 C.3   173  LEU173      0.0297
     57  CG       -10.8050    6.8180    4.8560 C.3   173  LEU173      0.0022
     58  CD1      -11.7660    7.9230    4.4010 C.3   173  LEU173      0.0001
     59  CD2      -10.9610    5.5800    3.9420 C.3   173  LEU173      0.0001
     60  N        -16.9040   12.6160    6.0640 N.2   235  PRO235     -0.2571
     61  CA       -16.5540   12.4740    4.6480 C.3   235  PRO235      0.2026
     62  C        -17.0140   11.1530    4.0140 C.2   235  PRO235      0.2683
     63  O        -17.0790   10.1270    4.6880 O.2   235  PRO235     -0.2709
     64  CB       -15.0170   12.5550    4.6380 C.2   235  PRO235      0.0085
     65  CG       -14.5840   12.9060    6.0350 C.2   235  PRO235      0.0180
     66  CD       -15.7650   12.9840    6.9220 C.2   235  PRO235      0.0938
     67  N        -17.3100   11.2040    2.7160 N.am  236  ASP236     -0.1967
     68  CA       -17.6780   10.0280    1.9110 C.3   236  ASP236      0.1709
     69  C        -16.4370    9.2110    1.5430 C.2   236  ASP236      0.2293
     70  O        -15.5500    9.7100    0.8380 O.2   236  ASP236     -0.2864
     71  CB       -18.3620   10.4930    0.6110 C.3   236  ASP236      0.1436
     72  CG       -19.1780    9.4030   -0.0580 C.2   236  ASP236      0.3671
     73  OD1      -18.9880    8.2100    0.2630 O.co2 236  ASP236     -0.2456
     74  OD2      -20.0160    9.7450   -0.9230 O.co2 236  ASP236     -0.2456
     75  N        -15.3070    8.3650   -2.1230 N.3   239  ARG239     -0.1231
     76  CA       -14.7870    9.5150   -2.8160 C.3   239  ARG239      0.1694
     77  C        -13.3040    9.8120   -2.5260 C.2   239  ARG239      0.2591
     78  O        -12.6600   10.6200   -3.2020 O.2   239  ARG239     -0.2718
     79  CB       -15.6240   10.6650   -2.3430 C.3   239  ARG239      0.0321
     80  CG       -15.2400   11.9690   -2.8830 C.3   239  ARG239      0.0489
     81  CD       -16.2780   12.9580   -2.4960 C.3   239  ARG239      0.2205
     82  NE       -17.5800   12.6690   -3.0790 N.pl3 239  ARG239     -0.0865
     83  CZ       -18.6600   13.4190   -2.8780 C.cat 239  ARG239      0.5346
     84  NH1      -18.5870   14.5110   -2.1150 N.pl3 239  ARG239      0.1354
     85  NH2      -19.8170   13.0890   -3.4510 N.pl3 239  ARG239      0.1354
     86  N        -12.7870    9.1800   -1.4860 N.am  240  VAL240     -0.1980
     87  CA       -11.3830    9.2400   -1.1500 C.3   240  VAL240      0.1595
     88  C        -10.6280    8.0690   -1.7960 C.2   240  VAL240      0.2287
     89  O         -9.4490    8.1780   -2.1000 O.2   240  VAL240     -0.2864
     90  CB       -11.2330    9.1850    0.3810 C.3   240  VAL240      0.0276
     91  CG1       -9.7740    9.1030    0.7850 C.3   240  VAL240      0.0022
     92  CG2      -11.9290   10.3910    1.0020 C.3   240  VAL240      0.0022
     93  N          8.5770   14.8030   10.7850 N.3   271  PHE271     -0.1241
     94  CA         7.7400   14.5620    9.6150 C.3   271  PHE271      0.1605
     95  C          7.6490   13.0670    9.2400 C.2   271  PHE271      0.2264
     96  O          6.6060   12.6150    8.7400 O.2   271  PHE271     -0.2867
     97  CB         8.2500   15.3990    8.4180 C.3   271  PHE271      0.0534
     98  CG         8.1340   16.9060    8.6020 C.ar  271  PHE271     -0.0203
     99  CD1        6.8890   17.5200    8.7060 C.ar  271  PHE271     -0.0042
    100  CD2        9.2770   17.7120    8.6300 C.ar  271  PHE271     -0.0042
    101  CE1        6.7800   18.9110    8.8660 C.ar  271  PHE271     -0.0003
    102  CE2        9.1860   19.1180    8.7770 C.ar  271  PHE271     -0.0003
    103  CZ         7.9400   19.7120    8.9020 C.ar  271  PHE271     -0.0000
    104  N          4.3660    9.4140    5.0310 N.3   313  ASN313     -0.1240
    105  CA         4.5820    9.4520    6.4560 C.3   313  ASN313      0.1653
    106  C          4.6630    7.9860    6.8820 C.2   313  ASN313      0.2266
    107  O          3.6800    7.2700    6.8210 O.2   313  ASN313     -0.2867
    108  CB         3.4480   10.1900    7.1720 C.3   313  ASN313      0.1155
    109  CG         3.5880   10.1620    8.6970 C.2   313  ASN313      0.2627
    110  OD1        3.8560    9.1120    9.2890 O.2   313  ASN313     -0.2716
    111  ND2        3.4240   11.3190    9.3320 N.am  313  ASN313     -0.0877
    112  N          2.1020    6.4640    9.2910 N.3   316  TYR316     -0.1241
    113  CA         0.7990    6.1410    8.7230 C.3   316  TYR316      0.1605
    114  C          0.8370    4.7420    8.1010 C.2   316  TYR316      0.2264
    115  O         -0.1220    3.9720    8.1970 O.2   316  TYR316     -0.2867
    116  CB         0.3570    7.2040    7.6820 C.3   316  TYR316      0.0534
    117  CG         0.0850    8.5920    8.2480 C.ar  316  TYR316     -0.0201
    118  CD1       -0.0450    8.8110    9.6240 C.ar  316  TYR316     -0.0009
    119  CD2       -0.0860    9.6940    7.3960 C.ar  316  TYR316     -0.0009
    120  CE1       -0.2870   10.0880   10.1230 C.ar  316  TYR316      0.0417
    121  CE2       -0.3610   10.9540    7.8920 C.ar  316  TYR316      0.0417
    122  CZ        -0.4520   11.1410    9.2540 C.ar  316  TYR316      0.1957
    123  OH        -0.7230   12.3800    9.7570 O.3   316  TYR316     -0.2866
    124  N          1.6760   11.7830   -6.9010 N.3   337  VAL337     -0.1245
    125  CA         0.9200   12.8490   -6.2360 C.3   337  VAL337      0.1561
    126  C         -0.4350   12.3670   -5.7250 C.2   337  VAL337      0.2260
    127  O         -1.2010   13.1670   -5.1950 O.2   337  VAL337     -0.2867
    128  CB         0.6900   14.1160   -7.1640 C.3   337  VAL337      0.0252
    129  CG1        1.9750   14.8710   -7.3920 C.3   337  VAL337      0.0019
    130  CG2        0.0630   13.7380   -8.4920 C.3   337  VAL337      0.0019
    131  N         -3.0350    9.3450   -3.6610 N.3   339  SER339     -0.1217
    132  CA        -3.0520    8.4480   -2.5190 C.3   339  SER339      0.1889
    133  C         -2.8380    7.0220   -2.9660 C.2   339  SER339      0.2288
    134  O         -2.9270    6.7150   -4.1390 O.2   339  SER339     -0.2866
    135  CB        -4.3440    8.5870   -1.7060 C.3   339  SER339      0.2089
    136  OG        -5.4680    8.7290   -2.5490 O.3   339  SER339     -0.2183
    137  N         -6.5310    4.1330    2.9770 N.3   353  VAL353     -0.1245
    138  CA        -6.0680    5.1290    2.0200 C.3   353  VAL353      0.1561
    139  C         -5.1670    6.0770    2.7440 C.2   353  VAL353      0.2260
    140  O         -5.5510    6.6170    3.7740 O.2   353  VAL353     -0.2867
    141  CB        -7.2300    5.8860    1.3400 C.3   353  VAL353      0.0252
    142  CG1       -6.7070    6.8810    0.3470 C.3   353  VAL353      0.0019
    143  CG2       -8.1840    4.8810    0.6660 C.3   353  VAL353      0.0019
    144  N         -2.3910    9.3400    2.2230 N.3   355  MET355     -0.1231
    145  CA        -2.0890   10.4400    1.3290 C.3   355  MET355      0.1687
    146  C         -0.5510   10.5880    1.2850 C.2   355  MET355      0.2434
    147  O          0.1370   10.3230    2.2650 O.2   355  MET355     -0.2733
    148  CB        -2.8040   11.6900    1.8550 C.3   355  MET355      0.0400
    149  CG        -3.1680   12.7520    0.8300 C.3   355  MET355      0.0596
    150  SD        -4.4690   12.2490   -0.2740 S.3   355  MET355     -0.1393
    151  CE        -4.5530   13.6800   -1.3410 C.3   355  MET355      0.0692
    152  N          0.0050   10.9390    0.1220 N.am  356  PRO356     -0.2718
    153  CA         1.4650   11.0450    0.0180 C.3   356  PRO356      0.1535
    154  C          2.0470   12.3290    0.6110 C.2   356  PRO356      0.2598
    155  O          1.3080   13.2820    0.8640 O.2   356  PRO356     -0.2715
    156  CB         1.7070   11.0190   -1.4970 C.3   356  PRO356      0.0310
    157  CG         0.4730   11.5250   -2.0890 C.3   356  PRO356      0.0237
    158  CD        -0.6480   11.0850   -1.1880 C.3   356  PRO356      0.0939
    159  N          3.3670   12.3300    0.8190 N.am  357  MET357     -0.1978
    160  CA         4.1480   13.5380    1.1850 C.3   357  MET357      0.1605
    161  C          4.9110   14.0470   -0.0170 C.2   357  MET357      0.2287
    162  O          5.7630   13.3200   -0.5410 O.2   357  MET357     -0.2864
    163  CB         5.1830   13.2040    2.2490 C.3   357  MET357      0.0413
    164  CG         4.5850   12.7990    3.5770 C.3   357  MET357      0.0598
    165  SD         5.7620   12.5760    4.9250 S.3   357  MET357     -0.1393
    166  CE         6.5100   14.2260    5.0000 C.3   357  MET357      0.0692
@<TRIPOS>BOND
     1   130   128    1
     2   129   128    1
     3   128   125    1
     4   124   125    1
     5   125   126    1
     6   126   127    2
     7   134   133    2
     8   131   132    1
     9    85    83    1
    10    78    77    2
    11    82    83    2
    12    82    81    1
    13   133   132    1
    14    80    81    1
    15    80    79    1
    16    83    84    1
    17    76    77    1
    18    76    79    1
    19    76    75    1
    20   136   135    1
    21    77    86   am
    22   132   135    1
    23    89    88    2
    24   157   156    1
    25   157   158    1
    26    88    87    1
    27   156   153    1
    28    86    87    1
    29   151   150    1
    30   158   152    1
    31    87    90    1
    32    74    72   ar
    33   162   161    2
    34   150   149    1
    35    72    73   ar
    36    72    71    1
    37   161   160    1
    38   153   152    1
    39   153   154    1
    40   152   146   am
    41   142   141    1
    42    90    91    1
    43    90    92    1
    44   154   159   am
    45   154   155    2
    46    71    68    1
    47   143   141    1
    48   159   160    1
    49   149   148    1
    50    70    69    2
    51   160   163    1
    52   146   145    1
    53   146   147    2
    54   145   148    1
    55   145   144    1
    56   141   138    1
    57    69    68    1
    58    68    67    1
    59   138   139    1
    60   138   137    1
    61   163   164    1
    62    67    62   am
    63   139   140    2
    64   164   165    1
    65    59    57    1
    66    62    61    1
    67    62    63    2
    68    58    57    1
    69    64    61    1
    70    64    65    2
    71    61    60    1
    72    34    33    2
    73    57    56    1
    74    30    29    2
    75   165   166    1
    76    56    53    1
    77   104   105    1
    78    33    32    1
    79    33    41   am
    80    55    54    2
    81    32    31    1
    82    32    35    1
    83    52    53    1
    84    52    43   am
    85    42    41    1
    86    42    43    1
    87    42    45    1
    88    65    66    1
    89    29    31   am
    90    29    28    1
    91    60    66    2
    92    53    54    1
    93    43    44    2
    94   105   106    1
    95   105   108    1
    96    37    39   ar
    97    37    36   ar
    98   107   106    2
    99    35    36    1
   100    17    16    1
   101    45    46    1
   102    28    27    1
   103   108   109    1
   104    39    40   ar
   105    36    38   ar
   106   119   121   ar
   107   119   117   ar
   108    16    18    1
   109    16    13    1
   110   116   117    1
   111   116   113    1
   112    11     9    1
   113   121   122   ar
   114    27    21   am
   115   114   115    2
   116   114   113    1
   117   117   118   ar
   118    46    47    1
   119    97    98    1
   120    97    94    1
   121    40    38   ar
   122    98   100   ar
   123    98    99   ar
   124   100   102   ar
   125   109   110    2
   126   109   111   am
   127    99   101   ar
   128   113   112    1
   129    96    95    2
   130   102   103   ar
   131   101   103   ar
   132    13    12    1
   133    13    14    1
   134     9     8    2
   135     9    10    1
   136     8     7    1
   137    95    94    1
   138   122   123    1
   139   122   120   ar
   140    47    48    1
   141    21    22    2
   142    21    20    1
   143    26    24   ar
   144    94    93    1
   145   118   120   ar
   146    19    14   am
   147    19    20    1
   148    14    15    2
   149    20    23    1
   150     7     6    1
   151    24    23    1
   152    24    25   ar
   153    48    49    2
   154     6     5    1
   155    50    49    1
   156    49    51    1
   157     5     2    1
   158     2     1    1
   159     2     3    1
   160     3     4    2
