@<TRIPOS>MOLECULE
tmp/4k76B00.pdb
 137 132 0 0 0
SMALL
GASTEIGER

@<TRIPOS>ATOM
      1  N         11.5780   41.2980   -7.6470 N.3    15  GLY15      -0.1210
      2  CA        12.7280   40.5450   -7.1750 C.3    15  GLY15       0.1956
      3  C         12.3360   39.5190   -6.1290 C.2    15  GLY15       0.2612
      4  O         11.1540   39.3440   -5.8280 O.2    15  GLY15      -0.2717
      5  N         13.3330   38.8410   -5.5550 N.am   16  LEU16      -0.1965
      6  CA        13.0660   37.8130   -4.5510 C.3    16  LEU16       0.1728
      7  C         12.4740   38.3980   -3.2700 C.2    16  LEU16       0.2617
      8  O         11.7090   37.7360   -2.5660 O.2    16  LEU16      -0.2715
      9  CB        14.3480   37.0650   -4.2090 C.3    16  LEU16       0.0311
     10  CG        14.5410   35.6400   -4.7100 C.3    16  LEU16       0.0022
     11  CD1       15.7950   35.0700   -4.0650 C.3    16  LEU16       0.0001
     12  CD2       13.3270   34.7780   -4.4020 C.3    16  LEU16       0.0001
     13  N         12.8500   39.6290   -2.9530 N.am   17  GLY17      -0.1940
     14  CA        12.3530   40.2860   -1.7640 C.3    17  GLY17       0.2014
     15  C         13.2510   40.0950   -0.5580 C.2    17  GLY17       0.2639
     16  O         12.8500   40.3910    0.5600 O.2    17  GLY17      -0.2714
     17  N         14.4600   39.5900   -0.7850 N.am   18  ILE18      -0.1963
     18  CA        15.4470   39.4860    0.2820 C.3    18  ILE18       0.1727
     19  C         16.8150   39.9510   -0.2310 C.2    18  ILE18       0.2617
     20  O         17.0400   40.0500   -1.4460 O.2    18  ILE18      -0.2715
     21  CB        15.5520   38.0340    0.8170 C.3    18  ILE18       0.0290
     22  CG1       16.1450   37.1060   -0.2470 C.3    18  ILE18       0.0022
     23  CG2       14.1790   37.5060    1.2970 C.3    18  ILE18       0.0023
     24  CD1       16.4690   35.7210    0.2920 C.3    18  ILE18       0.0001
     25  N         17.7170   40.2480    0.6980 N.am   19  SER19      -0.1936
     26  CA        19.1120   40.4720    0.3760 C.3    19  SER19       0.2055
     27  C         19.9120   39.4490    1.1610 C.2    19  SER19       0.2643
     28  O         19.4870   39.0280    2.2420 O.2    19  SER19      -0.2714
     29  CB        19.5550   41.8750    0.7800 C.3    19  SER19       0.2130
     30  OG        18.8790   42.8630    0.0220 O.3    19  SER19      -0.2179
     31  N         21.0490   39.0300    0.6120 N.am   20  ILE20      -0.1963
     32  CA        21.8860   38.0640    1.3050 C.3    20  ILE20       0.1727
     33  C         23.3020   38.5570    1.5660 C.2    20  ILE20       0.2617
     34  O         23.8000   39.4510    0.9020 O.2    20  ILE20      -0.2715
     35  CB        22.0000   36.7260    0.5460 C.3    20  ILE20       0.0290
     36  CG1       22.5750   36.9600   -0.8520 C.3    20  ILE20       0.0022
     37  CG2       20.6410   35.9990    0.5090 C.3    20  ILE20       0.0023
     38  CD1       23.1620   35.7200   -1.4720 C.3    20  ILE20       0.0001
     39  N         23.9530   37.9210    2.5300 N.am   21  THR21      -0.1937
     40  CA        25.3130   38.2740    2.8970 C.3    21  THR21       0.2028
     41  C         26.0020   36.9550    3.2480 C.2    21  THR21       0.2642
     42  O         25.3680   35.8920    3.2210 O.2    21  THR21      -0.2714
     43  CB        25.3120   39.2610    4.0860 C.3    21  THR21       0.1808
     44  OG1       26.6200   39.8010    4.2920 O.3    21  THR21      -0.2208
     45  CG2       24.8420   38.5660    5.3710 C.3    21  THR21       0.0379
     46  N         27.2930   37.0020    3.5410 N.am   22  GLY22      -0.1954
     47  CA        27.9980   35.7980    3.9480 C.3    22  GLY22       0.1869
     48  C         28.5200   34.9810    2.7840 C.2    22  GLY22       0.2309
     49  O         28.6810   35.4910    1.6850 O.2    22  GLY22      -0.2863
     50  N         33.8540   33.8330    3.3620 N.3    26  HIS26      -0.1241
     51  CA        33.8080   34.5660    4.6220 C.3    26  HIS26       0.1621
     52  C         33.7440   33.6400    5.8410 C.2    26  HIS26       0.2264
     53  O         33.7130   34.1030    6.9750 O.2    26  HIS26      -0.2867
     54  CB        32.6280   35.5530    4.6200 C.3    26  HIS26       0.0745
     55  CG        32.7950   36.6720    3.6410 C.ar   26  HIS26       0.0817
     56  ND1       31.9990   36.8180    2.5260 N.ar   26  HIS26      -0.2268
     57  CD2       33.6910   37.6850    3.5990 C.ar   26  HIS26       0.1154
     58  CE1       32.3930   37.8770    1.8420 C.ar   26  HIS26       0.1986
     59  NE2       33.4200   38.4190    2.4730 N.ar   26  HIS26      -0.2212
     60  N         31.2990   31.6730    6.6560 N.3    28  VAL28      -0.1245
     61  CA        29.9650   31.6520    7.2360 C.3    28  VAL28       0.1561
     62  C         28.9250   31.2140    6.1980 C.2    28  VAL28       0.2260
     63  O         29.1900   31.2360    4.9920 O.2    28  VAL28      -0.2867
     64  CB        29.5750   33.0360    7.8180 C.3    28  VAL28       0.0252
     65  CG1       30.5610   33.4750    8.8960 C.3    28  VAL28       0.0019
     66  CG2       29.4940   34.0890    6.7090 C.3    28  VAL28       0.0019
     67  N         23.5670   34.0740    4.5450 N.3    31  LEU31      -0.1245
     68  CA        22.6830   34.5900    5.5900 C.3    31  LEU31       0.1561
     69  C         21.7950   35.6830    5.0170 C.2    31  LEU31       0.2260
     70  O         22.1990   36.4080    4.1110 O.2    31  LEU31      -0.2867
     71  CB        23.5130   35.1850    6.7230 C.3    31  LEU31       0.0270
     72  CG        24.3840   34.1770    7.4800 C.3    31  LEU31       0.0019
     73  CD1       25.4750   34.8920    8.2310 C.3    31  LEU31       0.0001
     74  CD2       23.5130   33.3700    8.4250 C.3    31  LEU31       0.0001
     75  N         20.4030   39.2150    4.9760 N.3    33  SER33      -0.1202
     76  CA        20.8330   40.5130    5.4840 C.3    33  SER33       0.2020
     77  C         19.6860   41.5300    5.4830 C.2    33  SER33       0.2618
     78  O         19.7530   42.5290    6.1960 O.2    33  SER33      -0.2717
     79  CB        22.0030   41.0650    4.6450 C.3    33  SER33       0.2103
     80  OG        21.6070   41.2140    3.2920 O.3    33  SER33      -0.2182
     81  N         18.6570   41.2940    4.6760 N.am   34  GLU34      -0.1979
     82  CA        17.4400   42.1220    4.7460 C.3    34  GLU34       0.1602
     83  C         16.2060   41.4420    4.1590 C.2    34  GLU34       0.2287
     84  O         16.3020   40.5630    3.2990 O.2    34  GLU34      -0.2864
     85  CB        17.6460   43.5350    4.1760 C.3    34  GLU34       0.0415
     86  CG        18.0320   43.6090    2.7330 C.3    34  GLU34       0.1163
     87  CD        18.3380   45.0290    2.2940 C.2    34  GLU34       0.3649
     88  OE1       17.4760   45.9050    2.5230 O.co2  34  GLU34      -0.2457
     89  OE2       19.4310   45.2600    1.7210 O.co2  34  GLU34      -0.2457
     90  N         12.7600   42.6230    2.4130 N.3    36  HIS36      -0.1227
     91  CA        12.2750   43.8450    1.7870 C.3    36  HIS36       0.1737
     92  C         10.8230   44.1070    2.1740 C.2    36  HIS36       0.2438
     93  O         10.0510   43.1720    2.3630 O.2    36  HIS36      -0.2733
     94  CB        12.4680   43.7630    0.2750 C.3    36  HIS36       0.0758
     95  CG        13.8820   43.4640   -0.1210 C.ar   36  HIS36       0.0818
     96  ND1       14.2240   42.9420   -1.3500 N.ar   36  HIS36      -0.2268
     97  CD2       15.0410   43.6010    0.5670 C.ar   36  HIS36       0.1154
     98  CE1       15.5350   42.7770   -1.4040 C.ar   36  HIS36       0.1986
     99  NE2       16.0530   43.1760   -0.2560 N.ar   36  HIS36      -0.2212
    100  N         10.4460   45.3860    2.2980 N.am   37  PRO37      -0.2729
    101  CA         9.1110   45.6840    2.8280 C.3    37  PRO37       0.1401
    102  C          8.0020   45.0500    1.9910 C.2    37  PRO37       0.2269
    103  O          8.0430   45.0780    0.7600 O.2    37  PRO37      -0.2865
    104  CB         9.0350   47.2140    2.7690 C.3    37  PRO37       0.0296
    105  CG        10.0590   47.6190    1.7670 C.3    37  PRO37       0.0237
    106  CD        11.1660   46.5990    1.8820 C.3    37  PRO37       0.0939
    107  N         29.6180   33.4020   -1.9960 N.3    66  HIS66      -0.1241
    108  CA        28.5740   34.4230   -2.0930 C.3    66  HIS66       0.1621
    109  C         28.0010   34.5660   -3.4990 C.2    66  HIS66       0.2264
    110  O         26.7940   34.4740   -3.6920 O.2    66  HIS66      -0.2867
    111  CB        29.0900   35.7800   -1.6180 C.3    66  HIS66       0.0745
    112  CG        28.0190   36.8210   -1.5060 C.ar   66  HIS66       0.0817
    113  ND1       27.2320   36.9560   -0.3830 N.ar   66  HIS66      -0.2268
    114  CD2       27.5930   37.7620   -2.3820 C.ar   66  HIS66       0.1154
    115  CE1       26.3710   37.9420   -0.5680 C.ar   66  HIS66       0.1986
    116  NE2       26.5720   38.4480   -1.7720 N.ar   66  HIS66      -0.2212
    117  N         24.2190   33.9290   -5.1110 N.3    70  VAL70      -0.1245
    118  CA        23.4560   34.9850   -5.7940 C.3    70  VAL70       0.1561
    119  C         22.9210   34.4610   -7.1220 C.2    70  VAL70       0.2260
    120  O         21.7620   34.6940   -7.4820 O.2    70  VAL70      -0.2867
    121  CB        24.3020   36.2630   -6.0240 C.3    70  VAL70       0.0252
    122  CG1       23.6240   37.2090   -7.0310 C.3    70  VAL70       0.0019
    123  CG2       24.5640   36.9840   -4.6930 C.3    70  VAL70       0.0019
    124  N         20.1110   31.7470   -6.4120 N.3    73  LEU73      -0.1231
    125  CA        18.9120   32.4080   -5.9160 C.3    73  LEU73       0.1693
    126  C         18.2080   33.2290   -6.9870 C.2    73  LEU73       0.2592
    127  O         16.9820   33.2570   -7.0460 O.2    73  LEU73      -0.2718
    128  CB        19.2610   33.2830   -4.7200 C.3    73  LEU73       0.0284
    129  CG        19.4650   32.4460   -3.4590 C.3    73  LEU73       0.0019
    130  CD1       20.2860   33.2080   -2.4200 C.3    73  LEU73       0.0001
    131  CD2       18.0790   32.0410   -2.9230 C.3    73  LEU73       0.0001
    132  N         18.9830   33.8740   -7.8510 N.am   74  SER74      -0.1952
    133  CA        18.4050   34.7370   -8.8770 C.3    74  SER74       0.1924
    134  C         17.6530   33.9540   -9.9530 C.2    74  SER74       0.2314
    135  O         16.8280   34.5210  -10.6820 O.2    74  SER74      -0.2863
    136  CB        19.5020   35.5900   -9.5170 C.3    74  SER74       0.2116
    137  OG        20.3110   34.7910  -10.3600 O.3    74  SER74      -0.2180
@<TRIPOS>BOND
     1   135   134    2
     2   137   136    1
     3   134   133    1
     4   136   133    1
     5   133   132    1
     6   132   126   am
     7     1     2    1
     8   120   119    2
     9     2     3    1
    10   119   118    1
    11   127   126    2
    12   122   121    1
    13   126   125    1
    14   124   125    1
    15     3     4    2
    16     3     5   am
    17   121   118    1
    18   121   123    1
    19   125   128    1
    20   118   117    1
    21     5     6    1
    22   128   129    1
    23    10    12    1
    24    10     9    1
    25    10    11    1
    26     6     9    1
    27     6     7    1
    28   110   109    2
    29   109   108    1
    30   129   131    1
    31   129   130    1
    32     7    13   am
    33     7     8    2
    34    13    14    1
    35   114   116   ar
    36   114   112   ar
    37   108   107    1
    38   108   111    1
    39   116   115   ar
    40    14    15    1
    41   111   112    1
    42   112   113   ar
    43    38    36    1
    44    20    19    2
    45    98    96   ar
    46    98    99   ar
    47    96    95   ar
    48    36    35    1
    49    17    15   am
    50    17    18    1
    51   115   113   ar
    52    15    16    2
    53    99    97   ar
    54    22    24    1
    55    22    21    1
    56    19    18    1
    57    19    25   am
    58    95    94    1
    59    95    97   ar
    60    30    29    1
    61    94    91    1
    62    18    21    1
    63    26    25    1
    64    26    29    1
    65    26    27    1
    66    37    35    1
    67    35    32    1
    68    31    27   am
    69    31    32    1
    70   103   102    2
    71    21    23    1
    72    34    33    2
    73    27    28    2
    74    32    33    1
    75    33    39   am
    76    49    48    2
    77    89    87   ar
    78   105   106    1
    79   105   104    1
    80    91    92    1
    81    91    90    1
    82    58    59   ar
    83    58    56   ar
    84   106   100    1
    85   102   101    1
    86    92   100   am
    87    92    93    2
    88    87    88   ar
    89    87    86    1
    90   100   101    1
    91    59    57   ar
    92    56    55   ar
    93    39    40    1
    94    86    85    1
    95   104   101    1
    96    48    47    1
    97    40    41    1
    98    40    43    1
    99    42    41    2
   100    41    46   am
   101    80    79    1
   102    84    83    2
   103    50    51    1
   104    46    47    1
   105    57    55   ar
   106    55    54    1
   107    43    44    1
   108    43    45    1
   109    70    69    2
   110    83    82    1
   111    85    82    1
   112    67    68    1
   113    54    51    1
   114    51    52    1
   115    79    76    1
   116    81    82    1
   117    81    77   am
   118    75    76    1
   119    63    62    2
   120    69    68    1
   121    77    76    1
   122    77    78    2
   123    68    71    1
   124    52    53    2
   125    62    61    1
   126    60    61    1
   127    66    64    1
   128    71    72    1
   129    61    64    1
   130    72    73    1
   131    72    74    1
   132    64    65    1
