@<TRIPOS>MOLECULE
tmp/4k76C00.pdb
 157 150 0 0 0
SMALL
GASTEIGER

@<TRIPOS>ATOM
      1  N         29.0250   17.6160   -9.1910 N.3    15  GLY15      -0.1210
      2  CA        30.1960   17.0670   -8.5170 C.3    15  GLY15       0.1956
      3  C         29.7940   15.9750   -7.5350 C.2    15  GLY15       0.2612
      4  O         28.6350   15.9060   -7.1180 O.2    15  GLY15      -0.2717
      5  N         30.7390   15.1140   -7.1640 N.am   16  LEU16      -0.1965
      6  CA        30.4040   13.9950   -6.2870 C.3    16  LEU16       0.1728
      7  C         30.1760   14.4790   -4.8680 C.2    16  LEU16       0.2617
      8  O         29.3020   13.9650   -4.1580 O.2    16  LEU16      -0.2715
      9  CB        31.5000   12.9360   -6.2960 C.3    16  LEU16       0.0311
     10  CG        31.7210   12.1750   -7.5950 C.3    16  LEU16       0.0022
     11  CD1       32.9600   11.2710   -7.5010 C.3    16  LEU16       0.0001
     12  CD2       30.4820   11.3790   -7.9120 C.3    16  LEU16       0.0001
     13  N         30.9690   15.4600   -4.4550 N.am   17  GLY17      -0.1940
     14  CA        30.8320   16.0270   -3.1250 C.3    17  GLY17       0.2014
     15  C         31.7230   15.2810   -2.1550 C.2    17  GLY17       0.2639
     16  O         31.4390   15.2200   -0.9690 O.2    17  GLY17      -0.2714
     17  N         32.8020   14.7020   -2.6720 N.am   18  ILE18      -0.1963
     18  CA        33.8030   14.0930   -1.8060 C.3    18  ILE18       0.1727
     19  C         35.2000   14.6000   -2.1160 C.2    18  ILE18       0.2617
     20  O         35.4680   15.1020   -3.2160 O.2    18  ILE18      -0.2715
     21  CB        33.8130   12.5460   -1.9100 C.3    18  ILE18       0.0290
     22  CG1       34.3030   12.0970   -3.2910 C.3    18  ILE18       0.0022
     23  CG2       32.4350   11.9600   -1.6050 C.3    18  ILE18       0.0023
     24  CD1       34.1870   10.5910   -3.5130 C.3    18  ILE18       0.0001
     25  N         36.0870   14.4730   -1.1330 N.am   19  SER19      -0.1936
     26  CA        37.5100   14.6120   -1.3720 C.3    19  SER19       0.2055
     27  C         38.1180   13.2550   -1.0870 C.2    19  SER19       0.2643
     28  O         37.6980   12.5660   -0.1550 O.2    19  SER19      -0.2714
     29  CB        38.1290   15.6680   -0.4620 C.3    19  SER19       0.2130
     30  OG        37.7640   16.9740   -0.8690 O.3    19  SER19      -0.2179
     31  N         39.0700   12.8550   -1.9170 N.am   20  ILE20      -0.1963
     32  CA        39.7580   11.5890   -1.7260 C.3    20  ILE20       0.1727
     33  C         41.2310   11.8250   -1.4370 C.2    20  ILE20       0.2617
     34  O         41.8050   12.8740   -1.7770 O.2    20  ILE20      -0.2715
     35  CB        39.5910   10.6380   -2.9380 C.3    20  ILE20       0.0290
     36  CG1       40.1850   11.2600   -4.2080 C.3    20  ILE20       0.0022
     37  CG2       38.1060   10.2930   -3.1410 C.3    20  ILE20       0.0023
     38  CD1       40.4580   10.2580   -5.3130 C.3    20  ILE20       0.0001
     39  N         41.8290   10.8480   -0.7770 N.am   21  THR21      -0.1937
     40  CA        43.2370   10.8830   -0.4590 C.3    21  THR21       0.2028
     41  C         43.7390    9.4660   -0.6420 C.2    21  THR21       0.2642
     42  O         42.9630    8.5630   -0.9820 O.2    21  THR21      -0.2714
     43  CB        43.4590   11.3870    0.9910 C.3    21  THR21       0.1808
     44  OG1       44.8240   11.7850    1.1630 O.3    21  THR21      -0.2208
     45  CG2       43.0980   10.3040    2.0020 C.3    21  THR21       0.0379
     46  N         45.0300    9.2540   -0.4330 N.am   22  GLY22      -0.1954
     47  CA        45.5730    7.9150   -0.5130 C.3    22  GLY22       0.1869
     48  C         45.9090    7.4970   -1.9270 C.2    22  GLY22       0.2309
     49  O         46.0270    8.3300   -2.8280 O.2    22  GLY22      -0.2863
     50  N         50.6190    4.6270   -4.4590 N.3    25  GLU25      -0.1231
     51  CA        51.9460    5.2150   -4.2790 C.3    25  GLU25       0.1699
     52  C         52.1950    5.5440   -2.8080 C.2    25  GLU25       0.2592
     53  O         53.3430    5.6830   -2.3770 O.2    25  GLU25      -0.2718
     54  CB        52.1600    6.4460   -5.1700 C.3    25  GLU25       0.0402
     55  CG        51.3290    7.6620   -4.8150 C.3    25  GLU25       0.1161
     56  CD        50.0350    7.7210   -5.5980 C.2    25  GLU25       0.3649
     57  OE1       49.4610    6.6510   -5.8730 O.co2  25  GLU25      -0.2457
     58  OE2       49.6080    8.8350   -5.9540 O.co2  25  GLU25      -0.2457
     59  N         51.1120    5.6440   -2.0370 N.am   26  HIS26      -0.1976
     60  CA        51.2000    5.9010   -0.6010 C.3    26  HIS26       0.1656
     61  C         50.9350    4.6560    0.2440 C.2    26  HIS26       0.2291
     62  O         50.8850    4.7280    1.4720 O.2    26  HIS26      -0.2864
     63  CB        50.2480    7.0290   -0.2010 C.3    26  HIS26       0.0771
     64  CG        50.4570    8.2900   -0.9800 C.ar   26  HIS26       0.0820
     65  ND1       51.5960    9.0580   -0.8590 N.ar   26  HIS26      -0.2267
     66  CD2       49.6800    8.9110   -1.8970 C.ar   26  HIS26       0.1154
     67  CE1       51.5100   10.1000   -1.6660 C.ar   26  HIS26       0.1986
     68  NE2       50.3570   10.0350   -2.3080 N.ar   26  HIS26      -0.2212
     69  N         48.2990    2.8880    0.5930 N.3    28  VAL28      -0.1245
     70  CA        46.9620    2.7940    1.1710 C.3    28  VAL28       0.1561
     71  C         45.8970    2.8520    0.0820 C.2    28  VAL28       0.2260
     72  O         46.1770    3.2670   -1.0360 O.2    28  VAL28      -0.2867
     73  CB        46.6970    3.9250    2.1860 C.3    28  VAL28       0.0252
     74  CG1       47.6420    3.8040    3.3830 C.3    28  VAL28       0.0019
     75  CG2       46.8170    5.2900    1.5120 C.3    28  VAL28       0.0019
     76  N         40.9890    6.7200   -0.2700 N.3    31  LEU31      -0.1245
     77  CA        40.2090    6.9700    0.9430 C.3    31  LEU31       0.1561
     78  C         39.3980    8.2580    0.8730 C.2    31  LEU31       0.2260
     79  O         39.8960    9.2920    0.4130 O.2    31  LEU31      -0.2867
     80  CB        41.1460    7.0280    2.1540 C.3    31  LEU31       0.0270
     81  CG        41.8480    5.7070    2.4870 C.3    31  LEU31       0.0019
     82  CD1       43.0960    5.9810    3.2860 C.3    31  LEU31       0.0001
     83  CD2       40.8990    4.7640    3.2430 C.3    31  LEU31       0.0001
     84  N         38.3330   11.4160    2.4150 N.3    33  SER33      -0.1202
     85  CA        38.8600   12.2410    3.4930 C.3    33  SER33       0.2020
     86  C         37.8640   13.3230    3.9040 C.2    33  SER33       0.2618
     87  O         37.9110   13.8350    5.0280 O.2    33  SER33      -0.2717
     88  CB        40.1840   12.8750    3.0800 C.3    33  SER33       0.2103
     89  OG        40.0120   13.6760    1.9320 O.3    33  SER33      -0.2182
     90  N         36.9730   13.6680    2.9830 N.am   34  GLU34      -0.1979
     91  CA        35.9620   14.6890    3.2380 C.3    34  GLU34       0.1602
     92  C         34.6660   14.3910    2.5100 C.2    34  GLU34       0.2287
     93  O         34.6710   13.8730    1.3980 O.2    34  GLU34      -0.2864
     94  CB        36.4620   16.0750    2.8240 C.3    34  GLU34       0.0415
     95  CG        37.2980   16.7520    3.8720 C.3    34  GLU34       0.1163
     96  CD        37.4240   18.2320    3.6220 C.2    34  GLU34       0.3649
     97  OE1       38.3830   18.6300    2.9270 O.co2  34  GLU34      -0.2457
     98  OE2       36.5570   18.9890    4.1150 O.co2  34  GLU34      -0.2457
     99  N         31.4410   16.6960    1.4670 N.3    36  HIS36      -0.1241
    100  CA        31.1070   18.1120    1.4240 C.3    36  HIS36       0.1621
    101  C         29.6200   18.3530    1.6120 C.2    36  HIS36       0.2264
    102  O         28.7790   17.6740    1.0210 O.2    36  HIS36      -0.2867
    103  CB        31.6590   18.7390    0.1480 C.3    36  HIS36       0.0745
    104  CG        33.1380   18.5620    0.0110 C.ar   36  HIS36       0.0817
    105  ND1       34.0450   19.3920    0.6340 N.ar   36  HIS36      -0.2268
    106  CD2       33.8680   17.6110   -0.6180 C.ar   36  HIS36       0.1154
    107  CE1       35.2710   18.9810    0.3660 C.ar   36  HIS36       0.1986
    108  NE2       35.1910   17.8990   -0.3880 N.ar   36  HIS36      -0.2212
    109  N         26.1290   18.3740   -0.7910 N.3    39  GLN39      -0.1245
    110  CA        26.4450   17.7810   -2.0880 C.3    39  GLN39       0.1566
    111  C         25.9610   16.3210   -2.1480 C.2    39  GLN39       0.2260
    112  O         25.5310   15.7700   -1.1360 O.2    39  GLN39      -0.2867
    113  CB        27.9470   17.9130   -2.3760 C.3    39  GLN39       0.0367
    114  CG        28.3650   19.3480   -2.6730 C.3    39  GLN39       0.0905
    115  CD        29.7070   19.4320   -3.3650 C.2    39  GLN39       0.2608
    116  OE1       30.7340   19.6280   -2.7240 O.2    39  GLN39      -0.2717
    117  NE2       29.7060   19.2790   -4.6830 N.am   39  GLN39      -0.0878
    118  N         46.7960    7.5650   -7.0210 N.3    66  HIS66      -0.1226
    119  CA        45.8490    8.6360   -6.7470 C.3    66  HIS66       0.1752
    120  C         45.2650    9.2480   -8.0260 C.2    66  HIS66       0.2595
    121  O         44.0560    9.3210   -8.1780 O.2    66  HIS66      -0.2718
    122  CB        46.4880    9.7230   -5.8810 C.3    66  HIS66       0.0759
    123  CG        45.5240   10.7600   -5.4110 C.ar   66  HIS66       0.0818
    124  ND1       44.8580   10.6650   -4.2080 N.ar   66  HIS66      -0.2268
    125  CD2       45.0890   11.9030   -5.9940 C.ar   66  HIS66       0.1154
    126  CE1       44.0700   11.7150   -4.0590 C.ar   66  HIS66       0.1986
    127  NE2       44.1870   12.4790   -5.1320 N.ar   66  HIS66      -0.2212
    128  N         46.1190    9.6910   -8.9440 N.am   67  LYS67      -0.1980
    129  CA        45.6090   10.3750  -10.1330 C.3    67  LYS67       0.1596
    130  C         44.7990    9.4640  -11.0450 C.2    67  LYS67       0.2287
    131  O         43.8600    9.9280  -11.7040 O.2    67  LYS67      -0.2864
    132  CB        46.7360   11.0630  -10.9070 C.3    67  LYS67       0.0298
    133  CG        47.3210   12.2500  -10.1640 C.3    67  LYS67       0.0038
    134  CD        47.8330   13.3190  -11.1130 C.3    67  LYS67       0.0206
    135  CE        48.3500   14.5170  -10.3340 C.3    67  LYS67       0.1093
    136  NZ        47.3800   14.9700   -9.2890 N.3    67  LYS67      -0.1314
    137  N         41.3820    9.3680   -9.6830 N.3    70  VAL70      -0.1245
    138  CA        40.6770   10.6140   -9.9590 C.3    70  VAL70       0.1561
    139  C         40.1270   10.5400  -11.3710 C.2    70  VAL70       0.2260
    140  O         38.9910   10.9160  -11.6280 O.2    70  VAL70      -0.2867
    141  CB        41.5960   11.8420   -9.7970 C.3    70  VAL70       0.0252
    142  CG1       40.9940   13.0700  -10.4790 C.3    70  VAL70       0.0019
    143  CG2       41.8600   12.1170   -8.3190 C.3    70  VAL70       0.0019
    144  N         37.1560    7.9920  -11.4420 N.3    73  LEU73      -0.1231
    145  CA        35.9710    8.5710  -10.7920 C.3    73  LEU73       0.1693
    146  C         35.3670    9.6400  -11.6810 C.2    73  LEU73       0.2592
    147  O         34.1490    9.7900  -11.7500 O.2    73  LEU73      -0.2718
    148  CB        36.3310    9.1680   -9.4320 C.3    73  LEU73       0.0284
    149  CG        36.5500    8.0920   -8.3650 C.3    73  LEU73       0.0019
    150  CD1       37.3930    8.6100   -7.2170 C.3    73  LEU73       0.0001
    151  CD2       35.1870    7.5560   -7.8810 C.3    73  LEU73       0.0001
    152  N         36.2240   10.3840  -12.3720 N.am   74  SER74      -0.1952
    153  CA        35.7260   11.4760  -13.2260 C.3    74  SER74       0.1924
    154  C         35.0210   10.9850  -14.4960 C.2    74  SER74       0.2314
    155  O         34.2730   11.7380  -15.1480 O.2    74  SER74      -0.2863
    156  CB        36.8650   12.4350  -13.5910 C.3    74  SER74       0.2116
    157  OG        37.4320   13.0110  -12.4220 O.3    74  SER74      -0.2180
@<TRIPOS>BOND
     1   155   154    2
     2   154   153    1
     3   156   153    1
     4   156   157    1
     5   153   152    1
     6   152   146   am
     7   147   146    2
     8   131   130    2
     9   146   145    1
    10   140   139    2
    11   144   145    1
    12   139   138    1
    13   134   135    1
    14   134   133    1
    15   130   129    1
    16   132   133    1
    17   132   129    1
    18   145   148    1
    19   142   141    1
    20   135   136    1
    21   129   128    1
    22   138   141    1
    23   138   137    1
    24   141   143    1
    25   148   149    1
    26     1     2    1
    27   128   120   am
    28     2     3    1
    29   149   151    1
    30   149   150    1
    31   121   120    2
    32   120   119    1
    33    12    10    1
    34    10    11    1
    35    10     9    1
    36     3     5   am
    37     3     4    2
    38     5     6    1
    39   118   119    1
    40   119   122    1
    41     9     6    1
    42     6     7    1
    43   125   123   ar
    44   125   127   ar
    45    58    56   ar
    46   122   123    1
    47    57    56   ar
    48    56    55    1
    49   123   124   ar
    50    38    36    1
    51    54    55    1
    52    54    51    1
    53   127   126   ar
    54     7    13   am
    55     7     8    2
    56   117   115   am
    57    50    51    1
    58    13    14    1
    59    51    52    1
    60   124   126   ar
    61    36    35    1
    62    24    22    1
    63   115   116    2
    64   115   114    1
    65    22    21    1
    66    20    19    2
    67    37    35    1
    68    14    15    1
    69    35    32    1
    70    49    48    2
    71    52    53    2
    72    52    59   am
    73   114   113    1
    74    17    15   am
    75    17    18    1
    76   113   110    1
    77    68    66   ar
    78    68    67   ar
    79    15    16    2
    80   111   110    1
    81   111   112    2
    82    19    18    1
    83    19    25   am
    84   110   109    1
    85    59    60    1
    86    48    47    1
    87    31    32    1
    88    31    27   am
    89    21    18    1
    90    21    23    1
    91    66    64   ar
    92    34    33    2
    93    32    33    1
    94    67    65   ar
    95    33    39   am
    96    26    25    1
    97    26    27    1
    98    26    29    1
    99    27    28    2
   100    72    71    2
   101    42    41    2
   102    64    65   ar
   103    64    63    1
   104    30    29    1
   105    39    40    1
   106    41    40    1
   107    41    46   am
   108   106   108   ar
   109   106   104   ar
   110    60    63    1
   111    60    61    1
   112    47    46    1
   113    40    43    1
   114   108   107   ar
   115    76    77    1
   116   104   103    1
   117   104   105   ar
   118    71    70    1
   119   103   100    1
   120    61    62    2
   121   107   105   ar
   122    79    78    2
   123    69    70    1
   124    78    77    1
   125    77    80    1
   126    43    44    1
   127    43    45    1
   128   102   101    2
   129    70    73    1
   130    93    92    2
   131   100    99    1
   132   100   101    1
   133    75    73    1
   134    89    88    1
   135    80    81    1
   136    73    74    1
   137    84    85    1
   138    81    83    1
   139    81    82    1
   140    92    91    1
   141    94    91    1
   142    94    95    1
   143    97    96   ar
   144    90    91    1
   145    90    86   am
   146    88    85    1
   147    85    86    1
   148    96    95    1
   149    96    98   ar
   150    86    87    2
