@<TRIPOS>MOLECULE
tmp/4k77A00.pdb
 168 157 0 0 0
SMALL
GASTEIGER

@<TRIPOS>ATOM
      1  N          7.3650   55.1790   -5.5600 N.3    18  LEU18      -0.1231
      2  CA         8.0580   55.7630   -4.4050 C.3    18  LEU18       0.1693
      3  C          8.5230   54.7040   -3.4030 C.2    18  LEU18       0.2593
      4  O          9.5820   54.8430   -2.7880 O.2    18  LEU18      -0.2718
      5  CB         7.1330   56.7530   -3.6900 C.3    18  LEU18       0.0284
      6  CG         6.8970   58.0940   -4.3710 C.3    18  LEU18       0.0019
      7  CD1        5.9720   58.9400   -3.5110 C.3    18  LEU18       0.0001
      8  CD2        8.2070   58.8270   -4.6160 C.3    18  LEU18       0.0001
      9  N          7.7210   53.6610   -3.2220 N.am   19  GLY19      -0.1942
     10  CA         8.1110   52.5510   -2.3710 C.3    19  GLY19       0.2014
     11  C          7.1040   51.4320   -2.4370 C.2    19  GLY19       0.2639
     12  O          5.9720   51.6370   -2.8790 O.2    19  GLY19      -0.2714
     13  N          7.5200   50.2530   -1.9780 N.am   20  GLU20      -0.1963
     14  CA         6.7370   49.0240   -2.0930 C.3    20  GLU20       0.1733
     15  C          6.4170   48.4600   -0.7080 C.2    20  GLU20       0.2616
     16  O          7.1420   48.6910    0.2600 O.2    20  GLU20      -0.2715
     17  CB         7.5360   47.9940   -2.9070 C.3    20  GLU20       0.0429
     18  CG         6.7570   46.7760   -3.4000 C.3    20  GLU20       0.1163
     19  CD         6.0260   47.0050   -4.7150 C.2    20  GLU20       0.3649
     20  OE1        4.8180   46.6810   -4.7940 O.co2  20  GLU20      -0.2457
     21  OE2        6.6610   47.4960   -5.6760 O.co2  20  GLU20      -0.2457
     22  N          5.3100   47.7340   -0.6240 N.am   21  GLY21      -0.1955
     23  CA         4.9990   46.8960    0.5330 C.3    21  GLY21       0.1869
     24  C          4.6530   45.5160    0.0100 C.2    21  GLY21       0.2309
     25  O          4.6800   45.2830   -1.2020 O.2    21  GLY21      -0.2863
     26  N          0.7170   46.6360   -0.2270 N.3    24  GLY24      -0.1210
     27  CA         0.4630   48.0180   -0.6220 C.3    24  GLY24       0.1956
     28  C          1.6570   48.6400   -1.3190 C.2    24  GLY24       0.2612
     29  O          2.7930   48.2240   -1.1030 O.2    24  GLY24      -0.2717
     30  N          1.3980   49.6350   -2.1640 N.am   25  LYS25      -0.1965
     31  CA         2.4700   50.3720   -2.8320 C.3    25  LYS25       0.1728
     32  C          2.1370   51.8470   -2.9260 C.2    25  LYS25       0.2616
     33  O          0.9640   52.2270   -2.9920 O.2    25  LYS25      -0.2715
     34  CB         2.7560   49.8040   -4.2240 C.3    25  LYS25       0.0311
     35  CG         1.8060   50.2470   -5.3280 C.3    25  LYS25       0.0038
     36  CD         2.1760   49.6360   -6.6740 C.3    25  LYS25       0.0206
     37  CE         3.4940   50.1790   -7.2110 C.3    25  LYS25       0.1093
     38  NZ         3.7460   49.7340   -8.6110 N.3    25  LYS25      -0.1314
     39  N          3.1780   52.6730   -2.9390 N.am   26  VAL26      -0.1977
     40  CA         3.0100   54.1030   -3.0120 C.3    26  VAL26       0.1596
     41  C          3.6090   54.6230   -4.3010 C.2    26  VAL26       0.2287
     42  O          4.7360   54.2770   -4.6570 O.2    26  VAL26      -0.2864
     43  CB         3.6560   54.8100   -1.8210 C.3    26  VAL26       0.0276
     44  CG1        3.4140   56.3170   -1.8950 C.3    26  VAL26       0.0022
     45  CG2        3.0730   54.2740   -0.5390 C.3    26  VAL26       0.0022
     46  N          1.5800   61.8500   -3.0660 N.3    43  ALA43      -0.1245
     47  CA         1.9120   60.4460   -2.9160 C.3    43  ALA43       0.1562
     48  C          0.6010   59.6590   -2.8100 C.2    43  ALA43       0.2260
     49  O         -0.2720   59.9890   -2.0040 O.2    43  ALA43      -0.2867
     50  CB         2.7680   60.2330   -1.6770 C.3    43  ALA43       0.0290
     51  N         -1.2060   55.9580   -2.2590 N.3    45  LYS45      -0.1245
     52  CA        -1.1260   54.5730   -1.7840 C.3    45  LYS45       0.1561
     53  C         -2.3380   53.7560   -2.2080 C.2    45  LYS45       0.2260
     54  O         -3.4730   54.1300   -1.9220 O.2    45  LYS45      -0.2867
     55  CB        -1.0240   54.5290   -0.2650 C.3    45  LYS45       0.0271
     56  CG        -0.8540   53.1350    0.3090 C.3    45  LYS45       0.0035
     57  CD        -0.3270   53.2130    1.7300 C.3    45  LYS45       0.0206
     58  CE        -0.0420   51.8320    2.2850 C.3    45  LYS45       0.1093
     59  NZ         0.2640   51.9070    3.7370 N.3    45  LYS45      -0.1314
     60  N          2.9940   62.4620    8.6030 N.3    72  VAL72      -0.1245
     61  CA         2.7110   62.8140    7.2070 C.3    72  VAL72       0.1561
     62  C          1.2480   63.1980    7.0340 C.2    72  VAL72       0.2260
     63  O          0.3700   62.5870    7.6570 O.2    72  VAL72      -0.2867
     64  CB         3.0800   61.6770    6.2190 C.3    72  VAL72       0.0252
     65  CG1        2.1740   60.4530    6.3970 C.3    72  VAL72       0.0019
     66  CG2        3.0030   62.1840    4.7840 C.3    72  VAL72       0.0019
     67  N         -1.6650   61.1710   -0.0390 N.3    86  MET86      -0.1230
     68  CA        -0.8680   61.8590    0.9560 C.3    86  MET86       0.1702
     69  C         -0.0120   62.9660    0.3260 C.2    86  MET86       0.2592
     70  O          0.1960   62.9950   -0.8820 O.2    86  MET86      -0.2718
     71  CB         0.0550   60.8530    1.6260 C.3    86  MET86       0.0401
     72  CG        -0.6500   59.7840    2.4240 C.3    86  MET86       0.0596
     73  SD         0.4840   58.5020    2.9670 S.3    86  MET86      -0.1393
     74  CE         0.7720   57.6490    1.4200 C.3    86  MET86       0.0692
     75  N          0.4940   63.8740    1.1530 N.am   87  GLU87      -0.1966
     76  CA         1.4840   64.8320    0.6830 C.3    87  GLU87       0.1733
     77  C          2.7280   64.1130    0.2050 C.2    87  GLU87       0.2616
     78  O          3.0800   63.0320    0.7030 O.2    87  GLU87      -0.2715
     79  CB         1.8690   65.8300    1.7710 C.3    87  GLU87       0.0429
     80  CG         2.4590   65.2090    3.0220 C.3    87  GLU87       0.1163
     81  CD         2.9730   66.2400    4.0220 C.2    87  GLU87       0.3649
     82  OE1        3.1610   67.4190    3.6510 O.co2  87  GLU87      -0.2457
     83  OE2        3.2020   65.8620    5.1910 O.co2  87  GLU87      -0.2457
     84  N          3.3820   64.7200   -0.7730 N.am   88  PHE88      -0.1960
     85  CA         4.6220   64.1990   -1.3250 C.3    88  PHE88       0.1771
     86  C          5.7900   64.9070   -0.6580 C.2    88  PHE88       0.2619
     87  O          5.8430   66.1230   -0.6610 O.2    88  PHE88      -0.2715
     88  CB         4.6740   64.4330   -2.8440 C.3    88  PHE88       0.0574
     89  CG         5.9570   63.9800   -3.4890 C.ar   88  PHE88      -0.0200
     90  CD1        6.5190   62.7560   -3.1600 C.ar   88  PHE88      -0.0042
     91  CD2        6.5940   64.7730   -4.4290 C.ar   88  PHE88      -0.0042
     92  CE1        7.6940   62.3280   -3.7550 C.ar   88  PHE88      -0.0003
     93  CE2        7.7810   64.3550   -5.0290 C.ar   88  PHE88      -0.0003
     94  CZ         8.3270   63.1260   -4.6930 C.ar   88  PHE88      -0.0000
     95  N          6.6990   64.1480   -0.0630 N.am   89  LEU89      -0.1977
     96  CA         7.9370   64.7190    0.4700 C.3    89  LEU89       0.1596
     97  C          9.0800   64.2860   -0.4290 C.2    89  LEU89       0.2287
     98  O          9.5370   63.1420   -0.3330 O.2    89  LEU89      -0.2864
     99  CB         8.1990   64.2540    1.8940 C.3    89  LEU89       0.0297
    100  CG         7.5060   65.0510    2.9820 C.3    89  LEU89       0.0022
    101  CD1        6.0280   65.2170    2.6950 C.3    89  LEU89       0.0001
    102  CD2        7.7060   64.3580    4.3290 C.3    89  LEU89       0.0001
    103  N         12.1240   61.9650    0.3070 N.3    92  GLY92      -0.1210
    104  CA        11.9240   60.5340    0.5370 C.3    92  GLY92       0.1956
    105  C         12.1640   60.1440    1.9790 C.2    92  GLY92       0.2612
    106  O         12.0990   60.9780    2.8990 O.2    92  GLY92      -0.2717
    107  N         12.4210   58.8630    2.1900 N.am   93  SER93      -0.1952
    108  CA        12.6420   58.3680    3.5290 C.3    93  SER93       0.1924
    109  C         14.0910   58.5620    3.9710 C.2    93  SER93       0.2314
    110  O         14.9550   58.9620    3.1830 O.2    93  SER93      -0.2863
    111  CB        12.2530   56.8880    3.6300 C.3    93  SER93       0.2116
    112  OG        13.0990   56.0650    2.8510 O.3    93  SER93      -0.2180
    113  N         16.7320   56.6030    2.0640 N.3    96  GLU96      -0.1245
    114  CA        17.2700   57.1940    0.8440 C.3    96  GLU96       0.1567
    115  C         18.0530   58.4790    1.1090 C.2    96  GLU96       0.2260
    116  O         19.0110   58.7860    0.4050 O.2    96  GLU96      -0.2867
    117  CB        16.1380   57.4990   -0.1500 C.3    96  GLU96       0.0388
    118  CG        15.5830   56.2870   -0.9010 C.3    96  GLU96       0.1160
    119  CD        14.2950   55.7300   -0.3080 C.2    96  GLU96       0.3649
    120  OE1       13.4020   56.5220    0.0820 O.co2  96  GLU96      -0.2457
    121  OE2       14.1670   54.4890   -0.2510 O.co2  96  GLU96      -0.2457
    122  N          5.4150   49.0890   13.0610 N.3   133  ASP133     -0.1239
    123  CA         6.3070   49.0760   11.9050 C.3   133  ASP133      0.1674
    124  C          7.2630   50.2760   11.8940 C.2   133  ASP133      0.2266
    125  O          7.5840   50.8260   10.8250 O.2   133  ASP133     -0.2867
    126  CB         5.4700   49.0580   10.6290 C.3   133  ASP133      0.1410
    127  CG         6.2440   48.5550    9.4220 C.2   133  ASP133      0.3668
    128  OD1        7.1850   47.7570    9.5910 O.co2 133  ASP133     -0.2456
    129  OD2        5.8970   48.9580    8.2950 O.co2 133  ASP133     -0.2456
    130  N         12.9460   53.3470    7.1310 N.3   137  ARG137     -0.1231
    131  CA        12.2960   53.4240    5.8070 C.3   137  ARG137      0.1694
    132  C         10.8650   54.0050    5.8490 C.2   137  ARG137      0.2592
    133  O         10.3610   54.4850    4.8360 O.2   137  ARG137     -0.2718
    134  CB        12.2650   52.0540    5.1350 C.3   137  ARG137      0.0321
    135  CG        11.2540   51.1280    5.7770 C.3   137  ARG137      0.0489
    136  CD        11.4330   49.6460    5.4670 C.3   137  ARG137      0.2205
    137  NE        10.9750   48.8850    6.6410 N.pl3 137  ARG137     -0.0865
    138  CZ        11.7590   48.2200    7.4930 C.cat 137  ARG137      0.5346
    139  NH1       11.2220   47.6000    8.5520 N.pl3 137  ARG137      0.1354
    140  NH2       13.0730   48.1550    7.2900 N.pl3 137  ARG137      0.1354
    141  N         10.2350   54.0050    7.0180 N.am  138  ASN138     -0.1974
    142  CA         8.9040   54.6070    7.1780 C.3   138  ASN138      0.1688
    143  C          8.9240   56.0150    7.7470 C.2   138  ASN138      0.2292
    144  O          7.8710   56.5490    8.1270 O.2   138  ASN138     -0.2864
    145  CB         8.0250   53.7030    8.0320 C.3   138  ASN138      0.1181
    146  CG         7.7700   52.3680    7.3590 C.2   138  ASN138      0.2629
    147  OD1        7.5450   52.3210    6.1600 O.2   138  ASN138     -0.2716
    148  ND2        7.8540   51.2830    8.1080 N.am  138  ASN138     -0.0877
    149  N          9.8340   59.8490    6.8730 N.3   140  LEU140     -0.1245
    150  CA        10.0050   60.7040    5.7150 C.3   140  LEU140      0.1561
    151  C         10.7240   61.9740    6.1070 C.2   140  LEU140      0.2260
    152  O         10.5960   62.4380    7.2340 O.2   140  LEU140     -0.2867
    153  CB         8.6590   61.0440    5.0810 C.3   140  LEU140      0.0270
    154  CG         7.8150   59.8640    4.6100 C.3   140  LEU140      0.0019
    155  CD1        6.5650   60.3470    3.8890 C.3   140  LEU140      0.0001
    156  CD2        8.6040   58.9460    3.7080 C.3   140  LEU140      0.0001
    157  N          5.6560   58.3270    8.1780 N.3   150  GLY150     -0.1210
    158  CA         5.0460   58.3840    6.8500 C.3   150  GLY150      0.1956
    159  C          4.2580   57.1840    6.3940 C.2   150  GLY150      0.2611
    160  O          3.8430   57.1320    5.2340 O.2   150  GLY150     -0.2717
    161  N          4.0530   56.2180    7.2830 N.am  151  ASP151     -0.1973
    162  CA         3.2540   55.0450    6.9490 C.3   151  ASP151      0.1709
    163  C          2.6030   54.4570    8.1770 C.2   151  ASP151      0.2293
    164  O          3.2140   54.4070    9.2350 O.2   151  ASP151     -0.2864
    165  CB         4.0900   53.9730    6.2900 C.3   151  ASP151      0.1436
    166  CG         3.2330   52.8850    5.6940 C.2   151  ASP151      0.3671
    167  OD1        2.5810   53.1580    4.6620 O.co2 151  ASP151     -0.2456
    168  OD2        3.1790   51.7800    6.2670 O.co2 151  ASP151     -0.2456
@<TRIPOS>BOND
     1    38    37    1
     2    37    36    1
     3    36    35    1
     4    21    19   ar
     5     1     2    1
     6    35    34    1
     7    93    94   ar
     8    93    91   ar
     9    20    19   ar
    10    19    18    1
    11    94    92   ar
    12    42    41    2
    13     8     6    1
    14    91    89   ar
    15     2     5    1
    16     2     3    1
    17     6     5    1
    18     6     7    1
    19    41    40    1
    20    34    31    1
    21    92    90   ar
    22    89    90   ar
    23    89    88    1
    24     3     9   am
    25     3     4    2
    26    18    17    1
    27     9    10    1
    28    46    47    1
    29    40    39    1
    30    40    43    1
    31    33    32    2
    32    39    32   am
    33    32    31    1
    34    47    48    1
    35    47    50    1
    36    17    14    1
    37    12    11    2
    38    88    85    1
    39    31    30    1
    40    48    49    2
    41    11    10    1
    42    11    13   am
    43    51    52    1
    44    53    54    2
    45    53    52    1
    46    30    28   am
    47    14    13    1
    48    14    15    1
    49    44    43    1
    50    43    45    1
    51    52    55    1
    52    85    84    1
    53    85    86    1
    54    28    29    2
    55    28    27    1
    56    25    24    2
    57   118   119    1
    58   118   117    1
    59    70    69    2
    60    84    77   am
    61    15    22   am
    62    15    16    2
    63    87    86    2
    64    86    95   am
    65    22    23    1
    66    27    26    1
    67    97    98    2
    68    97    96    1
    69   119   121   ar
    70   119   120   ar
    71    55    56    1
    72   117   114    1
    73    95    96    1
    74    67    68    1
    75    24    23    1
    76    77    76    1
    77    77    78    2
    78   103   104    1
    79    56    57    1
    80    69    68    1
    81    69    75   am
    82   116   115    2
    83    96    99    1
    84   104   105    1
    85    76    75    1
    86    76    79    1
    87   114   115    1
    88   114   113    1
    89    68    71    1
    90    74    73    1
    91    71    72    1
    92    57    58    1
    93    79    80    1
    94    99   100    1
    95   105   107   am
    96   105   106    2
    97   107   108    1
    98    58    59    1
    99    72    73    1
   100   101   100    1
   101   112   111    1
   102   100   102    1
   103    80    81    1
   104   110   109    2
   105   108   111    1
   106   108   109    1
   107    82    81   ar
   108   156   154    1
   109   155   154    1
   110    81    83   ar
   111   154   153    1
   112   167   166   ar
   113    66    64    1
   114   133   132    2
   115   153   150    1
   116   134   135    1
   117   134   131    1
   118   160   159    2
   119   136   135    1
   120   136   137    1
   121   166   168   ar
   122   166   165    1
   123   150   151    1
   124   150   149    1
   125   131   132    1
   126   131   130    1
   127   132   141   am
   128   151   152    2
   129   147   146    2
   130    64    65    1
   131    64    61    1
   132   165   162    1
   133   159   158    1
   134   159   161   am
   135   137   138    2
   136   158   157    1
   137   162   161    1
   138   162   163    1
   139   141   142    1
   140    62    61    1
   141    62    63    2
   142   142   143    1
   143   142   145    1
   144    61    60    1
   145   140   138    1
   146   146   145    1
   147   146   148   am
   148   138   139    1
   149   143   144    2
   150   163   164    2
   151   129   127   ar
   152   127   128   ar
   153   127   126    1
   154   126   123    1
   155   125   124    2
   156   124   123    1
   157   123   122    1
