@<TRIPOS>MOLECULE
tmp/4k79B00.pdb
 148 147 0 0 0
SMALL
GASTEIGER

@<TRIPOS>ATOM
      1  N         -0.2260   14.6720  -33.5690 N.3    59  HIS59      -0.1241
      2  CA        -0.3980   15.7140  -34.5650 C.3    59  HIS59       0.1621
      3  C          0.9350   16.2610  -35.0610 C.2    59  HIS59       0.2264
      4  O          1.5790   17.0920  -34.3790 O.2    59  HIS59      -0.2867
      5  CB        -1.1250   16.8430  -33.9630 C.3    59  HIS59       0.0745
      6  CG        -2.5200   16.5100  -33.5670 C.ar   59  HIS59       0.0817
      7  ND1       -2.8220   15.6340  -32.5490 N.ar   59  HIS59      -0.2268
      8  CD2       -3.6990   16.9520  -34.0510 C.ar   59  HIS59       0.1154
      9  CE1       -4.1330   15.5780  -32.3970 C.ar   59  HIS59       0.1986
     10  NE2       -4.6880   16.3820  -33.2910 N.ar   59  HIS59      -0.2212
     11  N          1.1490   17.4550  -38.3100 N.3    61  TRP61      -0.1241
     12  CA         0.8500   18.1330  -39.5240 C.3    61  TRP61       0.1605
     13  C          1.4460   19.5400  -39.5940 C.2    61  TRP61       0.2264
     14  O          1.6500   20.2020  -38.5700 O.2    61  TRP61      -0.2867
     15  CB        -0.6460   18.1160  -39.7750 C.3    61  TRP61       0.0550
     16  CG        -1.4670   18.8450  -38.7850 C.ar   61  TRP61       0.0003
     17  CD1       -2.0590   18.3280  -37.7050 C.ar   61  TRP61       0.0946
     18  CD2       -1.7850   20.2300  -38.7970 C.ar   61  TRP61       0.0152
     19  NE1       -2.7220   19.2940  -37.0160 N.ar   61  TRP61      -0.2442
     20  CE2       -2.5870   20.4760  -37.6730 C.ar   61  TRP61       0.0810
     21  CE3       -1.4820   21.2930  -39.6710 C.ar   61  TRP61       0.0012
     22  CZ2       -3.1160   21.7430  -37.3730 C.ar   61  TRP61       0.0191
     23  CZ3       -1.9890   22.5700  -39.3780 C.ar   61  TRP61       0.0001
     24  CH2       -2.8140   22.7740  -38.2360 C.ar   61  TRP61       0.0015
     25  N         -1.6420   12.3310  -37.6930 N.3    83  TRP83      -0.1241
     26  CA        -1.8050   13.4110  -38.6700 C.3    83  TRP83       0.1605
     27  C         -0.4680   13.8810  -39.1830 C.2    83  TRP83       0.2264
     28  O          0.2560   14.5260  -38.4540 O.2    83  TRP83      -0.2867
     29  CB        -2.5180   14.6110  -38.0500 C.3    83  TRP83       0.0550
     30  CG        -3.8500   14.2820  -37.5430 C.ar   83  TRP83       0.0003
     31  CD1       -4.2620   14.2910  -36.2490 C.ar   83  TRP83       0.0946
     32  CD2       -4.9730   13.8730  -38.3180 C.ar   83  TRP83       0.0152
     33  NE1       -5.5920   13.9240  -36.1660 N.ar   83  TRP83      -0.2442
     34  CE2       -6.0500   13.6780  -37.4260 C.ar   83  TRP83       0.0810
     35  CE3       -5.1800   13.6730  -39.6860 C.ar   83  TRP83       0.0012
     36  CZ2       -7.3080   13.2890  -37.8530 C.ar   83  TRP83       0.0191
     37  CZ3       -6.4240   13.2700  -40.1210 C.ar   83  TRP83       0.0001
     38  CH2       -7.4850   13.0830  -39.2080 C.ar   83  TRP83       0.0015
     39  N         -0.2830   15.3280  -42.3930 N.3    85  ASN85      -0.1225
     40  CA        -0.5980   16.2040  -43.5110 C.3    85  ASN85       0.1785
     41  C          0.3770   17.3670  -43.6110 C.2    85  ASN85       0.2597
     42  O          0.8530   17.8820  -42.5840 O.2    85  ASN85      -0.2718
     43  CB        -1.9990   16.7880  -43.3820 C.3    85  ASN85       0.1169
     44  CG        -3.0140   15.7880  -42.8550 C.2    85  ASN85       0.2627
     45  OD1       -3.1820   15.6310  -41.6390 O.2    85  ASN85      -0.2716
     46  ND2       -3.7270   15.1470  -43.7530 N.am   85  ASN85      -0.0877
     47  N          0.6220   17.8150  -44.8220 N.am   86  SER86      -0.1952
     48  CA         1.3750   19.0540  -45.0940 C.3    86  SER86       0.1924
     49  C          2.7650   18.9970  -44.5450 C.2    86  SER86       0.2314
     50  O          3.2160   19.8950  -43.8280 O.2    86  SER86      -0.2863
     51  CB         0.6540   20.2890  -44.5640 C.3    86  SER86       0.2116
     52  OG        -0.6950   20.2110  -44.9250 O.3    86  SER86      -0.2180
     53  N         -5.9340    8.3780  -40.2610 N.3   106  LEU106     -0.1231
     54  CA        -4.5690    8.5270  -40.7480 C.3   106  LEU106      0.1693
     55  C         -4.5790    9.5810  -41.8360 C.2   106  LEU106      0.2592
     56  O         -5.2710    9.4210  -42.8700 O.2   106  LEU106     -0.2718
     57  CB        -4.0280    7.1890  -41.2650 C.3   106  LEU106      0.0284
     58  CG        -2.6870    7.2170  -42.0060 C.3   106  LEU106      0.0019
     59  CD1       -1.5540    7.9060  -41.1820 C.3   106  LEU106      0.0001
     60  CD2       -2.3490    5.8150  -42.4110 C.3   106  LEU106      0.0001
     61  N         -3.8620   10.6760  -41.5790 N.am  107  GLY107     -0.1957
     62  CA        -3.7720   11.7410  -42.5590 C.3   107  GLY107      0.1869
     63  C         -2.4050   11.8180  -43.2180 C.2   107  GLY107      0.2309
     64  O         -1.3730   11.9460  -42.5670 O.2   107  GLY107     -0.2863
     65  N         -2.1910   13.8580  -46.4550 N.3   109  CYS109     -0.1221
     66  CA        -2.4800   14.6910  -47.6280 C.3   109  CYS109      0.1808
     67  C         -1.3610   15.7040  -47.8380 C.2   109  CYS109      0.2601
     68  O         -0.5750   15.9660  -46.9500 O.2   109  CYS109     -0.2717
     69  CB        -3.8250   15.4300  -47.4880 C.3   109  CYS109      0.0970
     70  SG        -3.7360   16.9420  -46.4300 S.3   109  CYS109     -0.0800
     71  N         -1.3490   16.3260  -49.0030 N.am  110  CYS110     -0.1970
     72  CA        -0.7210   17.6500  -49.1380 C.3   110  CYS110      0.1712
     73  C          0.7780   17.5590  -48.9780 C.2   110  CYS110      0.2296
     74  O          1.3770   18.3870  -48.3350 O.2   110  CYS110     -0.2864
     75  CB        -1.3260   18.6000  -48.0810 C.3   110  CYS110      0.0983
     76  SG        -3.1890   18.4440  -47.9130 S.3   110  CYS110     -0.0798
     77  N        -10.7650    6.5080  -41.3410 N.3   129  GLN129     -0.1245
     78  CA       -10.5920    7.6820  -42.1980 C.3   129  GLN129      0.1566
     79  C         -9.1600    7.7520  -42.7100 C.2   129  GLN129      0.2260
     80  O         -8.2220    7.6640  -41.9190 O.2   129  GLN129     -0.2867
     81  CB       -10.9100    8.9370  -41.4240 C.3   129  GLN129      0.0367
     82  CG       -12.3210    8.9790  -40.8940 C.3   129  GLN129      0.0905
     83  CD       -12.7460   10.4040  -40.7510 C.2   129  GLN129      0.2608
     84  OE1      -11.9530   11.2950  -41.0530 O.2   129  GLN129     -0.2717
     85  NE2      -13.9710   10.6450  -40.2800 N.am  129  GLN129     -0.0878
     86  N         -6.6990    9.9810  -45.4310 N.3   131  GLY131     -0.1225
     87  CA        -6.4750   11.1300  -46.2950 C.3   131  GLY131      0.1811
     88  C         -5.2140   10.9790  -47.1460 C.2   131  GLY131      0.2280
     89  O         -4.0890   11.0130  -46.6130 O.2   131  GLY131     -0.2866
     90  N         -5.2170   12.7600  -50.3550 N.3   133  ASP133     -0.1225
     91  CA        -5.3630   13.8260  -51.3230 C.3   133  ASP133      0.1805
     92  C         -4.1100   14.7320  -51.4180 C.2   133  ASP133      0.2597
     93  O         -3.3170   14.8400  -50.4730 O.2   133  ASP133     -0.2718
     94  CB        -6.5900   14.6520  -50.9390 C.3   133  ASP133      0.1424
     95  CG        -6.5460   15.0870  -49.4740 C.2   133  ASP133      0.3668
     96  OD1       -6.5280   14.2220  -48.5610 O.co2 133  ASP133     -0.2456
     97  OD2       -6.5270   16.3090  -49.2230 O.co2 133  ASP133     -0.2456
     98  N         -3.9760   15.4080  -52.5610 N.am  134  GLN134     -0.1979
     99  CA        -2.9520   16.4580  -52.7610 C.3   134  GLN134      0.1601
    100  C         -1.5280   15.9500  -52.6210 C.2   134  GLN134      0.2287
    101  O         -0.6990   16.5060  -51.9040 O.2   134  GLN134     -0.2864
    102  CB        -3.1980   17.6690  -51.8580 C.3   134  GLN134      0.0394
    103  CG        -4.6220   18.0960  -51.9330 C.3   134  GLN134      0.0908
    104  CD        -4.9240   19.2370  -51.0050 C.2   134  GLN134      0.2608
    105  OE1       -4.3480   20.3290  -51.1370 O.2   134  GLN134     -0.2717
    106  NE2       -5.8240   18.9910  -50.0420 N.am  134  GLN134     -0.0878
    107  N        -10.0250   10.2690  -48.9430 N.3   155  TRP155     -0.1241
    108  CA        -9.7490   11.4410  -49.7560 C.3   155  TRP155      0.1605
    109  C         -8.6690   11.0520  -50.7210 C.2   155  TRP155      0.2264
    110  O         -7.5760   10.5410  -50.3010 O.2   155  TRP155     -0.2867
    111  CB        -9.1610   12.5550  -48.9280 C.3   155  TRP155      0.0550
    112  CG       -10.0450   13.2910  -47.9900 C.ar  155  TRP155      0.0003
    113  CD1      -10.4720   14.6100  -48.1150 C.ar  155  TRP155      0.0946
    114  CD2      -10.5280   12.8410  -46.7180 C.ar  155  TRP155      0.0152
    115  NE1      -11.2320   14.9690  -47.0180 N.ar  155  TRP155     -0.2442
    116  CE2      -11.2670   13.9230  -46.1400 C.ar  155  TRP155      0.0810
    117  CE3      -10.4060   11.6400  -46.0010 C.ar  155  TRP155      0.0012
    118  CZ2      -11.9210   13.8170  -44.9030 C.ar  155  TRP155      0.0191
    119  CZ3      -11.0410   11.5470  -44.7400 C.ar  155  TRP155      0.0001
    120  CH2      -11.7990   12.6310  -44.2180 C.ar  155  TRP155      0.0015
    121  N         -8.5880   12.9850  -54.0920 N.3   157  HIS157     -0.1241
    122  CA        -8.4710   14.0520  -55.0810 C.3   157  HIS157      0.1621
    123  C         -7.1070   14.7310  -55.1280 C.2   157  HIS157      0.2264
    124  O         -6.2580   14.5450  -54.2720 O.2   157  HIS157     -0.2867
    125  CB        -9.5640   15.0730  -54.8400 C.3   157  HIS157      0.0745
    126  CG        -9.4180   15.8040  -53.5440 C.ar  157  HIS157      0.0817
    127  ND1       -8.6630   16.9510  -53.4310 N.ar  157  HIS157     -0.2268
    128  CD2       -9.8910   15.5300  -52.3010 C.ar  157  HIS157      0.1154
    129  CE1       -8.6760   17.3580  -52.1700 C.ar  157  HIS157      0.1986
    130  NE2       -9.4280   16.5220  -51.4670 N.ar  157  HIS157     -0.2212
    131  N        -12.7900   17.7730  -48.3630 N.3   185  GLY185     -0.1210
    132  CA       -13.0780   18.7670  -47.3330 C.3   185  GLY185      0.1956
    133  C        -12.9160   18.2460  -45.9040 C.2   185  GLY185      0.2611
    134  O        -12.6170   17.0730  -45.6830 O.2   185  GLY185     -0.2717
    135  N        -13.0750   19.1450  -44.9400 N.am  186  TRP186     -0.1976
    136  CA       -12.8150   18.8450  -43.5240 C.3   186  TRP186      0.1640
    137  C        -13.8680   19.5670  -42.7070 C.2   186  TRP186      0.2290
    138  O        -13.8780   20.7970  -42.6860 O.2   186  TRP186     -0.2864
    139  CB       -11.4000   19.2680  -43.1060 C.3   186  TRP186      0.0576
    140  CG       -11.0890   18.8790  -41.7010 C.ar  186  TRP186      0.0006
    141  CD1      -10.9410   19.7220  -40.6240 C.ar  186  TRP186      0.0946
    142  CD2      -10.9530   17.5430  -41.1850 C.ar  186  TRP186      0.0152
    143  NE1      -10.7000   18.9930  -39.4830 N.ar  186  TRP186     -0.2442
    144  CE2      -10.7110   17.6550  -39.7920 C.ar  186  TRP186      0.0810
    145  CE3      -10.9810   16.2670  -41.7670 C.ar  186  TRP186      0.0012
    146  CZ2      -10.4920   16.5330  -38.9720 C.ar  186  TRP186      0.0191
    147  CZ3      -10.7850   15.1490  -40.9500 C.ar  186  TRP186      0.0001
    148  CH2      -10.5440   15.2970  -39.5590 C.ar  186  TRP186      0.0015
@<TRIPOS>BOND
     1   123   122    1
     2   123   124    2
     3   122   125    1
     4   122   121    1
     5   125   126    1
     6   126   127   ar
     7   126   128   ar
     8   127   129   ar
     9    99   100    1
    10    99    98    1
    11    99   102    1
    12   100   101    2
    13    98    92   am
    14   128   130   ar
    15   129   130   ar
    16   103   102    1
    17   103   104    1
    18    92    91    1
    19    92    93    2
    20    91    94    1
    21    91    90    1
    22   105   104    2
    23   104   106   am
    24    94    95    1
    25   109   110    2
    26   109   108    1
    27   108   107    1
    28   108   111    1
    29    95    97   ar
    30    95    96   ar
    31    72    71    1
    32    72    73    1
    33    72    75    1
    34    71    67   am
    35    73    74    2
    36   111   112    1
    37   131   132    1
    38   113   112   ar
    39   113   115   ar
    40    75    76    1
    41   112   114   ar
    42    76    70    1
    43    67    66    1
    44    67    68    2
    45    66    69    1
    46    66    65    1
    47    69    70    1
    48   132   133    1
    49    88    89    2
    50    88    87    1
    51   115   116   ar
    52   114   116   ar
    53   114   117   ar
    54    87    86    1
    55   116   118   ar
    56   117   119   ar
    57   133   134    2
    58   133   135   am
    59    48    47    1
    60    48    51    1
    61    48    49    1
    62   135   136    1
    63    52    51    1
    64   118   120   ar
    65    47    41   am
    66   119   120   ar
    67    49    50    2
    68    46    44   am
    69    41    40    1
    70    41    42    2
    71   136   139    1
    72   136   137    1
    73    40    43    1
    74    40    39    1
    75    43    44    1
    76    63    64    2
    77    63    62    1
    78   139   140    1
    79    56    55    2
    80    44    45    2
    81    79    78    1
    82    79    80    2
    83   137   138    2
    84    62    61    1
    85    60    58    1
    86    78    81    1
    87    78    77    1
    88    58    57    1
    89    58    59    1
    90    55    61   am
    91    55    54    1
    92   145   142   ar
    93   145   147   ar
    94   140   142   ar
    95   140   141   ar
    96    81    82    1
    97    57    54    1
    98   142   144   ar
    99    84    83    2
   100   147   148   ar
   101    82    83    1
   102    83    85   am
   103    54    53    1
   104   141   143   ar
   105    37    35   ar
   106    37    38   ar
   107   144   143   ar
   108   144   146   ar
   109    15    12    1
   110    15    16    1
   111    35    32   ar
   112    21    23   ar
   113    21    18   ar
   114    13    12    1
   115    13    14    2
   116   148   146   ar
   117    12    11    1
   118    23    24   ar
   119    38    36   ar
   120    27    26    1
   121    27    28    2
   122    18    16   ar
   123    18    20   ar
   124    16    17   ar
   125    26    29    1
   126    26    25    1
   127    32    30   ar
   128    32    34   ar
   129    24    22   ar
   130    29    30    1
   131    36    34   ar
   132    17    19   ar
   133    20    22   ar
   134    20    19   ar
   135    30    31   ar
   136    34    33   ar
   137    31    33   ar
   138     3     2    1
   139     3     4    2
   140     2     5    1
   141     2     1    1
   142     8     6   ar
   143     8    10   ar
   144     5     6    1
   145     6     7   ar
   146    10     9   ar
   147     7     9   ar
