@<TRIPOS>MOLECULE
tmp/4k7dB00.pdb
 93 93 0 0 0
SMALL
GASTEIGER

@<TRIPOS>ATOM
      1  N         64.4710   52.5860   75.1810 N.3    46  ASP46      -0.1225
      2  CA        65.6490   51.7500   75.4160 C.3    46  ASP46       0.1805
      3  C         66.3350   52.0500   76.7450 C.2    46  ASP46       0.2598
      4  O         66.9750   51.1780   77.3180 O.2    46  ASP46      -0.2718
      5  CB        66.6750   51.8890   74.2820 C.3    46  ASP46       0.1424
      6  CG        66.1830   51.3210   72.9560 C.2    46  ASP46       0.3668
      7  OD1       65.3210   50.4140   72.9600 O.co2  46  ASP46      -0.2456
      8  OD2       66.6680   51.7870   71.8990 O.co2  46  ASP46      -0.2456
      9  N         66.2040   53.2750   77.2430 N.am   47  VAL47      -0.1966
     10  CA        66.9460   53.6570   78.4430 C.3    47  VAL47       0.1727
     11  C         66.0810   53.8030   79.6930 C.2    47  VAL47       0.2616
     12  O         66.5880   53.7500   80.8110 O.2    47  VAL47      -0.2715
     13  CB        67.7820   54.9310   78.2120 C.3    47  VAL47       0.0290
     14  CG1       68.8550   54.6610   77.1730 C.3    47  VAL47       0.0023
     15  CG2       66.9000   56.0680   77.7560 C.3    47  VAL47       0.0023
     16  N         64.7790   53.9840   79.5110 N.am   48  LEU48      -0.1963
     17  CA        63.8760   54.1210   80.6570 C.3    48  LEU48       0.1728
     18  C         63.2460   52.7860   81.0480 C.2    48  LEU48       0.2616
     19  O         63.3920   52.3350   82.1800 O.2    48  LEU48      -0.2715
     20  CB        62.7950   55.1640   80.3760 C.3    48  LEU48       0.0311
     21  CG        63.3590   56.5640   80.1400 C.3    48  LEU48       0.0022
     22  CD1       62.2320   57.5640   80.0090 C.3    48  LEU48       0.0001
     23  CD2       64.3260   56.9700   81.2630 C.3    48  LEU48       0.0001
     24  N         62.5520   52.1610   80.1010 N.am   49  ILE49      -0.1964
     25  CA        61.9670   50.8400   80.3030 C.3    49  ILE49       0.1712
     26  C         63.0240   49.8090   80.6900 C.2    49  ILE49       0.2458
     27  O         63.9970   49.6060   79.9650 O.2    49  ILE49      -0.2730
     28  CB        61.2690   50.3590   79.0340 C.3    49  ILE49       0.0289
     29  CG1       60.1770   51.3490   78.6290 C.3    49  ILE49       0.0022
     30  CG2       60.7000   48.9740   79.2440 C.3    49  ILE49       0.0023
     31  CD1       59.5080   51.0250   77.3010 C.3    49  ILE49       0.0001
     32  N         62.8280   49.1430   81.8350 N.am   50  PRO50      -0.2716
     33  CA        63.8270   48.2070   82.3560 C.3    50  PRO50       0.1536
     34  C         63.9120   46.9370   81.5180 C.2    50  PRO50       0.2599
     35  O         62.8900   46.4740   81.0120 O.2    50  PRO50      -0.2715
     36  CB        63.3000   47.8750   83.7610 C.3    50  PRO50       0.0310
     37  CG        62.2710   48.9220   84.0610 C.3    50  PRO50       0.0237
     38  CD        61.6710   49.2590   82.7360 C.3    50  PRO50       0.0939
     39  N         65.1260   46.4060   81.3700 N.am   51  ASN51      -0.1959
     40  CA        65.3640   45.1330   80.6940 C.3    51  ASN51       0.1819
     41  C         65.0750   45.1700   79.1840 C.2    51  ASN51       0.2621
     42  O         64.7730   44.1470   78.5760 O.2    51  ASN51      -0.2715
     43  CB        64.5700   44.0150   81.3900 C.3    51  ASN51       0.1195
     44  CG        65.0830   42.6260   81.0570 C.2    51  ASN51       0.2630
     45  OD1       66.2810   42.4240   80.8450 O.2    51  ASN51      -0.2716
     46  ND2       64.1690   41.6570   81.0030 N.am   51  ASN51      -0.0877
     47  N         65.1770   46.3450   78.5760 N.am   52  ARG52      -0.1977
     48  CA        64.9460   46.5160   77.1420 C.3    52  ARG52       0.1597
     49  C         66.1610   46.1190   76.3110 C.2    52  ARG52       0.2287
     50  O         66.0450   45.7360   75.1470 O.2    52  ARG52      -0.2864
     51  CB        64.6190   47.9780   76.8410 C.3    52  ARG52       0.0334
     52  CG        63.1640   48.2520   76.5400 C.3    52  ARG52       0.0492
     53  CD        62.7370   47.6230   75.2270 C.3    52  ARG52       0.2205
     54  NE        61.4980   48.2200   74.7450 N.pl3  52  ARG52      -0.0865
     55  CZ        60.2950   47.9210   75.2200 C.cat  52  ARG52       0.5346
     56  NH1       60.1680   47.0270   76.1910 N.pl3  52  ARG52       0.1354
     57  NH2       59.2180   48.5190   74.7260 N.pl3  52  ARG52       0.1354
     58  N         71.8570   42.0800   81.3490 N.3    66  ARG66      -0.1231
     59  CA        70.8570   43.1420   81.4450 C.3    66  ARG66       0.1694
     60  C         71.5020   44.5330   81.4190 C.2    66  ARG66       0.2592
     61  O         72.4940   44.7950   82.1090 O.2    66  ARG66      -0.2718
     62  CB        69.9840   42.9680   82.6960 C.3    66  ARG66       0.0321
     63  CG        68.5550   43.4770   82.5290 C.3    66  ARG66       0.0489
     64  CD        67.7020   43.2800   83.7840 C.3    66  ARG66       0.2205
     65  NE        67.4260   44.5510   84.4540 N.pl3  66  ARG66      -0.0865
     66  CZ        68.0370   44.9680   85.5600 C.cat  66  ARG66       0.5346
     67  NH1       68.9510   44.2050   86.1390 N.pl3  66  ARG66       0.1354
     68  NH2       67.7280   46.1450   86.0920 N.pl3  66  ARG66       0.1354
     69  N         70.9320   45.4180   80.6070 N.am   67  ALA67      -0.1966
     70  CA        71.4490   46.7700   80.4710 C.3    67  ALA67       0.1728
     71  C         70.7150   47.7150   81.4110 C.2    67  ALA67       0.2616
     72  O         69.5350   48.0010   81.2140 O.2    67  ALA67      -0.2715
     73  CB        71.3250   47.2410   79.0260 C.3    67  ALA67       0.0334
     74  N         71.4170   48.1930   82.4350 N.am   68  GLU68      -0.1963
     75  CA        70.8320   49.1210   83.3950 C.3    68  GLU68       0.1733
     76  C         71.3710   50.5280   83.1610 C.2    68  GLU68       0.2616
     77  O         72.5200   50.8290   83.4880 O.2    68  GLU68      -0.2715
     78  CB        71.1140   48.6640   84.8330 C.3    68  GLU68       0.0429
     79  CG        70.3510   49.4380   85.9090 C.3    68  GLU68       0.1163
     80  CD        70.5080   48.8380   87.3100 C.2    68  GLU68       0.3649
     81  OE1       71.0020   49.5520   88.2110 O.co2  68  GLU68      -0.2457
     82  OE2       70.1250   47.6620   87.5170 O.co2  68  GLU68      -0.2457
     83  N         70.5310   51.3820   82.5840 N.am   69  PHE69      -0.1974
     84  CA        70.9030   52.7610   82.2930 C.3    69  PHE69       0.1639
     85  C         70.5720   53.6940   83.4440 C.2    69  PHE69       0.2290
     86  O         69.6210   53.4610   84.1930 O.2    69  PHE69      -0.2864
     87  CB        70.1680   53.2470   81.0470 C.3    69  PHE69       0.0560
     88  CG        70.6010   52.5640   79.7940 C.ar   69  PHE69      -0.0200
     89  CD1       71.8020   52.8970   79.1930 C.ar   69  PHE69      -0.0042
     90  CD2       69.8170   51.5880   79.2190 C.ar   69  PHE69      -0.0042
     91  CE1       72.2100   52.2740   78.0400 C.ar   69  PHE69      -0.0003
     92  CE2       70.2190   50.9620   78.0660 C.ar   69  PHE69      -0.0003
     93  CZ        71.4210   51.3060   77.4750 C.ar   69  PHE69      -0.0000
@<TRIPOS>BOND
     1     8     6   ar
     2     6     7   ar
     3     6     5    1
     4     5     2    1
     5    57    55    1
     6    54    55    2
     7    54    53    1
     8    50    49    2
     9     1     2    1
    10    55    56    1
    11    53    52    1
    12     2     3    1
    13    49    48    1
    14    52    51    1
    15     3     9   am
    16     3     4    2
    17    51    48    1
    18    48    47    1
    19    14    13    1
    20     9    10    1
    21    31    29    1
    22    93    91   ar
    23    93    92   ar
    24    15    13    1
    25    91    89   ar
    26    92    90   ar
    27    13    10    1
    28    10    11    1
    29    47    41   am
    30    42    41    2
    31    29    28    1
    32    73    70    1
    33    28    30    1
    34    28    25    1
    35    41    40    1
    36    89    88   ar
    37    90    88   ar
    38    16    11   am
    39    16    17    1
    40    11    12    2
    41    88    87    1
    42    27    26    2
    43    22    21    1
    44    24    25    1
    45    24    18   am
    46    21    20    1
    47    21    23    1
    48    25    26    1
    49    20    17    1
    50    70    69    1
    51    70    71    1
    52    69    60   am
    53    17    18    1
    54    26    32   am
    55    40    39    1
    56    40    43    1
    57    45    44    2
    58    46    44   am
    59    35    34    2
    60    87    84    1
    61    18    19    2
    62    44    43    1
    63    72    71    2
    64    58    59    1
    65    39    34   am
    66    71    74   am
    67    60    59    1
    68    60    61    2
    69    59    62    1
    70    34    33    1
    71    32    33    1
    72    32    38    1
    73    84    83    1
    74    84    85    1
    75    33    36    1
    76    74    75    1
    77    63    62    1
    78    63    64    1
    79    83    76   am
    80    38    37    1
    81    76    75    1
    82    76    77    2
    83    75    78    1
    84    85    86    2
    85    36    37    1
    86    64    65    1
    87    65    66    2
    88    78    79    1
    89    66    68    1
    90    66    67    1
    91    79    80    1
    92    80    82   ar
    93    80    81   ar
