@<TRIPOS>MOLECULE
tmp/4k7gB00.pdb
 86 79 0 0 0
SMALL
GASTEIGER

@<TRIPOS>ATOM
      1  N         39.4590   15.8130   35.7100 N.3   162  ALA162     -0.1245
      2  CA        40.3960   16.6200   34.9130 C.3   162  ALA162      0.1562
      3  C         39.9460   16.8120   33.4710 C.2   162  ALA162      0.2260
      4  O         40.6780   16.4890   32.5410 O.2   162  ALA162     -0.2867
      5  CB        41.7950   15.9960   34.9330 C.3   162  ALA162      0.0290
      6  N         41.2990   23.2170   33.8000 N.3   174  THR174     -0.1203
      7  CA        41.1580   21.7950   34.0500 C.3   174  THR174      0.1994
      8  C         40.2790   21.6270   35.2800 C.2   174  THR174      0.2618
      9  O         40.6020   22.1460   36.3420 O.2   174  THR174     -0.2717
     10  CB        42.5160   21.1340   34.3050 C.3   174  THR174      0.1784
     11  OG1       43.3540   21.3120   33.1580 O.3   174  THR174     -0.2211
     12  CG2       42.3360   19.6560   34.5750 C.3   174  THR174      0.0376
     13  N         39.1620   20.9260   35.1260 N.am  175  VAL175     -0.1965
     14  CA        38.1560   20.8670   36.1770 C.3   175  VAL175      0.1727
     15  C         37.6650   19.4380   36.3940 C.2   175  VAL175      0.2616
     16  O         37.9050   18.5510   35.5680 O.2   175  VAL175     -0.2715
     17  CB        36.9490   21.7480   35.8270 C.3   175  VAL175      0.0290
     18  CG1       37.4050   23.1670   35.4820 C.3   175  VAL175      0.0023
     19  CG2       36.1720   21.1340   34.6540 C.3   175  VAL175      0.0023
     20  N         36.9820   19.2190   37.5130 N.am  176  ASP176     -0.1971
     21  CA        36.2730   17.9690   37.7360 C.3   176  ASP176      0.1709
     22  C         34.7800   18.2670   37.7520 C.2   176  ASP176      0.2293
     23  O         34.3700   19.3980   38.0050 O.2   176  ASP176     -0.2864
     24  CB        36.6920   17.3320   39.0770 C.3   176  ASP176      0.1436
     25  CG        38.1910   17.3170   39.2770 C.2   176  ASP176      0.3671
     26  OD1       38.8990   16.8760   38.3550 O.co2 176  ASP176     -0.2456
     27  OD2       38.6720   17.7410   40.3560 O.co2 176  ASP176     -0.2456
     28  N         34.3260   21.5690   39.7090 N.3   186  ILE186     -0.1231
     29  CA        35.3120   21.8670   40.7380 C.3   186  ILE186      0.1692
     30  C         36.6060   22.3570   40.1080 C.2   186  ILE186      0.2592
     31  O         37.1460   21.7220   39.2010 O.2   186  ILE186     -0.2718
     32  CB        35.6020   20.6220   41.6130 C.3   186  ILE186      0.0266
     33  CG1       34.2870   19.9980   42.0900 C.3   186  ILE186      0.0019
     34  CG2       36.4870   20.9960   42.8120 C.3   186  ILE186      0.0020
     35  CD1       34.4820   18.7290   42.9120 C.3   186  ILE186      0.0001
     36  N         37.1070   23.4890   40.5830 N.am  187  VAL187     -0.1966
     37  CA        38.2560   24.1110   39.9520 C.3   187  VAL187      0.1727
     38  C         39.1370   24.7880   40.9850 C.2   187  VAL187      0.2616
     39  O         38.6600   25.2770   42.0190 O.2   187  VAL187     -0.2715
     40  CB        37.7990   25.1340   38.8800 C.3   187  VAL187      0.0290
     41  CG1       36.9890   26.2520   39.5320 C.3   187  VAL187      0.0023
     42  CG2       38.9950   25.6890   38.1240 C.3   187  VAL187      0.0023
     43  N         40.4340   24.8220   40.7110 N.am  188  ASP188     -0.1971
     44  CA        41.3930   25.4130   41.6440 C.3   188  ASP188      0.1709
     45  C         41.3690   26.9440   41.5680 C.2   188  ASP188      0.2293
     46  O         41.5070   27.5180   40.4900 O.2   188  ASP188     -0.2864
     47  CB        42.8000   24.9080   41.3270 C.3   188  ASP188      0.1436
     48  CG        43.8660   25.7210   42.0190 C.2   188  ASP188      0.3671
     49  OD1       43.7870   25.8730   43.2500 O.co2 188  ASP188     -0.2456
     50  OD2       44.7650   26.2310   41.3290 O.co2 188  ASP188     -0.2456
     51  N         38.3780   25.8920   44.8320 N.3   238  THR238     -0.1218
     52  CA        39.1140   25.3160   45.9520 C.3   238  THR238      0.1862
     53  C         40.5020   25.9230   46.1280 C.2   238  THR238      0.2287
     54  O         41.0820   26.4920   45.1960 O.2   238  THR238     -0.2866
     55  CB        39.3310   23.8030   45.7610 C.3   238  THR238      0.1770
     56  OG1       40.1980   23.5630   44.6350 O.3   238  THR238     -0.2211
     57  CG2       38.0100   23.0670   45.5320 C.3   238  THR238      0.0375
     58  N         33.9140   16.6850   46.7080 N.3   273  ARG273     -0.1245
     59  CA        35.3660   16.7560   46.8050 C.3   273  ARG273      0.1563
     60  C         35.9170   15.4520   47.3880 C.2   273  ARG273      0.2260
     61  O         36.9130   14.9300   46.8990 O.2   273  ARG273     -0.2867
     62  CB        35.8150   17.9710   47.6290 C.3   273  ARG273      0.0307
     63  CG        37.2780   18.2970   47.4690 C.3   273  ARG273      0.0489
     64  CD        37.6830   19.5340   48.2600 C.3   273  ARG273      0.2205
     65  NE        39.0300   19.9480   47.8970 N.pl3 273  ARG273     -0.0865
     66  CZ        39.6020   21.0850   48.2700 C.cat 273  ARG273      0.5346
     67  NH1       38.9540   21.9520   49.0550 N.pl3 273  ARG273      0.1354
     68  NH2       40.8220   21.3630   47.8400 N.pl3 273  ARG273      0.1354
     69  N         36.1010   12.8870   44.6410 N.3   276  VAL276     -0.1245
     70  CA        37.3020   13.0630   43.8250 C.3   276  VAL276      0.1561
     71  C         38.5580   12.5710   44.5600 C.2   276  VAL276      0.2260
     72  O         39.3890   11.8560   44.0060 O.2   276  VAL276     -0.2867
     73  CB        37.5120   14.5340   43.4300 C.3   276  VAL276      0.0252
     74  CG1       38.8690   14.7120   42.7720 C.3   276  VAL276      0.0019
     75  CG2       36.4000   15.0220   42.5160 C.3   276  VAL276      0.0019
     76  N         41.1550    9.4110   43.5830 N.3   280  ARG280     -0.1245
     77  CA        42.5850    9.5810   43.3530 C.3   280  ARG280      0.1563
     78  C         43.4470    9.0030   44.4440 C.2   280  ARG280      0.2260
     79  O         44.6250    9.3240   44.5150 O.2   280  ARG280     -0.2867
     80  CB        42.9270   11.0520   43.2370 C.3   280  ARG280      0.0307
     81  CG        42.3790   11.6740   42.0170 C.3   280  ARG280      0.0489
     82  CD        42.8100   13.0900   41.9650 C.3   280  ARG280      0.2205
     83  NE        42.7210   13.5670   40.6040 N.pl3 280  ARG280     -0.0865
     84  CZ        42.3950   14.8020   40.2560 C.cat 280  ARG280      0.5346
     85  NH1       42.1150   15.7320   41.1740 N.pl3 280  ARG280      0.1354
     86  NH2       42.3440   15.0970   38.9710 N.pl3 280  ARG280      0.1354
@<TRIPOS>BOND
     1     4     3    2
     2    11    10    1
     3     3     2    1
     4     6     7    1
     5     7    10    1
     6     7     8    1
     7    10    12    1
     8    19    17    1
     9     2     5    1
    10     2     1    1
    11    13     8   am
    12    13    14    1
    13     8     9    2
    14    18    17    1
    15    16    15    2
    16    17    14    1
    17    14    15    1
    18    15    20   am
    19    20    21    1
    20    21    22    1
    21    21    24    1
    22    22    23    2
    23    42    40    1
    24    26    25   ar
    25    40    41    1
    26    40    37    1
    27    86    84    1
    28    24    25    1
    29    31    30    2
    30    25    27   ar
    31    28    29    1
    32    37    36    1
    33    37    38    1
    34    30    36   am
    35    30    29    1
    36    84    83    2
    37    84    85    1
    38    46    45    2
    39    83    82    1
    40    43    38   am
    41    43    44    1
    42    29    32    1
    43    38    39    2
    44    47    44    1
    45    47    48    1
    46    50    48   ar
    47    45    44    1
    48    32    33    1
    49    32    34    1
    50    82    81    1
    51    81    80    1
    52    48    49   ar
    53    33    35    1
    54    75    73    1
    55    74    73    1
    56    80    77    1
    57    77    76    1
    58    77    78    1
    59    73    70    1
    60    70    71    1
    61    70    69    1
    62    72    71    2
    63    78    79    2
    64    56    55    1
    65    51    52    1
    66    54    53    2
    67    57    55    1
    68    55    52    1
    69    52    53    1
    70    58    59    1
    71    59    60    1
    72    59    62    1
    73    61    60    2
    74    63    62    1
    75    63    64    1
    76    68    66    1
    77    65    64    1
    78    65    66    2
    79    66    67    1
