@<TRIPOS>MOLECULE
tmp/4k7gB01.pdb
 97 91 0 0 0
SMALL
GASTEIGER

@<TRIPOS>ATOM
      1  N         25.2560   29.4820   57.0120 N.3    27  GLU27      -0.1245
      2  CA        24.4040   29.4090   55.8340 C.3    27  GLU27       0.1567
      3  C         22.9320   29.2310   56.2320 C.2    27  GLU27       0.2260
      4  O         22.5470   28.2440   56.8680 O.2    27  GLU27      -0.2867
      5  CB        24.8780   28.2710   54.8930 C.3    27  GLU27       0.0388
      6  CG        24.1270   28.1860   53.5540 C.3    27  GLU27       0.1160
      7  CD        24.4880   29.2930   52.5630 C.2    27  GLU27       0.3649
      8  OE1       24.0230   29.2260   51.3900 O.co2  27  GLU27      -0.2457
      9  OE2       25.2260   30.2320   52.9400 O.co2  27  GLU27      -0.2457
     10  N         17.8690   30.2690   52.1430 N.3    72  HIS72      -0.1241
     11  CA        17.2770   29.0460   51.6100 C.3    72  HIS72       0.1621
     12  C         16.1250   28.7520   52.5640 C.2    72  HIS72       0.2264
     13  O         16.2090   29.0980   53.7460 O.2    72  HIS72      -0.2867
     14  CB        18.2430   27.8510   51.6560 C.3    72  HIS72       0.0745
     15  CG        19.5710   28.0890   51.0000 C.ar   72  HIS72       0.0817
     16  ND1       19.7630   28.0000   49.6360 N.ar   72  HIS72      -0.2268
     17  CD2       20.7860   28.3580   51.5260 C.ar   72  HIS72       0.1154
     18  CE1       21.0320   28.2340   49.3530 C.ar   72  HIS72       0.1986
     19  NE2       21.6730   28.4700   50.4820 N.ar   72  HIS72      -0.2212
     20  N         16.3000   26.7050   47.1740 N.3    92  GLU92      -0.1245
     21  CA        17.4350   27.6160   47.0500 C.3    92  GLU92       0.1567
     22  C         17.0360   28.7150   46.0710 C.2    92  GLU92       0.2260
     23  O         15.9960   28.6000   45.4120 O.2    92  GLU92      -0.2867
     24  CB        18.7020   26.8540   46.5990 C.3    92  GLU92       0.0388
     25  CG        18.9220   25.5980   47.4090 C.3    92  GLU92       0.1160
     26  CD        20.3200   24.9930   47.3050 C.2    92  GLU92       0.3649
     27  OE1       21.1920   25.5520   46.6120 O.co2  92  GLU92      -0.2457
     28  OE2       20.5430   23.9520   47.9620 O.co2  92  GLU92      -0.2457
     29  N         19.5900   17.5080   47.2730 N.3    99  MET99      -0.1230
     30  CA        20.0840   17.5930   48.6530 C.3    99  MET99       0.1702
     31  C         20.8870   18.8690   48.9040 C.2    99  MET99       0.2593
     32  O         21.3580   19.5360   47.9770 O.2    99  MET99      -0.2718
     33  CB        20.9610   16.3650   49.0020 C.3    99  MET99       0.0401
     34  CG        20.3980   15.4850   50.1150 C.3    99  MET99       0.0596
     35  SD        20.2680   16.3470   51.7340 S.3    99  MET99      -0.1393
     36  CE        21.9690   16.3620   52.3020 C.3    99  MET99       0.0692
     37  N         21.0630   19.1850   50.1810 N.am  100  SER100     -0.1938
     38  CA        21.8920   20.3140   50.5860 C.3   100  SER100      0.2055
     39  C         22.3340   20.0100   52.0240 C.2   100  SER100      0.2644
     40  O         21.5010   19.7640   52.8790 O.2   100  SER100     -0.2714
     41  CB        21.1230   21.6320   50.5080 C.3   100  SER100      0.2130
     42  OG        21.8380   22.6940   51.1220 O.3   100  SER100     -0.2179
     43  N         23.6410   19.9790   52.2540 N.am  101  GLY101     -0.1939
     44  CA        24.1780   19.6280   53.5540 C.3   101  GLY101      0.2014
     45  C         23.7770   20.6110   54.6400 C.2   101  GLY101      0.2639
     46  O         23.2080   20.2170   55.6600 O.2   101  GLY101     -0.2714
     47  N         24.0740   21.8920   54.4250 N.am  102  SER102     -0.1949
     48  CA        23.7780   22.9160   55.4410 C.3   102  SER102      0.1924
     49  C         22.2730   22.9380   55.7440 C.2   102  SER102      0.2314
     50  O         21.8460   23.0400   56.9060 O.2   102  SER102     -0.2863
     51  CB        24.2830   24.2850   54.9890 C.3   102  SER102      0.2116
     52  OG        23.5530   24.7740   53.8510 O.3   102  SER102     -0.2180
     53  N         26.5210   24.1090   40.7420 N.3   234  PHE234     -0.1241
     54  CA        27.4990   24.8550   41.5200 C.3   234  PHE234      0.1605
     55  C         28.8820   24.8450   40.9050 C.2   234  PHE234      0.2264
     56  O         29.3260   23.8310   40.3580 O.2   234  PHE234     -0.2867
     57  CB        27.6640   24.2080   42.8910 C.3   234  PHE234      0.0534
     58  CG        26.4410   24.2280   43.7430 C.ar  234  PHE234     -0.0203
     59  CD1       25.7650   25.4120   43.9970 C.ar  234  PHE234     -0.0042
     60  CD2       25.9910   23.0530   44.3440 C.ar  234  PHE234     -0.0042
     61  CE1       24.6340   25.4320   44.8190 C.ar  234  PHE234     -0.0003
     62  CE2       24.8970   23.0670   45.1840 C.ar  234  PHE234     -0.0003
     63  CZ        24.2090   24.2590   45.4210 C.ar  234  PHE234     -0.0000
     64  N         26.5970   29.7930   44.3570 N.3   256  ILE256     -0.1245
     65  CA        25.1880   29.4380   44.2960 C.3   256  ILE256      0.1561
     66  C         24.4910   30.4280   43.3680 C.2   256  ILE256      0.2260
     67  O         24.6520   31.6450   43.5110 O.2   256  ILE256     -0.2867
     68  CB        24.5290   29.5560   45.7010 C.3   256  ILE256      0.0252
     69  CG1       25.1700   28.5890   46.7010 C.3   256  ILE256      0.0019
     70  CG2       23.0240   29.2910   45.6130 C.3   256  ILE256      0.0019
     71  CD1       24.8430   28.8940   48.1820 C.3   256  ILE256      0.0001
     72  N         28.3020   30.2850   49.2780 N.3   262  ASP262     -0.1239
     73  CA        27.8420   29.5670   50.4700 C.3   262  ASP262      0.1674
     74  C         28.6650   30.0740   51.6680 C.2   262  ASP262      0.2266
     75  O         29.9020   30.1800   51.5780 O.2   262  ASP262     -0.2867
     76  CB        28.0460   28.0550   50.2260 C.3   262  ASP262      0.1410
     77  CG        27.4880   27.1410   51.3480 C.2   262  ASP262      0.3668
     78  OD1       26.9960   27.5880   52.4150 O.co2 262  ASP262     -0.2456
     79  OD2       27.5840   25.9150   51.1340 O.co2 262  ASP262     -0.2456
     80  N         29.7560   23.9300   52.5670 N.3   266  THR266     -0.1203
     81  CA        28.9390   23.2380   51.5620 C.3   266  THR266      0.1994
     82  C         29.0380   21.7290   51.7350 C.2   266  THR266      0.2618
     83  O         30.0090   21.1130   51.3040 O.2   266  THR266     -0.2717
     84  CB        29.3280   23.5910   50.0830 C.3   266  THR266      0.1784
     85  OG1       29.6720   24.9760   49.9790 O.3   266  THR266     -0.2211
     86  CG2       28.1700   23.3040   49.1540 C.3   266  THR266      0.0376
     87  N         28.0280   21.1360   52.3580 N.am  267  GLY267     -0.1942
     88  CA        28.0620   19.7100   52.6400 C.3   267  GLY267      0.2014
     89  C         28.0760   18.8640   51.3720 C.2   267  GLY267      0.2639
     90  O         28.8100   17.8740   51.2770 O.2   267  GLY267     -0.2714
     91  N         27.2560   19.2360   50.3980 N.am  268  THR268     -0.1950
     92  CA        27.2870   18.5420   49.1150 C.3   268  THR268      0.1897
     93  C         28.6090   18.7640   48.3920 C.2   268  THR268      0.2313
     94  O         29.0620   17.8970   47.6410 O.2   268  THR268     -0.2863
     95  CB        26.1000   18.9580   48.1770 C.3   268  THR268      0.1794
     96  OG1       26.1190   20.3670   47.9350 O.3   268  THR268     -0.2208
     97  CG2       24.7750   18.5640   48.7750 C.3   268  THR268      0.0378
@<TRIPOS>BOND
     1    56    55    2
     2    53    54    1
     3    55    54    1
     4    54    57    1
     5    57    58    1
     6    66    67    2
     7    66    65    1
     8    58    59   ar
     9    58    60   ar
    10    59    61   ar
    11    65    64    1
    12    65    68    1
    13    60    62   ar
    14    61    63   ar
    15    62    63   ar
    16    23    22    2
    17    70    68    1
    18    68    69    1
    19    22    21    1
    20    24    21    1
    21    24    25    1
    22    27    26   ar
    23    69    71    1
    24    21    20    1
    25    29    30    1
    26    26    25    1
    27    26    28   ar
    28    94    93    2
    29    96    95    1
    30    32    31    2
    31    95    97    1
    32    95    92    1
    33    93    92    1
    34    30    31    1
    35    30    33    1
    36    31    37   am
    37    33    34    1
    38    92    91    1
    39    86    84    1
    40    72    73    1
    41    18    16   ar
    42    18    19   ar
    43    16    15   ar
    44    85    84    1
    45    84    81    1
    46    34    35    1
    47    37    38    1
    48    76    73    1
    49    76    77    1
    50    91    89   am
    51    73    74    1
    52    19    17   ar
    53    41    38    1
    54    41    42    1
    55    38    39    1
    56    15    17   ar
    57    15    14    1
    58    79    77   ar
    59    90    89    2
    60    83    82    2
    61    77    78   ar
    62    89    88    1
    63     8     7   ar
    64    81    82    1
    65    81    80    1
    66    75    74    2
    67    11    14    1
    68    11    10    1
    69    11    12    1
    70    35    36    1
    71    82    87   am
    72    39    43   am
    73    39    40    2
    74    43    44    1
    75    87    88    1
    76     7     9   ar
    77     7     6    1
    78    12    13    2
    79     6     5    1
    80    44    45    1
    81    52    51    1
    82    47    45   am
    83    47    48    1
    84    45    46    2
    85     5     2    1
    86    51    48    1
    87    48    49    1
    88    49    50    2
    89     2     3    1
    90     2     1    1
    91     3     4    2
