@<TRIPOS>MOLECULE
tmp/4k80A00.pdb
 230 220 0 0 0
SMALL
GASTEIGER

@<TRIPOS>ATOM
      1  N         17.6970   39.0580   57.4330 N.3    31  TRP31      -0.1241
      2  CA        17.8180   37.6540   57.0440 C.3    31  TRP31       0.1605
      3  C         18.5680   36.8270   58.0930 C.2    31  TRP31       0.2264
      4  O         18.2400   35.6580   58.3180 O.2    31  TRP31      -0.2867
      5  CB        18.4810   37.5110   55.6630 C.3    31  TRP31       0.0550
      6  CG        17.4980   37.1150   54.5790 C.ar   31  TRP31       0.0003
      7  CD1       17.0940   37.8710   53.5170 C.ar   31  TRP31       0.0946
      8  CD2       16.7620   35.8830   54.4980 C.ar   31  TRP31       0.0152
      9  NE1       16.1670   37.1740   52.7660 N.ar   31  TRP31      -0.2442
     10  CE2       15.9460   35.9540   53.3510 C.ar   31  TRP31       0.0810
     11  CE3       16.7230   34.7210   55.2830 C.ar   31  TRP31       0.0012
     12  CZ2       15.1020   34.9090   52.9650 C.ar   31  TRP31       0.0191
     13  CZ3       15.8800   33.6880   54.9050 C.ar   31  TRP31       0.0001
     14  CH2       15.0820   33.7880   53.7520 C.ar   31  TRP31       0.0015
     15  N         15.6370   32.5230   63.6230 N.3    37  PHE37      -0.1227
     16  CA        14.2710   32.0180   63.7700 C.3    37  PHE37       0.1736
     17  C         14.2100   30.5570   63.3110 C.2    37  PHE37       0.2595
     18  O         13.7460   29.6780   64.0430 O.2    37  PHE37      -0.2718
     19  CB        13.2890   32.9040   62.9910 C.3    37  PHE37       0.0547
     20  CG        11.8930   32.3460   62.8920 C.ar   37  PHE37      -0.0202
     21  CD1       11.1830   31.9850   64.0290 C.ar   37  PHE37      -0.0042
     22  CD2       11.2840   32.2090   61.6620 C.ar   37  PHE37      -0.0042
     23  CE1        9.8870   31.4790   63.9300 C.ar   37  PHE37      -0.0003
     24  CE2        9.9900   31.7060   61.5570 C.ar   37  PHE37      -0.0003
     25  CZ         9.2950   31.3450   62.6860 C.ar   37  PHE37      -0.0000
     26  N         14.7160   30.2960   62.1120 N.am   38  LEU38      -0.1980
     27  CA        14.7620   28.9370   61.5880 C.3    38  LEU38       0.1596
     28  C         15.5220   27.9860   62.5220 C.2    38  LEU38       0.2287
     29  O         15.0610   26.8750   62.7830 O.2    38  LEU38      -0.2864
     30  CB        15.3560   28.9220   60.1680 C.3    38  LEU38       0.0297
     31  CG        14.5440   29.6300   59.0710 C.3    38  LEU38       0.0022
     32  CD1       15.3730   29.7690   57.8080 C.3    38  LEU38       0.0001
     33  CD2       13.2390   28.9020   58.7650 C.3    38  LEU38       0.0001
     34  N         13.5710   26.5350   65.2360 N.3    41  LEU41      -0.1245
     35  CA        12.5490   25.5630   64.8780 C.3    41  LEU41       0.1561
     36  C         13.0760   24.1250   64.9180 C.2    41  LEU41       0.2260
     37  O         12.2970   23.1780   64.8590 O.2    41  LEU41      -0.2867
     38  CB        11.9390   25.8800   63.5170 C.3    41  LEU41       0.0270
     39  CG        11.2400   27.2350   63.3970 C.3    41  LEU41       0.0019
     40  CD1       10.5270   27.3390   62.0640 C.3    41  LEU41       0.0001
     41  CD2       10.2570   27.4360   64.5410 C.3    41  LEU41       0.0001
     42  N         15.5010   22.4490   60.2440 N.3    45  PHE45      -0.1241
     43  CA        15.3830   23.7780   59.6530 C.3    45  PHE45       0.1605
     44  C         16.7370   24.4800   59.5210 C.2    45  PHE45       0.2264
     45  O         16.9470   25.2560   58.5870 O.2    45  PHE45      -0.2867
     46  CB        14.3580   24.6310   60.4120 C.3    45  PHE45       0.0534
     47  CG        12.9340   24.2370   60.1210 C.ar   45  PHE45      -0.0203
     48  CD1       12.2840   24.7240   59.0020 C.ar   45  PHE45      -0.0042
     49  CD2       12.2660   23.3440   60.9420 C.ar   45  PHE45      -0.0042
     50  CE1       10.9810   24.3450   58.7120 C.ar   45  PHE45      -0.0003
     51  CE2       10.9620   22.9560   60.6600 C.ar   45  PHE45      -0.0003
     52  CZ        10.3180   23.4580   59.5460 C.ar   45  PHE45      -0.0000
     53  N         18.1720   22.7190   56.3310 N.3    48  ILE48      -0.1231
     54  CA        17.7010   23.1260   55.0050 C.3    48  ILE48       0.1692
     55  C         18.0270   24.5870   54.6910 C.2    48  ILE48       0.2592
     56  O         17.9900   24.9930   53.5370 O.2    48  ILE48      -0.2718
     57  CB        16.1910   22.8500   54.7500 C.3    48  ILE48       0.0266
     58  CG1       15.3120   23.7960   55.5640 C.3    48  ILE48       0.0019
     59  CG2       15.8550   21.3870   55.0050 C.3    48  ILE48       0.0020
     60  CD1       13.8480   23.7940   55.1200 C.3    48  ILE48       0.0001
     61  N         18.3540   25.3660   55.7170 N.am   49  SER49      -0.1952
     62  CA        18.6700   26.7740   55.5280 C.3    49  SER49       0.1924
     63  C         20.1790   27.0730   55.3930 C.2    49  SER49       0.2314
     64  O         20.5820   28.2350   55.3130 O.2    49  SER49      -0.2863
     65  CB        18.0530   27.6010   56.6530 C.3    49  SER49       0.2116
     66  OG        18.7310   27.3850   57.8730 O.3    49  SER49      -0.2180
     67  N         21.8220   26.7850   52.8360 N.3    51  ASP51      -0.1225
     68  CA        21.9330   27.4970   51.5650 C.3    51  ASP51       0.1805
     69  C         21.8290   29.0040   51.7650 C.2    51  ASP51       0.2597
     70  O         22.5580   29.7790   51.1390 O.2    51  ASP51      -0.2718
     71  CB        20.8570   27.0370   50.5840 C.3    51  ASP51       0.1424
     72  CG        21.0000   27.6930   49.2240 C.2    51  ASP51       0.3668
     73  OD1       21.9870   27.4050   48.5290 O.co2  51  ASP51      -0.2456
     74  OD2       20.1250   28.4990   48.8540 O.co2  51  ASP51      -0.2456
     75  N         20.9110   29.4060   52.6370 N.am   52  VAL52      -0.1980
     76  CA        20.6740   30.8070   52.9450 C.3    52  VAL52       0.1595
     77  C         21.8530   31.4370   53.7020 C.2    52  VAL52       0.2287
     78  O         22.2590   32.5690   53.4170 O.2    52  VAL52      -0.2864
     79  CB        19.3650   30.9730   53.7410 C.3    52  VAL52       0.0276
     80  CG1       19.3300   32.3070   54.4670 C.3    52  VAL52       0.0022
     81  CG2       18.1720   30.8160   52.8060 C.3    52  VAL52       0.0022
     82  N         24.5820   32.0720   51.1460 N.3    55  LYS55      -0.1245
     83  CA        24.3020   33.2030   50.2710 C.3    55  LYS55       0.1561
     84  C         24.4350   34.5460   51.0010 C.2    55  LYS55       0.2260
     85  O         24.8610   35.5340   50.4160 O.2    55  LYS55      -0.2867
     86  CB        22.9350   33.0280   49.6150 C.3    55  LYS55       0.0271
     87  CG        22.9530   31.9430   48.5220 C.3    55  LYS55       0.0035
     88  CD        21.5770   31.6330   47.9500 C.3    55  LYS55       0.0206
     89  CE        21.7000   30.7710   46.6840 C.3    55  LYS55       0.1093
     90  NZ        22.5960   29.6020   46.8940 N.3    55  LYS55      -0.1314
     91  N         25.5190   29.5730   34.1030 N.3    92  ARG92      -0.1245
     92  CA        26.5350   29.8730   35.1010 C.3    92  ARG92       0.1563
     93  C         27.9290   29.5080   34.6170 C.2    92  ARG92       0.2260
     94  O         28.1960   28.3530   34.2850 O.2    92  ARG92      -0.2867
     95  CB        26.2880   29.0800   36.3860 C.3    92  ARG92       0.0307
     96  CG        24.9260   29.3220   37.0170 C.3    92  ARG92       0.0489
     97  CD        24.7530   28.4900   38.2870 C.3    92  ARG92       0.2205
     98  NE        25.3680   29.1290   39.4490 N.pl3  92  ARG92      -0.0865
     99  CZ        25.4690   28.5560   40.6460 C.cat  92  ARG92       0.5346
    100  NH1       24.9990   27.3290   40.8340 N.pl3  92  ARG92       0.1354
    101  NH2       26.0390   29.2070   41.6520 N.pl3  92  ARG92       0.1354
    102  N         22.3390   37.0740   41.0910 N.3   101  ARG101     -0.1245
    103  CA        21.7940   35.7170   41.1400 C.3   101  ARG101      0.1563
    104  C         21.6730   35.2140   42.5790 C.2   101  ARG101      0.2260
    105  O         20.8080   34.3900   42.8780 O.2   101  ARG101     -0.2867
    106  CB        22.6160   34.7420   40.2800 C.3   101  ARG101      0.0307
    107  CG        23.9590   34.2920   40.8600 C.3   101  ARG101      0.0489
    108  CD        23.8150   33.0820   41.8170 C.3   101  ARG101      0.2205
    109  NE        23.1930   31.9290   41.1700 N.pl3 101  ARG101     -0.0865
    110  CZ        22.8870   30.7950   41.7960 C.cat 101  ARG101      0.5346
    111  NH1       23.1580   30.6550   43.0860 N.pl3 101  ARG101      0.1354
    112  NH2       22.3100   29.8020   41.1330 N.pl3 101  ARG101      0.1354
    113  N         17.9090   34.2470   45.0310 N.3   105  ARG105     -0.1245
    114  CA        17.5260   33.0680   45.7970 C.3   105  ARG105      0.1563
    115  C         17.0440   33.4360   47.1980 C.2   105  ARG105      0.2260
    116  O         16.0960   32.8390   47.6980 O.2   105  ARG105     -0.2867
    117  CB        18.6580   32.0430   45.8600 C.3   105  ARG105      0.0307
    118  CG        18.6530   31.0280   44.7160 C.3   105  ARG105      0.0489
    119  CD        19.2250   31.6210   43.4490 C.3   105  ARG105      0.2205
    120  NE        19.0890   30.7200   42.3080 N.pl3 105  ARG105     -0.0865
    121  CZ        19.2780   31.1010   41.0500 C.cat 105  ARG105      0.5346
    122  NH1       19.6090   32.3600   40.7920 N.pl3 105  ARG105      0.1354
    123  NH2       19.1290   30.2320   40.0560 N.pl3 105  ARG105      0.1354
    124  N         13.4780   34.6730   46.6730 N.3   108  ARG108     -0.1231
    125  CA        12.5230   33.5760   46.5110 C.3   108  ARG108      0.1694
    126  C         12.1990   32.9100   47.8550 C.2   108  ARG108      0.2591
    127  O         11.0410   32.5720   48.1330 O.2   108  ARG108     -0.2718
    128  CB        13.0470   32.5340   45.5280 C.3   108  ARG108      0.0321
    129  CG        13.1720   33.0330   44.0780 C.3   108  ARG108      0.0489
    130  CD        14.0810   32.1080   43.3180 C.3   108  ARG108      0.2205
    131  NE        14.1300   32.4100   41.8880 N.pl3 108  ARG108     -0.0865
    132  CZ        14.7850   31.6630   41.0130 C.cat 108  ARG108      0.5346
    133  NH1       15.4270   30.5770   41.4350 N.pl3 108  ARG108      0.1354
    134  NH2       14.7840   31.9850   39.7250 N.pl3 108  ARG108      0.1354
    135  N         13.2210   32.7270   48.6880 N.am  109  ALA109     -0.1980
    136  CA        13.0270   32.1310   50.0220 C.3   109  ALA109      0.1597
    137  C         12.1680   33.0230   50.9250 C.2   109  ALA109      0.2287
    138  O         11.3260   32.5440   51.7050 O.2   109  ALA109     -0.2864
    139  CB        14.3720   31.8500   50.6780 C.3   109  ALA109      0.0319
    140  N          8.4790   32.4080   50.6320 N.3   112  TRP112     -0.1227
    141  CA         7.9880   31.2800   51.4130 C.3   112  TRP112      0.1737
    142  C          7.6900   31.7290   52.8480 C.2   112  TRP112      0.2595
    143  O          6.6050   31.4700   53.4060 O.2   112  TRP112     -0.2718
    144  CB         9.0130   30.1430   51.4080 C.3   112  TRP112      0.0564
    145  CG         8.5600   28.9150   52.1490 C.ar  112  TRP112      0.0003
    146  CD1        7.2980   28.6590   52.6320 C.ar  112  TRP112      0.0946
    147  CD2        9.3580   27.7750   52.4860 C.ar  112  TRP112      0.0152
    148  NE1        7.2720   27.4310   53.2530 N.ar  112  TRP112     -0.2442
    149  CE2        8.5220   26.8680   53.1790 C.ar  112  TRP112      0.0810
    150  CE3       10.6990   27.4320   52.2740 C.ar  112  TRP112      0.0012
    151  CZ2        8.9850   25.6410   53.6580 C.ar  112  TRP112      0.0191
    152  CZ3       11.1610   26.2180   52.7560 C.ar  112  TRP112      0.0001
    153  CH2       10.3020   25.3350   53.4420 C.ar  112  TRP112      0.0015
    154  N          8.6550   32.4100   53.4510 N.am  113  LEU113     -0.1980
    155  CA         8.4880   32.8260   54.8380 C.3   113  LEU113      0.1596
    156  C          7.2310   33.6700   55.0130 C.2   113  LEU113      0.2287
    157  O          6.4380   33.4480   55.9250 O.2   113  LEU113     -0.2864
    158  CB         9.6830   33.6230   55.3250 C.3   113  LEU113      0.0297
    159  CG         9.3370   34.1550   56.7170 C.3   113  LEU113      0.0022
    160  CD1        9.7030   33.1070   57.7650 C.3   113  LEU113      0.0001
    161  CD2       10.0050   35.4700   56.9940 C.3   113  LEU113      0.0001
    162  N          4.0380   31.5370   54.4420 N.3   116  PHE116     -0.1241
    163  CA         3.8250   30.6730   55.5990 C.3   116  PHE116      0.1605
    164  C          3.2010   31.4530   56.7650 C.2   116  PHE116      0.2264
    165  O          2.1970   31.0260   57.3360 O.2   116  PHE116     -0.2867
    166  CB         5.1320   30.0140   56.0540 C.3   116  PHE116      0.0534
    167  CG         5.0300   29.3380   57.4020 C.ar  116  PHE116     -0.0203
    168  CD1        4.1830   28.2550   57.5870 C.ar  116  PHE116     -0.0042
    169  CD2        5.7750   29.7860   58.4770 C.ar  116  PHE116     -0.0042
    170  CE1        4.0830   27.6230   58.8250 C.ar  116  PHE116     -0.0003
    171  CE2        5.6780   29.1630   59.7280 C.ar  116  PHE116     -0.0003
    172  CZ         4.8300   28.0850   59.8990 C.ar  116  PHE116     -0.0000
    173  N          2.8790   24.9950   56.5170 N.3   133  CYS133     -0.1235
    174  CA         4.2480   25.0650   56.0140 C.3   133  CYS133      0.1677
    175  C          4.4030   24.4370   54.6190 C.2   133  CYS133      0.2270
    176  O          4.9690   25.0540   53.7110 O.2   133  CYS133     -0.2867
    177  CB         5.2050   24.4040   57.0130 C.3   133  CYS133      0.0956
    178  SG         6.9470   24.7000   56.6460 S.3   133  CYS133     -0.0801
    179  N          8.2570   28.6440   46.7440 N.3   141  LEU141     -0.1245
    180  CA         9.6400   28.2790   46.5020 C.3   141  LEU141      0.1561
    181  C          9.7950   26.9600   45.7530 C.2   141  LEU141      0.2260
    182  O         10.7260   26.8010   44.9540 O.2   141  LEU141     -0.2867
    183  CB        10.3970   28.2140   47.8340 C.3   141  LEU141      0.0270
    184  CG        11.9140   28.0580   47.7480 C.3   141  LEU141      0.0019
    185  CD1       12.5330   29.2050   46.9540 C.3   141  LEU141      0.0001
    186  CD2       12.5460   27.9580   49.1820 C.3   141  LEU141      0.0001
    187  N         10.8590   26.4270   41.9980 N.3   144  TYR144     -0.1227
    188  CA        12.2260   26.5530   41.5120 C.3   144  TYR144      0.1736
    189  C         13.0700   25.3460   41.8800 C.2   144  TYR144      0.2595
    190  O         14.2480   25.2860   41.5320 O.2   144  TYR144     -0.2718
    191  CB        12.8780   27.8000   42.1050 C.3   144  TYR144      0.0548
    192  CG        12.0790   29.0640   41.9380 C.ar  144  TYR144     -0.0200
    193  CD1       12.0670   29.7440   40.7240 C.ar  144  TYR144     -0.0009
    194  CD2       11.3460   29.5960   43.0040 C.ar  144  TYR144     -0.0009
    195  CE1       11.3360   30.9260   40.5670 C.ar  144  TYR144      0.0417
    196  CE2       10.6120   30.7730   42.8600 C.ar  144  TYR144      0.0417
    197  CZ        10.6080   31.4290   41.6410 C.ar  144  TYR144      0.1957
    198  OH         9.8920   32.5950   41.4910 O.3   144  TYR144     -0.2866
    199  N         12.4840   24.4040   42.6140 N.am  145  HIS145     -0.1975
    200  CA        13.2350   23.2390   43.0750 C.3   145  HIS145      0.1656
    201  C         12.8650   21.9810   42.3090 C.2   145  HIS145      0.2291
    202  O         11.6860   21.7270   42.0600 O.2   145  HIS145     -0.2864
    203  CB        12.9920   22.9810   44.5620 C.3   145  HIS145      0.0771
    204  CG        13.5090   24.0540   45.4620 C.ar  145  HIS145      0.0820
    205  ND1       13.1580   24.1320   46.7900 N.ar  145  HIS145     -0.2267
    206  CD2       14.3610   25.0820   45.2340 C.ar  145  HIS145      0.1154
    207  CE1       13.7600   25.1700   47.3430 C.ar  145  HIS145      0.1986
    208  NE2       14.5000   25.7610   46.4220 N.ar  145  HIS145     -0.2212
    209  N         14.6510   17.6130   45.3970 N.3   149  VAL149     -0.1245
    210  CA        14.9290   18.6200   46.4180 C.3   149  VAL149      0.1561
    211  C         13.6670   18.9500   47.2340 C.2   149  VAL149      0.2260
    212  O         13.7460   19.1280   48.4410 O.2   149  VAL149     -0.2867
    213  CB        15.5370   19.9110   45.8100 C.3   149  VAL149      0.0252
    214  CG1       15.5940   21.0200   46.8500 C.3   149  VAL149      0.0019
    215  CG2       16.9360   19.6350   45.2410 C.3   149  VAL149      0.0019
    216  N         13.3260   18.7390   51.3960 N.3   153  VAL153     -0.1245
    217  CA        12.8180   19.8670   52.1730 C.3   153  VAL153      0.1561
    218  C         11.5650   19.4790   52.9700 C.2   153  VAL153      0.2260
    219  O         11.4020   19.8590   54.1340 O.2   153  VAL153     -0.2867
    220  CB        12.4980   21.0760   51.2460 C.3   153  VAL153      0.0252
    221  CG1       11.6800   22.1280   51.9820 C.3   153  VAL153      0.0019
    222  CG2       13.7820   21.6800   50.6820 C.3   153  VAL153      0.0019
    223  N          7.0940   20.2030   62.9830 N.3   160  LEU160     -0.1245
    224  CA         6.5400   21.4190   63.5660 C.3   160  LEU160      0.1561
    225  C          5.5040   21.0830   64.6370 C.2   160  LEU160      0.2260
    226  O          4.8030   20.0810   64.5300 O.2   160  LEU160     -0.2867
    227  CB         5.9170   22.2920   62.4770 C.3   160  LEU160      0.0270
    228  CG         6.9230   22.8620   61.4750 C.3   160  LEU160      0.0019
    229  CD1        6.2260   23.2680   60.1830 C.3   160  LEU160      0.0001
    230  CD2        7.6550   24.0350   62.0990 C.3   160  LEU160      0.0001
@<TRIPOS>BOND
     1    91    92    1
     2    94    93    2
     3    93    92    1
     4    92    95    1
     5    95    96    1
     6    96    97    1
     7    97    98    1
     8    98    99    2
     9   134   132    1
    10   123   121    1
    11   106   107    1
    12   106   103    1
    13   195   193   ar
    14   195   197   ar
    15    99   100    1
    16    99   101    1
    17   193   192   ar
    18   122   121    1
    19   107   108    1
    20   132   133    1
    21   132   131    2
    22   121   120    2
    23   102   103    1
    24   112   110    1
    25   103   104    1
    26   109   110    2
    27   109   108    1
    28   198   197    1
    29   188   189    1
    30   188   187    1
    31   188   191    1
    32   190   189    2
    33   197   196   ar
    34   110   111    1
    35   189   199   am
    36   131   130    1
    37   192   191    1
    38   192   194   ar
    39   202   201    2
    40   120   119    1
    41   201   200    1
    42   104   105    2
    43   199   200    1
    44   196   194   ar
    45   200   203    1
    46   130   129    1
    47   119   118    1
    48   129   128    1
    49   203   204    1
    50   118   117    1
    51   182   181    2
    52   113   114    1
    53   206   204   ar
    54   206   208   ar
    55   215   213    1
    56   209   210    1
    57   204   205   ar
    58   128   125    1
    59   181   180    1
    60   114   117    1
    61   114   115    1
    62   213   210    1
    63   213   214    1
    64   210   211    1
    65   208   207   ar
    66   180   179    1
    67   180   183    1
    68   125   124    1
    69   125   126    1
    70    89    90    1
    71    89    88    1
    72   205   207   ar
    73   185   184    1
    74   115   116    2
    75   211   212    2
    76   184   183    1
    77   184   186    1
    78   126   127    2
    79   126   135   am
    80    88    87    1
    81    87    86    1
    82    73    72   ar
    83   135   136    1
    84    74    72   ar
    85    72    71    1
    86    86    83    1
    87   136   139    1
    88   136   137    1
    89    83    84    1
    90    83    82    1
    91    85    84    2
    92    71    68    1
    93   140   141    1
    94   222   220    1
    95   137   138    2
    96    70    69    2
    97   220   221    1
    98   220   217    1
    99   216   217    1
   100   144   141    1
   101   144   145    1
   102   141   142    1
   103    68    69    1
   104    68    67    1
   105    69    75   am
   106   145   147   ar
   107   145   146   ar
   108   217   218    1
   109   150   147   ar
   110   150   152   ar
   111   147   149   ar
   112   146   148   ar
   113    75    76    1
   114   152   153   ar
   115     9    10   ar
   116     9     7   ar
   117    81    79    1
   118   142   143    2
   119   142   154   am
   120    76    77    1
   121    76    79    1
   122    12    10   ar
   123    12    14   ar
   124   218   219    2
   125   149   148   ar
   126   149   151   ar
   127    10     8   ar
   128    78    77    2
   129   153   151   ar
   130   154   155    1
   131     7     6   ar
   132    56    55    2
   133   176   175    2
   134    79    80    1
   135    14    13   ar
   136   162   163    1
   137     8     6   ar
   138     8    11   ar
   139     6     5    1
   140   175   174    1
   141    55    54    1
   142    55    61   am
   143    57    54    1
   144    57    59    1
   145    57    58    1
   146   155   156    1
   147   155   158    1
   148    13    11   ar
   149    54    53    1
   150   156   157    2
   151    60    58    1
   152    64    63    2
   153   158   159    1
   154    63    62    1
   155    62    61    1
   156    62    65    1
   157   163   166    1
   158   163   164    1
   159     5     2    1
   160   174   173    1
   161   174   177    1
   162   166   167    1
   163   178   177    1
   164    65    66    1
   165   159   161    1
   166   159   160    1
   167   164   165    2
   168     2     1    1
   169     2     3    1
   170   167   168   ar
   171   167   169   ar
   172   168   170   ar
   173    32    31    1
   174     3     4    2
   175   169   171   ar
   176    45    44    2
   177    50    48   ar
   178    50    52   ar
   179    33    31    1
   180   170   172   ar
   181    48    47   ar
   182    31    30    1
   183    44    43    1
   184    52    51   ar
   185    43    42    1
   186    43    46    1
   187   171   172   ar
   188    47    46    1
   189    47    49   ar
   190    30    27    1
   191   229   228    1
   192    51    49   ar
   193   228   230    1
   194   228   227    1
   195    24    22   ar
   196    24    25   ar
   197    27    26    1
   198    27    28    1
   199    22    20   ar
   200    40    39    1
   201    26    17   am
   202   227   224    1
   203    28    29    2
   204    25    23   ar
   205    20    19    1
   206    20    21   ar
   207   223   224    1
   208    19    16    1
   209    17    16    1
   210    17    18    2
   211    39    38    1
   212    39    41    1
   213    38    35    1
   214   224   225    1
   215    15    16    1
   216    23    21   ar
   217   226   225    2
   218    37    36    2
   219    35    36    1
   220    35    34    1
