@<TRIPOS>MOLECULE
tmp/4k85C00.pdb
 234 224 0 0 0
SMALL
GASTEIGER

@<TRIPOS>ATOM
      1  N        -12.0580   71.4340   45.0070 N.3    30  TRP30      -0.1241
      2  CA       -11.6800   70.0410   45.2050 C.3    30  TRP30       0.1605
      3  C        -10.2050   69.9180   45.5740 C.2    30  TRP30       0.2264
      4  O         -9.8260   69.0690   46.3770 O.2    30  TRP30      -0.2867
      5  CB       -11.9970   69.2100   43.9580 C.3    30  TRP30       0.0550
      6  CG       -13.4550   68.8770   43.8850 C.ar   30  TRP30       0.0003
      7  CD1      -14.3660   69.4020   43.0290 C.ar   30  TRP30       0.0946
      8  CD2      -14.1710   67.9670   44.7280 C.ar   30  TRP30       0.0152
      9  NE1      -15.6060   68.8820   43.2830 N.ar   30  TRP30      -0.2442
     10  CE2      -15.5170   67.9960   44.3190 C.ar   30  TRP30       0.0810
     11  CE3      -13.8040   67.1350   45.7940 C.ar   30  TRP30       0.0012
     12  CZ2      -16.5000   67.2230   44.9190 C.ar   30  TRP30       0.0191
     13  CZ3      -14.7820   66.3710   46.3990 C.ar   30  TRP30       0.0001
     14  CH2      -16.1230   66.4210   45.9530 C.ar   30  TRP30       0.0015
     15  N        -10.0400   70.6380   49.0830 N.3    33  LEU33      -0.1245
     16  CA       -10.6090   69.5490   49.8490 C.3    33  LEU33       0.1561
     17  C         -9.5820   68.4280   49.9740 C.2    33  LEU33       0.2260
     18  O         -9.4060   67.8520   51.0540 O.2    33  LEU33      -0.2867
     19  CB       -11.8720   69.0420   49.1580 C.3    33  LEU33       0.0270
     20  CG       -12.7810   68.1370   49.9820 C.3    33  LEU33       0.0019
     21  CD1      -12.2480   66.7260   50.0280 C.3    33  LEU33       0.0001
     22  CD2      -12.9780   68.6910   51.3820 C.3    33  LEU33       0.0001
     23  N         -8.1940   66.8210   53.4310 N.3    37  LEU37      -0.1245
     24  CA        -8.3010   65.3940   53.7140 C.3    37  LEU37       0.1561
     25  C         -6.9300   64.7890   53.9760 C.2    37  LEU37       0.2260
     26  O         -6.7520   64.0110   54.9130 O.2    37  LEU37      -0.2867
     27  CB        -8.9230   64.6640   52.5350 C.3    37  LEU37       0.0270
     28  CG       -10.3890   64.2460   52.6730 C.3    37  LEU37       0.0019
     29  CD1      -11.1920   65.2820   53.4380 C.3    37  LEU37       0.0001
     30  CD2      -10.9920   63.9580   51.2980 C.3    37  LEU37       0.0001
     31  N         -7.1830   57.4980   53.8790 N.3    44  PHE44      -0.1241
     32  CA        -8.1350   58.0920   52.9300 C.3    44  PHE44       0.1605
     33  C         -7.4360   58.6970   51.7170 C.2    44  PHE44       0.2264
     34  O         -8.0740   59.0150   50.7130 O.2    44  PHE44      -0.2867
     35  CB        -9.0110   59.1420   53.6250 C.3    44  PHE44       0.0534
     36  CG       -10.4180   59.1880   53.1100 C.ar   44  PHE44      -0.0203
     37  CD1      -11.3110   58.1710   53.4120 C.ar   44  PHE44      -0.0042
     38  CD2      -10.8450   60.2330   52.3030 C.ar   44  PHE44      -0.0042
     39  CE1      -12.6050   58.2000   52.9350 C.ar   44  PHE44      -0.0003
     40  CE2      -12.1510   60.2710   51.8200 C.ar   44  PHE44      -0.0003
     41  CZ       -13.0290   59.2500   52.1360 C.ar   44  PHE44      -0.0000
     42  N         -5.8100   57.2020   49.6110 N.3    46  PHE46      -0.1227
     43  CA        -6.0190   56.3450   48.4540 C.3    46  PHE46       0.1736
     44  C         -7.3380   56.6500   47.7350 C.2    46  PHE46       0.2595
     45  O         -7.4730   56.4050   46.5370 O.2    46  PHE46      -0.2718
     46  CB        -5.8970   54.8750   48.8460 C.3    46  PHE46       0.0547
     47  CG        -4.4900   54.4700   49.2050 C.ar   46  PHE46      -0.0202
     48  CD1       -3.4590   54.6160   48.2820 C.ar   46  PHE46      -0.0042
     49  CD2       -4.1940   53.9510   50.4570 C.ar   46  PHE46      -0.0042
     50  CE1       -2.1680   54.2540   48.5980 C.ar   46  PHE46      -0.0003
     51  CE2       -2.8950   53.5810   50.7800 C.ar   46  PHE46      -0.0003
     52  CZ        -1.8820   53.7320   49.8490 C.ar   46  PHE46      -0.0000
     53  N         -8.2980   57.2020   48.4720 N.am   47  ILE47      -0.1966
     54  CA        -9.5560   57.6640   47.8880 C.3    47  ILE47       0.1727
     55  C         -9.3600   59.0200   47.2170 C.2    47  ILE47       0.2616
     56  O         -9.7390   59.2220   46.0610 O.2    47  ILE47      -0.2715
     57  CB       -10.6560   57.7830   48.9560 C.3    47  ILE47       0.0290
     58  CG1      -11.2560   56.4130   49.2760 C.3    47  ILE47       0.0022
     59  CG2      -11.7580   58.7190   48.4890 C.3    47  ILE47       0.0023
     60  CD1      -10.2640   55.3580   49.6620 C.3    47  ILE47       0.0001
     61  N         -8.7490   59.9480   47.9410 N.am   48  SER48      -0.1950
     62  CA        -8.5180   61.2820   47.4080 C.3    48  SER48       0.1924
     63  C         -7.6490   61.2790   46.1430 C.2    48  SER48       0.2314
     64  O         -7.7170   62.2100   45.3370 O.2    48  SER48      -0.2863
     65  CB        -7.9150   62.1950   48.4840 C.3    48  SER48       0.2116
     66  OG        -6.5330   61.9390   48.6480 O.3    48  SER48      -0.2180
     67  N         -8.0860   59.4170   43.6520 N.3    50  ASP50      -0.1225
     68  CA        -9.0240   59.3240   42.5380 C.3    50  ASP50       0.1805
     69  C         -9.5980   60.6880   42.1850 C.2    50  ASP50       0.2597
     70  O         -9.8460   60.9870   41.0140 O.2    50  ASP50      -0.2718
     71  CB       -10.1640   58.3580   42.8350 C.3    50  ASP50       0.1424
     72  CG       -10.9040   57.9590   41.5790 C.2    50  ASP50       0.3668
     73  OD1      -10.2580   57.3640   40.6900 O.co2  50  ASP50      -0.2456
     74  OD2      -12.1100   58.2620   41.4590 O.co2  50  ASP50      -0.2456
     75  N         -9.8230   61.5110   43.2020 N.am   51  VAL51      -0.1980
     76  CA       -10.2930   62.8610   42.9650 C.3    51  VAL51       0.1595
     77  C         -9.2590   63.6380   42.1680 C.2    51  VAL51       0.2287
     78  O         -9.5920   64.3110   41.2050 O.2    51  VAL51      -0.2864
     79  CB       -10.6200   63.5970   44.2740 C.3    51  VAL51       0.0276
     80  CG1      -10.8810   65.0890   44.0220 C.3    51  VAL51       0.0022
     81  CG2      -11.8220   62.9460   44.9630 C.3    51  VAL51       0.0022
     82  N         -9.2070   62.8340   38.4510 N.3    54  LYS54      -0.1245
     83  CA       -10.3500   63.4320   37.7670 C.3    54  LYS54       0.1561
     84  C        -10.1630   64.9430   37.6100 C.2    54  LYS54       0.2260
     85  O        -10.5740   65.5280   36.6060 O.2    54  LYS54      -0.2867
     86  CB       -11.6550   63.0490   38.4650 C.3    54  LYS54       0.0271
     87  CG       -11.9510   61.5630   38.2640 C.3    54  LYS54       0.0035
     88  CD       -13.1870   61.0790   38.9810 C.3    54  LYS54       0.0206
     89  CE       -13.5670   59.6820   38.4800 C.3    54  LYS54       0.1093
     90  NZ       -12.4390   58.7160   38.6150 N.3    54  LYS54      -0.1314
     91  N        -19.5130   53.1470   27.8430 N.3    91  ARG91      -0.1245
     92  CA       -18.2340   53.7770   27.5800 C.3    91  ARG91       0.1563
     93  C        -17.3750   53.2340   26.4470 C.2    91  ARG91       0.2260
     94  O        -16.8820   52.1050   26.5000 O.2    91  ARG91      -0.2867
     95  CB       -17.2650   53.5900   28.7510 C.3    91  ARG91       0.0307
     96  CG       -17.6760   54.3540   30.0080 C.3    91  ARG91       0.0489
     97  CD       -16.7640   54.0290   31.1810 C.3    91  ARG91       0.2205
     98  NE       -15.7330   55.0440   31.3850 N.pl3  91  ARG91      -0.0865
     99  CZ       -14.7590   54.9470   32.2920 C.cat  91  ARG91       0.5346
    100  NH1      -13.8560   55.9150   32.4160 N.pl3  91  ARG91       0.1354
    101  NH2      -14.6890   53.8780   33.0790 N.pl3  91  ARG91       0.1354
    102  N        -18.9100   62.8380   32.1960 N.3   100  ARG100     -0.1245
    103  CA       -18.8770   61.6680   33.0870 C.3   100  ARG100      0.1563
    104  C        -17.9070   61.8670   34.2560 C.2   100  ARG100      0.2260
    105  O        -18.1060   61.3190   35.3450 O.2   100  ARG100     -0.2867
    106  CB       -18.5670   60.3660   32.3220 C.3   100  ARG100      0.0307
    107  CG       -17.1170   60.1920   31.8760 C.3   100  ARG100      0.0489
    108  CD       -16.2430   59.5830   32.9770 C.3   100  ARG100      0.2205
    109  NE       -16.7160   58.2680   33.4180 N.pl3 100  ARG100     -0.0865
    110  CZ       -16.2450   57.6430   34.4960 C.cat 100  ARG100      0.5346
    111  NH1      -16.7070   56.4520   34.8390 N.pl3 100  ARG100      0.1354
    112  NH2      -15.3050   58.2200   35.2370 N.pl3 100  ARG100      0.1354
    113  N        -18.7230   62.1970   38.6050 N.3   104  ARG104     -0.1231
    114  CA       -18.1020   61.5320   39.7530 C.3   104  ARG104      0.1694
    115  C        -17.7830   62.5140   40.8750 C.2   104  ARG104      0.2591
    116  O        -17.9880   62.2060   42.0600 O.2   104  ARG104     -0.2718
    117  CB       -16.8440   60.7590   39.3540 C.3   104  ARG104      0.0321
    118  CG       -17.1280   59.3210   38.9760 C.3   104  ARG104      0.0489
    119  CD       -17.7370   59.2420   37.5890 C.3   104  ARG104      0.2205
    120  NE       -18.3270   57.9340   37.3340 N.pl3 104  ARG104     -0.0865
    121  CZ       -19.2310   57.7070   36.3920 C.cat 104  ARG104      0.5346
    122  NH1      -19.6420   58.7090   35.6220 N.pl3 104  ARG104      0.1354
    123  NH2      -19.7230   56.4850   36.2210 N.pl3 104  ARG104      0.1354
    124  N        -17.2980   63.6940   40.5130 N.am  105  LEU105     -0.1980
    125  CA       -17.0580   64.7190   41.5310 C.3   105  LEU105      0.1596
    126  C        -18.3750   65.1570   42.1910 C.2   105  LEU105      0.2287
    127  O        -18.4400   65.3180   43.4110 O.2   105  LEU105     -0.2864
    128  CB       -16.3290   65.9200   40.9380 C.3   105  LEU105      0.0297
    129  CG       -14.9630   65.6350   40.3020 C.3   105  LEU105      0.0022
    130  CD1      -14.4450   66.8540   39.5630 C.3   105  LEU105      0.0001
    131  CD2      -13.9530   65.1700   41.3560 C.3   105  LEU105      0.0001
    132  N        -19.5410   62.7440   44.6770 N.3   108  ALA108     -0.1245
    133  CA       -18.6810   62.8910   45.8410 C.3   108  ALA108      0.1562
    134  C        -19.1080   64.0740   46.7010 C.2   108  ALA108      0.2260
    135  O        -19.0610   64.0160   47.9330 O.2   108  ALA108     -0.2867
    136  CB       -17.2260   63.0540   45.4190 C.3   108  ALA108      0.0290
    137  N        -21.9120   63.2270   49.0460 N.3   111  TRP111     -0.1227
    138  CA       -21.3920   62.5740   50.2440 C.3   111  TRP111      0.1737
    139  C        -20.7370   63.6060   51.1720 C.2   111  TRP111      0.2595
    140  O        -21.0060   63.6420   52.3730 O.2   111  TRP111     -0.2718
    141  CB       -20.3710   61.5010   49.8440 C.3   111  TRP111      0.0564
    142  CG       -19.7540   60.7280   51.0020 C.ar  111  TRP111      0.0003
    143  CD1      -20.2340   60.6320   52.2760 C.ar  111  TRP111      0.0946
    144  CD2      -18.5600   59.9260   50.9610 C.ar  111  TRP111      0.0152
    145  NE1      -19.3970   59.8350   53.0410 N.ar  111  TRP111     -0.2442
    146  CE2      -18.3720   59.3830   52.2520 C.ar  111  TRP111      0.0810
    147  CE3      -17.6310   59.6170   49.9540 C.ar  111  TRP111      0.0012
    148  CZ2      -17.2900   58.5510   52.5660 C.ar  111  TRP111      0.0191
    149  CZ3      -16.5610   58.7920   50.2610 C.ar  111  TRP111      0.0001
    150  CH2      -16.4000   58.2650   51.5580 C.ar  111  TRP111      0.0015
    151  N        -19.8840   64.4560   50.6090 N.am  112  LEU112     -0.1980
    152  CA       -19.2070   65.4900   51.3910 C.3   112  LEU112      0.1596
    153  C        -20.1770   66.3620   52.1900 C.2   112  LEU112      0.2287
    154  O        -19.9360   66.6470   53.3650 O.2   112  LEU112     -0.2864
    155  CB       -18.3440   66.3970   50.4930 C.3   112  LEU112      0.0297
    156  CG       -17.6420   67.5300   51.2680 C.3   112  LEU112      0.0022
    157  CD1      -16.6170   66.9480   52.2220 C.3   112  LEU112      0.0001
    158  CD2      -16.9700   68.5580   50.3530 C.3   112  LEU112      0.0001
    159  N        -21.9090   64.3450   54.9680 N.3   115  PHE115     -0.1241
    160  CA       -20.9780   64.0210   56.0290 C.3   115  PHE115      0.1605
    161  C        -20.7060   65.2400   56.8990 C.2   115  PHE115      0.2264
    162  O        -20.7230   65.1450   58.1150 O.2   115  PHE115     -0.2867
    163  CB       -19.6810   63.4430   55.4910 C.3   115  PHE115      0.0534
    164  CG       -18.6180   63.3530   56.5290 C.ar  115  PHE115     -0.0203
    165  CD1      -18.7160   62.4210   57.5520 C.ar  115  PHE115     -0.0042
    166  CD2      -17.5520   64.2370   56.5260 C.ar  115  PHE115     -0.0042
    167  CE1      -17.7510   62.3500   58.5330 C.ar  115  PHE115     -0.0003
    168  CE2      -16.5760   64.1650   57.5110 C.ar  115  PHE115     -0.0003
    169  CZ       -16.6860   63.2160   58.5170 C.ar  115  PHE115     -0.0000
    170  N        -19.4530   58.9780   58.8320 N.3   132  CYS132     -0.1235
    171  CA       -18.9520   58.7440   57.4920 C.3   132  CYS132      0.1677
    172  C        -19.7680   57.6280   56.8140 C.2   132  CYS132      0.2270
    173  O        -20.2610   57.7900   55.6940 O.2   132  CYS132     -0.2867
    174  CB       -17.4470   58.4330   57.5160 C.3   132  CYS132      0.0956
    175  SG       -16.6160   59.0630   56.0400 S.3   132  CYS132     -0.0801
    176  N        -23.0210   58.0050   48.0210 N.3   140  LEU140     -0.1245
    177  CA       -22.0880   57.4700   47.0370 C.3   140  LEU140      0.1561
    178  C        -22.0870   55.9440   46.9780 C.2   140  LEU140      0.2260
    179  O        -21.7490   55.3560   45.9470 O.2   140  LEU140     -0.2867
    180  CB       -20.6790   57.9820   47.3400 C.3   140  LEU140      0.0270
    181  CG       -19.6130   57.8190   46.2670 C.3   140  LEU140      0.0019
    182  CD1      -20.1180   58.3350   44.9170 C.3   140  LEU140      0.0001
    183  CD2      -18.3630   58.5560   46.7120 C.3   140  LEU140      0.0001
    184  N        -21.0190   52.6570   43.9320 N.3   144  HIS144     -0.1227
    185  CA       -19.7540   51.9360   44.0770 C.3   144  HIS144      0.1737
    186  C        -19.9860   50.4260   44.1530 C.2   144  HIS144      0.2438
    187  O        -20.8840   49.9700   44.8660 O.2   144  HIS144     -0.2733
    188  CB       -19.0560   52.3710   45.3700 C.3   144  HIS144      0.0758
    189  CG       -18.3140   53.6710   45.2710 C.ar  144  HIS144      0.0818
    190  ND1      -17.7550   54.2900   46.3720 N.ar  144  HIS144     -0.2268
    191  CD2      -18.0240   54.4610   44.2080 C.ar  144  HIS144      0.1154
    192  CE1      -17.1470   55.3990   45.9900 C.ar  144  HIS144      0.1986
    193  NE2      -17.2930   55.5260   44.6820 N.ar  144  HIS144     -0.2212
    194  N        -19.1630   49.6420   43.4380 N.am  145  PRO145     -0.2729
    195  CA       -19.2270   48.1760   43.5340 C.3   145  PRO145      0.1401
    196  C        -18.8190   47.7230   44.9370 C.2   145  PRO145      0.2269
    197  O        -18.2910   48.5350   45.7030 O.2   145  PRO145     -0.2865
    198  CB       -18.1960   47.7000   42.5020 C.3   145  PRO145      0.0296
    199  CG       -17.8860   48.8980   41.6530 C.3   145  PRO145      0.0237
    200  CD       -18.1170   50.0990   42.5100 C.3   145  PRO145      0.0939
    201  N        -16.4070   45.9560   46.1050 N.3   147  VAL147     -0.1231
    202  CA       -14.9930   46.0130   46.4330 C.3   147  VAL147      0.1692
    203  C        -14.5590   47.4480   46.6600 C.2   147  VAL147      0.2591
    204  O        -13.6520   47.7100   47.4460 O.2   147  VAL147     -0.2718
    205  CB       -14.1090   45.3420   45.3640 C.3   147  VAL147      0.0266
    206  CG1      -14.0280   46.2010   44.1160 C.3   147  VAL147      0.0020
    207  CG2      -12.7140   45.0890   45.9300 C.3   147  VAL147      0.0020
    208  N        -15.2090   48.3880   45.9840 N.am  148  VAL148     -0.1980
    209  CA       -14.9060   49.7830   46.2420 C.3   148  VAL148      0.1595
    210  C        -15.4740   50.1780   47.5970 C.2   148  VAL148      0.2287
    211  O        -14.7940   50.8130   48.4000 O.2   148  VAL148     -0.2864
    212  CB       -15.4160   50.7160   45.1320 C.3   148  VAL148      0.0276
    213  CG1      -15.2600   52.1640   45.5620 C.3   148  VAL148      0.0022
    214  CG2      -14.6400   50.4630   43.8500 C.3   148  VAL148      0.0022
    215  N        -13.1270   48.8050   50.3880 N.3   151  ALA151     -0.1231
    216  CA       -11.9240   49.6310   50.4920 C.3   151  ALA151      0.1694
    217  C        -12.2130   50.9750   51.1740 C.2   151  ALA151      0.2591
    218  O        -11.4920   51.3980   52.0790 O.2   151  ALA151     -0.2718
    219  CB       -11.3150   49.8570   49.1130 C.3   151  ALA151      0.0304
    220  N        -13.2760   51.6420   50.7300 N.am  152  VAL152     -0.1980
    221  CA       -13.6320   52.9580   51.2520 C.3   152  VAL152      0.1595
    222  C        -13.9440   52.8960   52.7410 C.2   152  VAL152      0.2287
    223  O        -13.5030   53.7480   53.5220 O.2   152  VAL152     -0.2864
    224  CB       -14.8380   53.5610   50.4920 C.3   152  VAL152      0.0276
    225  CG1      -15.3330   54.7910   51.2060 C.3   152  VAL152      0.0022
    226  CG2      -14.4380   53.9070   49.0710 C.3   152  VAL152      0.0022
    227  N        -10.3050   57.4530   60.2160 N.3   159  LEU159     -0.1245
    228  CA       -10.5700   58.8730   60.4410 C.3   159  LEU159      0.1561
    229  C        -10.4330   59.1570   61.9230 C.2   159  LEU159      0.2260
    230  O        -10.7260   58.2960   62.7350 O.2   159  LEU159     -0.2867
    231  CB       -11.9900   59.2300   59.9900 C.3   159  LEU159      0.0270
    232  CG       -12.2810   58.9950   58.5170 C.3   159  LEU159      0.0019
    233  CD1      -13.7760   59.1730   58.2380 C.3   159  LEU159      0.0001
    234  CD2      -11.4230   59.9200   57.6500 C.3   159  LEU159      0.0001
@<TRIPOS>BOND
     1    93    94    2
     2    93    92    1
     3    92    91    1
     4    92    95    1
     5    95    96    1
     6    96    97    1
     7    97    98    1
     8    98    99    2
     9   107   106    1
    10   107   108    1
    11   102   103    1
    12    99   100    1
    13    99   101    1
    14   106   103    1
    15   108   109    1
    16   103   104    1
    17   109   110    2
    18   104   105    2
    19   110   111    1
    20   110   112    1
    21   122   121    1
    22   123   121    1
    23   121   120    2
    24    85    84    2
    25   120   119    1
    26   119   118    1
    27    84    83    1
    28    83    82    1
    29    83    86    1
    30    87    86    1
    31    87    88    1
    32    89    90    1
    33    89    88    1
    34   113   114    1
    35   118   117    1
    36   117   114    1
    37   130   129    1
    38   114   115    1
    39   129   128    1
    40   129   131    1
    41   124   115   am
    42   124   125    1
    43    73    72   ar
    44   115   116    2
    45   128   125    1
    46    70    69    2
    47    78    77    2
    48    74    72   ar
    49   125   126    1
    50    72    71    1
    51   199   198    1
    52   199   200    1
    53    77    76    1
    54    69    68    1
    55    69    75   am
    56   126   127    2
    57   198   195    1
    58   200   194    1
    59    68    71    1
    60    68    67    1
    61    76    75    1
    62    76    79    1
    63     7     9   ar
    64     7     6   ar
    65     9    10   ar
    66   194   195    1
    67   194   186   am
    68   195   196    1
    69   214   212    1
    70     6     5    1
    71     6     8   ar
    72   184   185    1
    73     5     2    1
    74    80    79    1
    75   185   186    1
    76   185   188    1
    77   206   205    1
    78   186   187    2
    79   191   193   ar
    80   191   189   ar
    81    79    81    1
    82    10     8   ar
    83    10    12   ar
    84   132   133    1
    85   193   192   ar
    86     8    11   ar
    87   182   181    1
    88    12    14   ar
    89   196   197    2
    90     1     2    1
    91   212   213    1
    92   212   209    1
    93     2     3    1
    94   189   188    1
    95   189   190   ar
    96    64    63    2
    97   205   207    1
    98   205   202    1
    99   136   133    1
   100     3     4    2
   101    11    13   ar
   102   133   134    1
   103   179   178    2
   104    14    13   ar
   105   208   209    1
   106   208   203   am
   107   192   190   ar
   108    56    55    2
   109   201   202    1
   110    63    62    1
   111   209   210    1
   112   181   183    1
   113   181   180    1
   114   202   203    1
   115    45    44    2
   116   203   204    2
   117   134   135    2
   118   178   177    1
   119   177   180    1
   120   177   176    1
   121    55    54    1
   122    55    61   am
   123    62    61    1
   124    62    65    1
   125   210   211    2
   126    44    43    1
   127    44    53   am
   128    54    53    1
   129    54    57    1
   130    48    50   ar
   131    48    47   ar
   132    43    46    1
   133    43    42    1
   134    65    66    1
   135    59    57    1
   136    50    52   ar
   137    46    47    1
   138    57    58    1
   139   137   138    1
   140   226   224    1
   141    15    16    1
   142   219   216    1
   143    19    16    1
   144    19    20    1
   145    47    49   ar
   146    58    60    1
   147   141   138    1
   148   141   142    1
   149    16    17    1
   150    52    51   ar
   151   147   149   ar
   152   147   144   ar
   153    17    18    2
   154    20    21    1
   155    20    22    1
   156   138   139    1
   157   149   150   ar
   158   158   156    1
   159   215   216    1
   160    49    51   ar
   161   216   217    1
   162   224   225    1
   163   224   221    1
   164   155   156    1
   165   155   152    1
   166   151   139   am
   167   151   152    1
   168    34    33    2
   169   220   217   am
   170   220   221    1
   171   144   142   ar
   172   144   146   ar
   173   142   143   ar
   174   139   140    2
   175   217   218    2
   176   221   222    1
   177   156   157    1
   178    30    28    1
   179   152   153    1
   180   150   148   ar
   181    33    32    1
   182    40    41   ar
   183    40    38   ar
   184    41    39   ar
   185   153   154    2
   186   146   148   ar
   187   146   145   ar
   188   143   145   ar
   189    38    36   ar
   190    27    28    1
   191    27    24    1
   192    28    29    1
   193   222   223    2
   194    32    35    1
   195    32    31    1
   196    39    37   ar
   197    36    37   ar
   198    36    35    1
   199    23    24    1
   200    24    25    1
   201    25    26    2
   202   159   160    1
   203   163   160    1
   204   163   164    1
   205   173   172    2
   206   160   161    1
   207   175   174    1
   208   166   164   ar
   209   166   168   ar
   210   164   165   ar
   211   172   171    1
   212   161   162    2
   213   171   174    1
   214   171   170    1
   215   168   169   ar
   216   165   167   ar
   217   234   232    1
   218   233   232    1
   219   169   167   ar
   220   232   231    1
   221   231   228    1
   222   227   228    1
   223   228   229    1
   224   229   230    2
