@<TRIPOS>MOLECULE
tmp/4k85D00.pdb
 76 73 0 0 0
SMALL
GASTEIGER

@<TRIPOS>ATOM
      1  N         -3.3140   40.0700   52.8420 N.3    42  ILE42      -0.1231
      2  CA        -4.2550   41.1600   52.6180 C.3    42  ILE42       0.1692
      3  C         -5.3990   40.7140   51.7100 C.2    42  ILE42       0.2592
      4  O         -6.4760   41.2990   51.7430 O.2    42  ILE42      -0.2718
      5  CB        -3.5470   42.3930   52.0220 C.3    42  ILE42       0.0266
      6  CG1       -4.5350   43.5310   51.7870 C.3    42  ILE42       0.0019
      7  CG2       -2.8200   42.0320   50.7280 C.3    42  ILE42       0.0020
      8  CD1       -3.9110   44.7370   51.1130 C.3    42  ILE42       0.0001
      9  N         -5.1730   39.6690   50.9110 N.am   43  PHE43      -0.1976
     10  CA        -6.2130   39.1860   49.9900 C.3    43  PHE43       0.1639
     11  C         -7.3550   38.4650   50.6980 C.2    43  PHE43       0.2290
     12  O         -8.3610   38.1310   50.0780 O.2    43  PHE43      -0.2864
     13  CB        -5.6140   38.3290   48.8660 C.3    43  PHE43       0.0560
     14  CG        -4.8380   39.1290   47.8750 C.ar   43  PHE43      -0.0200
     15  CD1       -5.4930   39.7990   46.8470 C.ar   43  PHE43      -0.0042
     16  CD2       -3.4630   39.2630   47.9930 C.ar   43  PHE43      -0.0042
     17  CE1       -4.7840   40.5670   45.9410 C.ar   43  PHE43      -0.0003
     18  CE2       -2.7480   40.0270   47.0940 C.ar   43  PHE43      -0.0003
     19  CZ        -3.4040   40.6790   46.0650 C.ar   43  PHE43      -0.0000
     20  N         -9.1850   39.9810   52.3480 N.3    45  PHE45      -0.1227
     21  CA       -10.2250   40.9820   52.0900 C.3    45  PHE45       0.1736
     22  C        -11.1400   40.6250   50.9210 C.2    45  PHE45       0.2595
     23  O        -12.2770   41.0960   50.8590 O.2    45  PHE45      -0.2718
     24  CB        -9.6140   42.3640   51.8370 C.3    45  PHE45       0.0547
     25  CG        -9.3610   43.1550   53.0840 C.ar   45  PHE45      -0.0202
     26  CD1      -10.4180   43.6950   53.7990 C.ar   45  PHE45      -0.0042
     27  CD2       -8.0640   43.3730   53.5360 C.ar   45  PHE45      -0.0042
     28  CE1      -10.1910   44.4280   54.9500 C.ar   45  PHE45      -0.0003
     29  CE2       -7.8280   44.1110   54.6850 C.ar   45  PHE45      -0.0003
     30  CZ        -8.8970   44.6380   55.3950 C.ar   45  PHE45      -0.0000
     31  N        -10.6600   39.8030   49.9940 N.am   46  ILE46      -0.1980
     32  CA       -11.4730   39.4490   48.8200 C.3    46  ILE46       0.1595
     33  C        -12.3590   38.2240   49.0490 C.2    46  ILE46       0.2287
     34  O        -13.2490   37.9280   48.2410 O.2    46  ILE46      -0.2864
     35  CB       -10.6070   39.1660   47.5700 C.3    46  ILE46       0.0276
     36  CG1      -10.0010   37.7660   47.6450 C.3    46  ILE46       0.0022
     37  CG2       -9.5250   40.2010   47.4170 C.3    46  ILE46       0.0022
     38  CD1       -9.1730   37.4220   46.4510 C.3    46  ILE46       0.0001
     39  N        -11.5790   46.6300   36.3570 N.3   144  PRO144     -0.2116
     40  CA       -11.3050   48.0350   36.0390 C.3   144  PRO144      0.1372
     41  C         -9.9070   48.3980   36.5190 C.2   144  PRO144      0.2244
     42  O         -9.4200   47.8000   37.4890 O.2   144  PRO144     -0.2868
     43  CB       -12.3540   48.8050   36.8560 C.3   144  PRO144      0.0268
     44  CG       -13.1720   47.7790   37.5840 C.3   144  PRO144      0.0207
     45  CD       -12.4440   46.4840   37.5380 C.3   144  PRO144      0.0892
     46  N         -8.5640   50.6800   38.2830 N.3   146  VAL146     -0.1231
     47  CA        -8.3980   50.9930   39.7060 C.3   146  VAL146      0.1692
     48  C         -8.1960   49.7320   40.5490 C.2   146  VAL146      0.2591
     49  O         -7.3910   49.7190   41.4840 O.2   146  VAL146     -0.2718
     50  CB        -9.5810   51.8180   40.2720 C.3   146  VAL146      0.0266
     51  CG1      -10.9260   51.1490   39.9610 C.3   146  VAL146      0.0020
     52  CG2       -9.4170   52.0230   41.7680 C.3   146  VAL146      0.0020
     53  N         -8.9270   48.6740   40.2080 N.am  147  VAL147     -0.1980
     54  CA        -8.8020   47.3820   40.8780 C.3   147  VAL147      0.1595
     55  C         -7.5260   46.6770   40.4480 C.2   147  VAL147      0.2287
     56  O         -6.7980   46.1510   41.2810 O.2   147  VAL147     -0.2864
     57  CB       -10.0120   46.4670   40.5570 C.3   147  VAL147      0.0276
     58  CG1       -9.7850   45.0410   41.0820 C.3   147  VAL147      0.0022
     59  CG2      -11.2780   47.0650   41.1330 C.3   147  VAL147      0.0022
     60  N         -4.3440   48.3400   42.1660 N.3   150  ALA150     -0.1231
     61  CA        -4.3130   48.0060   43.5900 C.3   150  ALA150      0.1694
     62  C         -3.9510   46.5430   43.8610 C.2   150  ALA150      0.2591
     63  O         -3.1410   46.2460   44.7390 O.2   150  ALA150     -0.2718
     64  CB        -5.6380   48.3420   44.2380 C.3   150  ALA150      0.0304
     65  N         -4.5660   45.6290   43.1180 N.am  151  VAL151     -0.1980
     66  CA        -4.2660   44.2120   43.2640 C.3   151  VAL151      0.1595
     67  C         -2.8010   43.9430   42.9420 C.2   151  VAL151      0.2287
     68  O         -2.1400   43.1610   43.6160 O.2   151  VAL151     -0.2864
     69  CB        -5.1620   43.3370   42.3390 C.3   151  VAL151      0.0276
     70  CG1       -4.6430   41.9070   42.2870 C.3   151  VAL151      0.0022
     71  CG2       -6.6080   43.3660   42.8140 C.3   151  VAL151      0.0022
     72  N         -0.6390   45.1160   45.7260 N.3   154  ALA154     -0.1245
     73  CA        -0.8120   44.2250   46.8660 C.3   154  ALA154      0.1562
     74  C         -0.0410   42.9220   46.7360 C.2   154  ALA154      0.2260
     75  O          0.2810   42.2910   47.7430 O.2   154  ALA154     -0.2867
     76  CB        -2.2950   43.9480   47.1190 C.3   154  ALA154      0.0290
@<TRIPOS>BOND
     1    40    39    1
     2    40    41    1
     3    40    43    1
     4    39    45    1
     5    41    42    2
     6    43    44    1
     7    45    44    1
     8    46    47    1
     9    47    50    1
    10    47    48    1
    11    51    50    1
    12    53    48   am
    13    53    54    1
    14    50    52    1
    15    55    54    1
    16    55    56    2
    17    48    49    2
    18    57    54    1
    19    57    58    1
    20    57    59    1
    21    60    61    1
    22    70    69    1
    23    69    71    1
    24    69    66    1
    25    67    66    1
    26    67    68    2
    27    65    66    1
    28    65    62   am
    29    61    62    1
    30    61    64    1
    31    62    63    2
    32    72    73    1
    33    17    19   ar
    34    17    15   ar
    35    19    18   ar
    36    38    36    1
    37    74    73    1
    38    74    75    2
    39    15    14   ar
    40    73    76    1
    41    18    16   ar
    42    37    35    1
    43    35    36    1
    44    35    32    1
    45    14    16   ar
    46    14    13    1
    47    34    33    2
    48    32    33    1
    49    32    31    1
    50    13    10    1
    51    10    11    1
    52    10     9    1
    53    31    22   am
    54    12    11    2
    55     7     5    1
    56    23    22    2
    57     9     3   am
    58    22    21    1
    59     8     6    1
    60     3     4    2
    61     3     2    1
    62     6     5    1
    63    24    21    1
    64    24    25    1
    65     5     2    1
    66    21    20    1
    67     2     1    1
    68    25    27   ar
    69    25    26   ar
    70    27    29   ar
    71    26    28   ar
    72    29    30   ar
    73    28    30   ar
