@<TRIPOS>MOLECULE
tmp/4k87A00.pdb
 184 180 0 0 0
SMALL
GASTEIGER

@<TRIPOS>ATOM
      1  N         36.6120  113.8090   10.6010 N.3    82  PHE82      -0.1241
      2  CA        37.7350  114.7370   10.8010 C.3    82  PHE82       0.1605
      3  C         39.0680  114.0710   11.1610 C.2    82  PHE82       0.2264
      4  O         40.1290  114.7020   11.0490 O.2    82  PHE82      -0.2867
      5  CB        37.3880  115.8130   11.8490 C.3    82  PHE82       0.0534
      6  CG        36.2870  116.7550   11.4160 C.ar   82  PHE82      -0.0203
      7  CD1       36.5690  117.8520   10.6090 C.ar   82  PHE82      -0.0042
      8  CD2       34.9720  116.5390   11.8100 C.ar   82  PHE82      -0.0042
      9  CE1       35.5650  118.7140   10.2010 C.ar   82  PHE82      -0.0003
     10  CE2       33.9580  117.3950   11.4060 C.ar   82  PHE82      -0.0003
     11  CZ        34.2570  118.4890   10.6010 C.ar   82  PHE82      -0.0000
     12  N         43.1800  122.1020    9.8880 N.3   137  ARG137     -0.1245
     13  CA        42.7430  120.8800    9.2140 C.3   137  ARG137      0.1563
     14  C         43.8240  120.5350    8.2070 C.2   137  ARG137      0.2260
     15  O         43.9920  121.2150    7.1940 O.2   137  ARG137     -0.2867
     16  CB        41.3820  121.0650    8.5380 C.3   137  ARG137      0.0307
     17  CG        40.2300  121.3240    9.5110 C.3   137  ARG137      0.0489
     18  CD        38.9860  121.8200    8.7930 C.3   137  ARG137      0.2205
     19  NE        37.9110  122.1020    9.7380 N.pl3 137  ARG137     -0.0865
     20  CZ        36.6340  122.2560    9.3960 C.cat 137  ARG137      0.5346
     21  NH1       36.2650  122.1570    8.1230 N.pl3 137  ARG137      0.1354
     22  NH2       35.7200  122.5040   10.3280 N.pl3 137  ARG137      0.1354
     23  N         45.2890  119.0020    5.3940 N.3   139  GLU139     -0.1245
     24  CA        45.1050  118.2560    4.1620 C.3   139  GLU139      0.1567
     25  C         46.2380  118.5940    3.2260 C.2   139  GLU139      0.2260
     26  O         46.6080  119.7610    3.0710 O.2   139  GLU139     -0.2867
     27  CB        43.7680  118.5620    3.5100 C.3   139  GLU139      0.0388
     28  CG        42.6240  118.7620    4.4790 C.3   139  GLU139      0.1160
     29  CD        41.3210  119.1460    3.7820 C.2   139  GLU139      0.3649
     30  OE1       41.3400  120.0590    2.9210 O.co2 139  GLU139     -0.2457
     31  OE2       40.2760  118.5300    4.0950 O.co2 139  GLU139     -0.2457
     32  N         46.3900  117.9860    0.0280 N.3   141  LYS141     -0.1245
     33  CA        45.9260  118.4310   -1.2790 C.3   141  LYS141      0.1561
     34  C         46.5240  119.8110   -1.5200 C.2   141  LYS141      0.2260
     35  O         46.7290  120.5730   -0.5720 O.2   141  LYS141     -0.2867
     36  CB        44.3930  118.4710   -1.3290 C.3   141  LYS141      0.0271
     37  CG        43.7580  119.8620   -1.1940 C.3   141  LYS141      0.0035
     38  CD        43.1920  120.1170    0.2080 C.3   141  LYS141      0.0206
     39  CE        44.1700  120.8820    1.0980 C.3   141  LYS141      0.1093
     40  NZ        43.5050  121.4610    2.3100 N.3   141  LYS141     -0.1314
     41  N         43.5210  131.5500    1.4020 N.3   146  PHE146     -0.1227
     42  CA        42.1200  131.8580    1.7010 C.3   146  PHE146      0.1736
     43  C         41.1820  130.7020    1.4060 C.2   146  PHE146      0.2595
     44  O         40.4410  130.2620    2.2790 O.2   146  PHE146     -0.2718
     45  CB        41.6440  133.1050    0.9470 C.3   146  PHE146      0.0547
     46  CG        42.3530  134.3590    1.3450 C.ar  146  PHE146     -0.0202
     47  CD1       42.4660  134.7090    2.6740 C.ar  146  PHE146     -0.0042
     48  CD2       42.9250  135.1770    0.3900 C.ar  146  PHE146     -0.0042
     49  CE1       43.1260  135.8460    3.0430 C.ar  146  PHE146     -0.0003
     50  CE2       43.5820  136.3210    0.7570 C.ar  146  PHE146     -0.0003
     51  CZ        43.6810  136.6520    2.0850 C.ar  146  PHE146     -0.0000
     52  N         41.2240  130.2160    0.1700 N.am  147  LEU147     -0.1966
     53  CA        40.2840  129.2040   -0.3040 C.3   147  LEU147      0.1728
     54  C         40.4740  127.8170    0.3310 C.2   147  LEU147      0.2616
     55  O         39.4950  127.1560    0.6760 O.2   147  LEU147     -0.2715
     56  CB        40.3590  129.0910   -1.8270 C.3   147  LEU147      0.0311
     57  CG        40.0890  130.3630   -2.6270 C.3   147  LEU147      0.0022
     58  CD1       40.3390  130.1280   -4.1050 C.3   147  LEU147      0.0001
     59  CD2       38.6670  130.8450   -2.3920 C.3   147  LEU147      0.0001
     60  N         41.7260  127.3850    0.4740 N.am  148  ARG148     -0.1963
     61  CA        42.0320  126.0380    0.9530 C.3   148  ARG148      0.1729
     62  C         43.3400  125.9950    1.7240 C.2   148  ARG148      0.2616
     63  O         44.3910  125.6710    1.1680 O.2   148  ARG148     -0.2715
     64  CB        42.1330  125.0730   -0.2180 C.3   148  ARG148      0.0348
     65  CG        42.3630  123.6450    0.2050 C.3   148  ARG148      0.0492
     66  CD        41.0540  122.9440    0.5640 C.3   148  ARG148      0.2205
     67  NE        40.0770  123.0580   -0.5190 N.pl3 148  ARG148     -0.0865
     68  CZ        40.2410  122.5660   -1.7490 C.cat 148  ARG148      0.5346
     69  NH1       41.3520  121.9080   -2.0790 N.pl3 148  ARG148      0.1354
     70  NH2       39.2850  122.7370   -2.6570 N.pl3 148  ARG148      0.1354
     71  N         43.2840  126.3230    3.0070 N.am  149  THR149     -0.1951
     72  CA        44.5070  126.4550    3.7800 C.3   149  THR149      0.1897
     73  C         44.5010  125.5100    4.9630 C.2   149  THR149      0.2313
     74  O         43.4390  125.0840    5.4110 O.2   149  THR149     -0.2863
     75  CB        44.7120  127.9150    4.2390 C.3   149  THR149      0.1794
     76  OG1       43.7860  128.2490    5.2810 O.3   149  THR149     -0.2208
     77  CG2       44.4770  128.8420    3.0760 C.3   149  THR149      0.0378
     78  N         43.5250  128.3920    9.3780 N.3   152  PHE152     -0.1241
     79  CA        42.6920  129.5080    8.9720 C.3   152  PHE152      0.1605
     80  C         41.9650  130.1220   10.1680 C.2   152  PHE152      0.2264
     81  O         41.8900  129.5090   11.2330 O.2   152  PHE152     -0.2867
     82  CB        41.7190  129.0960    7.8560 C.3   152  PHE152      0.0534
     83  CG        40.7780  127.9670    8.2200 C.ar  152  PHE152     -0.0203
     84  CD1       39.6200  128.2090    8.9440 C.ar  152  PHE152     -0.0042
     85  CD2       41.0240  126.6680    7.7850 C.ar  152  PHE152     -0.0042
     86  CE1       38.7400  127.1790    9.2520 C.ar  152  PHE152     -0.0003
     87  CE2       40.1500  125.6300    8.0950 C.ar  152  PHE152     -0.0003
     88  CZ        39.0100  125.8850    8.8200 C.ar  152  PHE152     -0.0000
     89  N         38.3890  131.8130   11.7420 N.3   154  TRP154     -0.1241
     90  CA        36.9540  131.7760   11.5460 C.3   154  TRP154      0.1605
     91  C         36.2000  132.2140   12.7850 C.2   154  TRP154      0.2264
     92  O         36.7890  132.4830   13.8170 O.2   154  TRP154     -0.2867
     93  CB        36.5060  130.3620   11.1290 C.3   154  TRP154      0.0550
     94  CG        36.4800  129.3140   12.2130 C.ar  154  TRP154      0.0003
     95  CD1       37.0430  129.3830   13.4620 C.ar  154  TRP154      0.0946
     96  CD2       35.8360  128.0320   12.1400 C.ar  154  TRP154      0.0152
     97  NE1       36.7900  128.2200   14.1650 N.ar  154  TRP154     -0.2442
     98  CE2       36.0520  127.3790   13.3740 C.ar  154  TRP154      0.0810
     99  CE3       35.0950  127.3740   11.1470 C.ar  154  TRP154      0.0012
    100  CZ2       35.5670  126.1050   13.6310 C.ar  154  TRP154      0.0191
    101  CZ3       34.6150  126.1100   11.4100 C.ar  154  TRP154      0.0001
    102  CH2       34.8490  125.4880   12.6400 C.ar  154  TRP154      0.0015
    103  N         26.9120  117.7760    7.3260 N.3   201  PHE201     -0.1241
    104  CA        27.9520  117.8340    8.3410 C.3   201  PHE201      0.1605
    105  C         27.9740  116.5240    9.0810 C.2   201  PHE201      0.2264
    106  O         26.9300  116.0160    9.4500 O.2   201  PHE201     -0.2867
    107  CB        27.6670  118.9840    9.3160 C.3   201  PHE201      0.0534
    108  CG        28.7130  119.1550   10.3930 C.ar  201  PHE201     -0.0203
    109  CD1       30.0320  119.4080   10.0650 C.ar  201  PHE201     -0.0042
    110  CD2       28.3620  119.1010   11.7310 C.ar  201  PHE201     -0.0042
    111  CE1       30.9840  119.5850   11.0490 C.ar  201  PHE201     -0.0003
    112  CE2       29.3090  119.2860   12.7230 C.ar  201  PHE201     -0.0003
    113  CZ        30.6220  119.5230   12.3850 C.ar  201  PHE201     -0.0000
    114  N         31.7290  126.9650   -1.3520 N.3   222  GLN222     -0.1231
    115  CA        30.8910  127.1230   -0.1710 C.3   222  GLN222      0.1698
    116  C         31.3720  128.2730    0.7300 C.2   222  GLN222      0.2593
    117  O         32.5200  128.2780    1.1870 O.2   222  GLN222     -0.2718
    118  CB        30.8740  125.8100    0.6090 C.3   222  GLN222      0.0381
    119  CG        30.2140  125.8800    1.9520 C.3   222  GLN222      0.0905
    120  CD        30.4890  124.6390    2.7370 C.2   222  GLN222      0.2608
    121  OE1       31.0560  124.6830    3.8300 O.2   222  GLN222     -0.2717
    122  NE2       30.1160  123.5050    2.1710 N.am  222  GLN222     -0.0878
    123  N         30.4770  129.2200    0.9950 N.am  223  GLY223     -0.1942
    124  CA        30.8270  130.4390    1.7020 C.3   223  GLY223      0.2014
    125  C         30.6490  130.4160    3.2120 C.2   223  GLY223      0.2639
    126  O         31.3850  131.1130    3.9290 O.2   223  GLY223     -0.2714
    127  N         29.6790  129.6220    3.6810 N.am  224  GLY224     -0.1939
    128  CA        29.3420  129.5060    5.0930 C.3   224  GLY224      0.2014
    129  C         28.2980  128.4270    5.3350 C.2   224  GLY224      0.2639
    130  O         27.4660  128.1510    4.4660 O.2   224  GLY224     -0.2714
    131  N         28.3340  127.8020    6.5080 N.am  225  THR225     -0.1950
    132  CA        27.3750  126.7370    6.8330 C.3   225  THR225      0.1897
    133  C         26.6820  126.9210    8.1820 C.2   225  THR225      0.2313
    134  O         27.2630  127.4410    9.1270 O.2   225  THR225     -0.2863
    135  CB        28.0370  125.3560    6.8140 C.3   225  THR225      0.1794
    136  OG1       29.3290  125.4380    7.4350 O.3   225  THR225     -0.2208
    137  CG2       28.2010  124.8630    5.3870 C.3   225  THR225      0.0378
    138  N         24.5770  124.4390   10.7430 N.3   227  HIS227     -0.1241
    139  CA        24.1130  123.0610   10.9620 C.3   227  HIS227      0.1621
    140  C         23.1030  122.9120   12.0770 C.2   227  HIS227      0.2264
    141  O         23.2240  123.5420   13.1290 O.2   227  HIS227     -0.2867
    142  CB        25.2730  122.1520   11.3320 C.3   227  HIS227      0.0745
    143  CG        26.4850  122.3560   10.5000 C.ar  227  HIS227      0.0817
    144  ND1       26.4510  122.3250    9.1250 N.ar  227  HIS227     -0.2268
    145  CD2       27.7740  122.5820   10.8450 C.ar  227  HIS227      0.1154
    146  CE1       27.6710  122.5200    8.6570 C.ar  227  HIS227      0.1986
    147  NE2       28.4930  122.6740    9.6810 N.ar  227  HIS227     -0.2212
    148  N         29.4670  128.3110   11.1380 N.3   259  GLY259     -0.1210
    149  CA        30.8160  128.8000   10.9060 C.3   259  GLY259      0.1956
    150  C         31.0260  129.5830    9.6210 C.2   259  GLY259      0.2612
    151  O         30.4380  129.2790    8.5800 O.2   259  GLY259     -0.2717
    152  N         31.8810  130.5980    9.6980 N.am  260  LEU260     -0.1965
    153  CA        32.2980  131.3630    8.5250 C.3   260  LEU260      0.1728
    154  C         33.7850  131.6600    8.6250 C.2   260  LEU260      0.2617
    155  O         34.2960  131.9040    9.7110 O.2   260  LEU260     -0.2715
    156  CB        31.4920  132.6440    8.4180 C.3   260  LEU260      0.0311
    157  CG        31.9520  133.6900    7.4140 C.3   260  LEU260      0.0022
    158  CD1       31.2170  133.5180    6.1310 C.3   260  LEU260      0.0001
    159  CD2       31.6530  135.0400    7.9970 C.3   260  LEU260      0.0001
    160  N         34.5020  131.5850    7.5120 N.am  261  THR261     -0.1937
    161  CA        35.9510  131.6940    7.5750 C.3   261  THR261      0.2028
    162  C         36.5140  132.7390    6.6300 C.2   261  THR261      0.2643
    163  O         35.8070  133.2940    5.7970 O.2   261  THR261     -0.2714
    164  CB        36.6640  130.3810    7.1940 C.3   261  THR261      0.1808
    165  OG1       36.7180  130.2750    5.7670 O.3   261  THR261     -0.2208
    166  CG2       35.9600  129.1580    7.7880 C.3   261  THR261      0.0379
    167  N         37.8240  132.9350    6.7430 N.am  262  THR262     -0.1936
    168  CA        38.5660  133.8150    5.8730 C.3   262  THR262      0.2028
    169  C         38.5040  133.4510    4.3920 C.2   262  THR262      0.2642
    170  O         38.9750  134.2140    3.5530 O.2   262  THR262     -0.2714
    171  CB        40.0150  133.8830    6.3050 C.3   262  THR262      0.1808
    172  OG1       40.5360  132.5500    6.3830 O.3   262  THR262     -0.2208
    173  CG2       40.1180  134.5530    7.6820 C.3   262  THR262      0.0379
    174  N         37.9270  132.3130    4.0430 N.am  263  ARG263     -0.1977
    175  CA        37.7590  132.0370    2.6220 C.3   263  ARG263      0.1597
    176  C         36.9230  133.1370    1.9440 C.2   263  ARG263      0.2287
    177  O         37.1290  133.4190    0.7660 O.2   263  ARG263     -0.2864
    178  CB        37.2330  130.6180    2.3540 C.3   263  ARG263      0.0334
    179  CG        35.7320  130.4700    2.1740 C.3   263  ARG263      0.0492
    180  CD        35.4320  129.3300    1.1930 C.3   263  ARG263      0.2205
    181  NE        35.2620  128.0030    1.8030 N.pl3 263  ARG263     -0.0865
    182  CZ        35.9980  126.9250    1.5160 C.cat 263  ARG263      0.5346
    183  NH1       36.9810  126.9900    0.6300 N.pl3 263  ARG263      0.1354
    184  NH2       35.7490  125.7730    2.1200 N.pl3 263  ARG263      0.1354
@<TRIPOS>BOND
     1    58    57    1
     2    70    68    1
     3    57    59    1
     4    57    56    1
     5    69    68    1
     6    56    53    1
     7    68    67    2
     8    34    33    1
     9    34    35    2
    10   114   115    1
    11    36    33    1
    12    36    37    1
    13    33    32    1
    14    37    38    1
    15    67    66    1
    16    53    52    1
    17    53    54    1
    18    64    65    1
    19    64    61    1
    20   115   118    1
    21   115   116    1
    22    52    43   am
    23    65    66    1
    24    38    39    1
    25    54    60   am
    26    54    55    2
    27    48    50   ar
    28    48    46   ar
    29    60    61    1
    30   118   119    1
    31   183   182    1
    32   116   123   am
    33   116   117    2
    34    50    51   ar
    35   177   176    2
    36    45    46    1
    37    45    42    1
    38    61    62    1
    39   123   124    1
    40    39    40    1
    41    63    62    2
    42   180   181    1
    43   180   179    1
    44    46    47   ar
    45    41    42    1
    46    43    42    1
    47    43    44    2
    48   182   181    2
    49   182   184    1
    50   124   125    1
    51    62    71   am
    52   176   175    1
    53   119   120    1
    54    51    49   ar
    55   122   120   am
    56   179   178    1
    57   178   175    1
    58   175   174    1
    59    47    49   ar
    60   120   121    2
    61    30    29   ar
    62    71    72    1
    63    26    25    2
    64    77    75    1
    65   125   127   am
    66   125   126    2
    67    25    24    1
    68    27    24    1
    69    27    28    1
    70   170   169    2
    71   127   128    1
    72    72    75    1
    73    72    73    1
    74    29    31   ar
    75    29    28    1
    76   174   169   am
    77    24    23    1
    78    75    76    1
    79   169   168    1
    80   130   129    2
    81    73    74    2
    82   128   129    1
    83   129   131   am
    84   137   135    1
    85   165   164    1
    86   163   162    2
    87   168   171    1
    88   168   167    1
    89   158   157    1
    90   171   172    1
    91   171   173    1
    92   131   132    1
    93   162   167   am
    94   162   161    1
    95   135   132    1
    96   135   136    1
    97   132   133    1
    98    15    14    2
    99   164   161    1
   100   164   166    1
   101   103   104    1
   102   157   159    1
   103   157   156    1
   104   160   161    1
   105   160   154   am
   106    85    87   ar
   107    85    83   ar
   108    82    83    1
   109    82    79    1
   110    87    88   ar
   111    21    20    1
   112   133   134    2
   113    14    13    1
   114    83    84   ar
   115   104   105    1
   116   104   107    1
   117   156   153    1
   118   153   154    1
   119   153   152    1
   120    16    13    1
   121    16    17    1
   122   151   150    2
   123   154   155    2
   124   146   144   ar
   125   146   147   ar
   126    18    17    1
   127    18    19    1
   128    88    86   ar
   129    84    86   ar
   130    79    78    1
   131    79    80    1
   132   105   106    2
   133   144   143   ar
   134    13    12    1
   135   107   108    1
   136    20    19    2
   137    20    22    1
   138   150   152   am
   139   150   149    1
   140   147   145   ar
   141   109   108   ar
   142   109   111   ar
   143    80    81    2
   144     9    11   ar
   145     9     7   ar
   146   108   110   ar
   147   143   145   ar
   148   143   142    1
   149     1     2    1
   150    11    10   ar
   151     7     6   ar
   152   138   139    1
   153     2     3    1
   154     2     5    1
   155   149   148    1
   156   139   142    1
   157   139   140    1
   158     4     3    2
   159   111   113   ar
   160    93    90    1
   161    93    94    1
   162    99   101   ar
   163    99    96   ar
   164    10     8   ar
   165   101   102   ar
   166     6     8   ar
   167     6     5    1
   168    90    89    1
   169    90    91    1
   170   110   112   ar
   171   140   141    2
   172    96    94   ar
   173    96    98   ar
   174    94    95   ar
   175   113   112   ar
   176   102   100   ar
   177    91    92    2
   178    98   100   ar
   179    98    97   ar
   180    95    97   ar
