@<TRIPOS>MOLECULE
tmp/4k88A00.pdb
 180 177 0 0 0
SMALL
GASTEIGER

@<TRIPOS>ATOM
      1  N        -19.0830   14.9150  -20.6870 N.3    72  LEU72      -0.1245
      2  CA       -19.0170   15.4550  -19.3390 C.3    72  LEU72       0.1561
      3  C        -17.8990   16.4620  -19.3350 C.2    72  LEU72       0.2260
      4  O        -18.1120   17.6400  -19.0820 O.2    72  LEU72      -0.2867
      5  CB       -18.6780   14.3620  -18.3310 C.3    72  LEU72       0.0270
      6  CG       -19.7090   13.2910  -17.9890 C.3    72  LEU72       0.0019
      7  CD1      -19.0010   12.0750  -17.4290 C.3    72  LEU72       0.0001
      8  CD2      -20.6960   13.8330  -16.9790 C.3    72  LEU72       0.0001
      9  N        -21.2160   19.2370  -14.3390 N.3    78  HIS78      -0.1226
     10  CA       -20.5000   19.1860  -13.0900 C.3    78  HIS78       0.1752
     11  C        -19.6860   20.4870  -12.8800 C.2    78  HIS78       0.2595
     12  O        -19.0900   20.9780  -13.8360 O.2    78  HIS78      -0.2718
     13  CB       -19.6080   17.9470  -13.0690 C.3    78  HIS78       0.0759
     14  CG       -18.6400   17.8830  -14.2050 C.ar   78  HIS78       0.0818
     15  ND1      -18.5960   18.8350  -15.2010 N.ar   78  HIS78      -0.2268
     16  CD2      -17.6800   16.9780  -14.5000 C.ar   78  HIS78       0.1154
     17  CE1      -17.6490   18.5140  -16.0630 C.ar   78  HIS78       0.1986
     18  NE2      -17.0780   17.4020  -15.6680 N.ar   78  HIS78      -0.2212
     19  N        -19.6380   21.0620  -11.6690 N.am   79  VAL79      -0.1980
     20  CA       -20.1210   20.4870  -10.4070 C.3    79  VAL79       0.1595
     21  C        -19.3410   19.1910  -10.1920 C.2    79  VAL79       0.2287
     22  O        -19.9170   18.1250   -9.9830 O.2    79  VAL79      -0.2864
     23  CB       -21.6820   20.3040  -10.3700 C.3    79  VAL79       0.0276
     24  CG1      -22.1740   20.1030   -8.9770 C.3    79  VAL79       0.0022
     25  CG2      -22.3740   21.5070  -10.9810 C.3    79  VAL79       0.0022
     26  N        -18.5620   15.3180   -7.7930 N.3    82  PHE82      -0.1227
     27  CA       -19.0560   13.9530   -7.8880 C.3    82  PHE82       0.1736
     28  C        -18.2580   13.1120   -8.8730 C.2    82  PHE82       0.2595
     29  O        -18.4110   11.8940   -8.9110 O.2    82  PHE82      -0.2718
     30  CB       -20.5160   13.9360   -8.3210 C.3    82  PHE82       0.0547
     31  CG       -21.3640   14.9850   -7.6760 C.ar   82  PHE82      -0.0202
     32  CD1      -21.8100   14.8400   -6.3750 C.ar   82  PHE82      -0.0042
     33  CD2      -21.7540   16.0980   -8.3900 C.ar   82  PHE82      -0.0042
     34  CE1      -22.6080   15.8030   -5.7970 C.ar   82  PHE82      -0.0003
     35  CE2      -22.5500   17.0520   -7.8140 C.ar   82  PHE82      -0.0003
     36  CZ       -22.9760   16.9100   -6.5190 C.ar   82  PHE82      -0.0000
     37  N        -17.4050   13.7580   -9.6610 N.am   83  ALA83      -0.1980
     38  CA       -16.5940   13.0610  -10.6640 C.3    83  ALA83       0.1597
     39  C        -15.8300   11.7920  -10.2290 C.2    83  ALA83       0.2287
     40  O        -15.5870   10.9220  -11.0640 O.2    83  ALA83      -0.2864
     41  CB       -15.6460   14.0360  -11.3490 C.3    83  ALA83       0.0319
     42  N        -16.9860    9.4710   -8.5540 N.3    85  GLU85      -0.1231
     43  CA       -17.9770    8.4430   -8.2790 C.3    85  GLU85       0.1699
     44  C        -18.5310    7.8500   -9.5720 C.2    85  GLU85       0.2592
     45  O        -19.4440    7.0280   -9.5310 O.2    85  GLU85      -0.2718
     46  CB       -19.1250    9.0030   -7.4340 C.3    85  GLU85       0.0402
     47  CG       -18.7010    9.6350   -6.1180 C.3    85  GLU85       0.1161
     48  CD       -19.8310   10.4010   -5.4490 C.2    85  GLU85       0.3649
     49  OE1      -19.5430   11.3940   -4.7500 O.co2  85  GLU85      -0.2457
     50  OE2      -21.0070   10.0130   -5.6200 O.co2  85  GLU85      -0.2457
     51  N        -17.9920    8.2640  -10.7180 N.am   86  VAL86      -0.1980
     52  CA       -18.4470    7.7070  -11.9930 C.3    86  VAL86       0.1595
     53  C        -17.6170    6.5060  -12.4290 C.2    86  VAL86       0.2287
     54  O        -16.3880    6.5590  -12.4690 O.2    86  VAL86      -0.2864
     55  CB       -18.4990    8.7580  -13.1370 C.3    86  VAL86       0.0276
     56  CG1      -19.4530    9.8700  -12.7900 C.3    86  VAL86       0.0022
     57  CG2      -17.1290    9.3260  -13.4320 C.3    86  VAL86       0.0022
     58  N        -24.7500    8.7120  -14.4760 N.3   105  PRO105     -0.2102
     59  CA       -25.1130    8.9800  -13.0870 C.3   105  PRO105      0.1504
     60  C        -26.3210    9.8940  -13.0800 C.2   105  PRO105      0.2576
     61  O        -26.9520   10.1140  -12.0500 O.2   105  PRO105     -0.2718
     62  CB       -23.8950    9.7280  -12.5680 C.3   105  PRO105      0.0282
     63  CG       -23.3880   10.4550  -13.7610 C.3   105  PRO105      0.0208
     64  CD       -23.6910    9.6150  -14.9610 C.3   105  PRO105      0.0893
     65  N        -26.6150   10.4130  -14.2650 N.am  106  THR106     -0.1953
     66  CA       -27.7260   11.2990  -14.5330 C.3   106  THR106      0.1897
     67  C        -27.5680   11.5240  -16.0230 C.2   106  THR106      0.2313
     68  O        -26.6180   11.0110  -16.6120 O.2   106  THR106     -0.2863
     69  CB       -27.6040   12.6210  -13.7720 C.3   106  THR106      0.1794
     70  OG1      -28.7590   13.4280  -14.0290 O.3   106  THR106     -0.2208
     71  CG2      -26.3620   13.3660  -14.2050 C.3   106  THR106      0.0378
     72  N        -28.1020   14.6800  -18.1050 N.3   108  GLU108     -0.1245
     73  CA       -28.0020   16.0030  -18.7190 C.3   108  GLU108      0.1567
     74  C        -27.0360   16.0040  -19.8940 C.2   108  GLU108      0.2260
     75  O        -27.3120   16.5760  -20.9490 O.2   108  GLU108     -0.2867
     76  CB       -27.5220   17.0270  -17.6940 C.3   108  GLU108      0.0388
     77  CG       -28.6130   17.6280  -16.8490 C.3   108  GLU108      0.1160
     78  CD       -28.9250   16.8100  -15.6300 C.2   108  GLU108      0.3649
     79  OE1      -28.2490   15.7850  -15.4070 O.co2 108  GLU108     -0.2457
     80  OE2      -29.8510   17.2000  -14.8910 O.co2 108  GLU108     -0.2457
     81  N        -24.0890    5.4450   -9.5060 N.3   137  ARG137     -0.1245
     82  CA       -23.1480    6.3330   -8.8470 C.3   137  ARG137      0.1563
     83  C        -22.3070    5.4670   -7.9290 C.2   137  ARG137      0.2260
     84  O        -22.7630    4.4120   -7.4910 O.2   137  ARG137     -0.2867
     85  CB       -23.9100    7.3940   -8.0580 C.3   137  ARG137      0.0307
     86  CG       -24.8120    8.2330   -8.9410 C.3   137  ARG137      0.0489
     87  CD       -25.7670    9.0830   -8.1360 C.3   137  ARG137      0.2205
     88  NE       -26.6030    9.8960   -9.0120 N.pl3 137  ARG137     -0.0865
     89  CZ       -27.5330   10.7380   -8.5790 C.cat 137  ARG137      0.5346
     90  NH1      -27.7510   10.8770   -7.2780 N.pl3 137  ARG137      0.1354
     91  NH2      -28.2480   11.4410   -9.4440 N.pl3 137  ARG137      0.1354
     92  N        -34.6730    4.8940  -11.2240 N.3   154  TRP154     -0.1241
     93  CA       -35.3450    6.1510  -10.9720 C.3   154  TRP154      0.1605
     94  C        -36.1270    6.6020  -12.1810 C.2   154  TRP154      0.2264
     95  O        -36.3130    5.8610  -13.1480 O.2   154  TRP154     -0.2867
     96  CB       -34.3540    7.2410  -10.5350 C.3   154  TRP154      0.0550
     97  CG       -33.4910    7.8300  -11.6200 C.ar  154  TRP154      0.0003
     98  CD1      -33.3060    7.3540  -12.8860 C.ar  154  TRP154      0.0946
     99  CD2      -32.6970    9.0150  -11.5200 C.ar  154  TRP154      0.0152
    100  NE1      -32.4520    8.1730  -13.5800 N.ar  154  TRP154     -0.2442
    101  CE2      -32.0600    9.1970  -12.7610 C.ar  154  TRP154      0.0810
    102  CE3      -32.4620    9.9380  -10.5000 C.ar  154  TRP154      0.0012
    103  CZ2      -31.2060   10.2590  -13.0070 C.ar  154  TRP154      0.0191
    104  CZ3      -31.6150   10.9890  -10.7470 C.ar  154  TRP154      0.0001
    105  CH2      -30.9970   11.1420  -11.9900 C.ar  154  TRP154      0.0015
    106  N        -36.3250   10.3580  -14.4760 N.3   156  GLU156     -0.1231
    107  CA       -35.7700   11.6930  -14.5950 C.3   156  GLU156      0.1699
    108  C        -36.4240   12.4320  -15.7350 C.2   156  GLU156      0.2593
    109  O        -36.3290   12.0260  -16.8900 O.2   156  GLU156     -0.2718
    110  CB       -34.2480   11.6620  -14.7610 C.3   156  GLU156      0.0402
    111  CG       -33.7280   10.6850  -15.7960 C.3   156  GLU156      0.1161
    112  CD       -32.2630   10.9110  -16.1040 C.2   156  GLU156      0.3649
    113  OE1      -31.6020    9.9700  -16.5860 O.co2 156  GLU156     -0.2457
    114  OE2      -31.7680   12.0340  -15.8720 O.co2 156  GLU156     -0.2457
    115  N        -37.1060   13.5170  -15.3990 N.am  157  GLY157     -0.1942
    116  CA       -37.7450   14.3390  -16.4030 C.3   157  GLY157      0.2014
    117  C        -36.9140   15.5590  -16.7300 C.2   157  GLY157      0.2638
    118  O        -36.3500   16.1860  -15.8400 O.2   157  GLY157     -0.2714
    119  N        -36.8370   15.8950  -18.0110 N.am  158  HIS158     -0.1973
    120  CA       -36.1100   17.0780  -18.4450 C.3   158  HIS158      0.1656
    121  C        -36.9330   17.8750  -19.4310 C.2   158  HIS158      0.2291
    122  O        -37.0490   17.4920  -20.5930 O.2   158  HIS158     -0.2864
    123  CB       -34.8140   16.6720  -19.1230 C.3   158  HIS158      0.0771
    124  CG       -33.8910   15.8940  -18.2420 C.ar  158  HIS158      0.0820
    125  ND1      -32.7530   16.4430  -17.6920 N.ar  158  HIS158     -0.2267
    126  CD2      -33.9300   14.6100  -17.8220 C.ar  158  HIS158      0.1154
    127  CE1      -32.1330   15.5290  -16.9720 C.ar  158  HIS158      0.1986
    128  NE2      -32.8230   14.4070  -17.0350 N.ar  158  HIS158     -0.2212
    129  N        -29.3610   22.3920   -6.0680 N.3   201  PHE201     -0.1241
    130  CA       -28.6020   21.8290   -7.1600 C.3   201  PHE201      0.1605
    131  C        -27.7140   22.9580   -7.5970 C.2   201  PHE201      0.2264
    132  O        -28.1870   24.0790   -7.7790 O.2   201  PHE201     -0.2867
    133  CB       -29.5250   21.4500   -8.3140 C.3   201  PHE201      0.0534
    134  CG       -28.8240   20.7860   -9.4630 C.ar  201  PHE201     -0.0203
    135  CD1      -27.6150   20.1430   -9.2780 C.ar  201  PHE201     -0.0042
    136  CD2      -29.3740   20.8100  -10.7290 C.ar  201  PHE201     -0.0042
    137  CE1      -26.9770   19.5380  -10.3310 C.ar  201  PHE201     -0.0003
    138  CE2      -28.7350   20.2040  -11.7830 C.ar  201  PHE201     -0.0003
    139  CZ       -27.5370   19.5680  -11.5830 C.ar  201  PHE201     -0.0000
    140  N        -36.8600   15.5840   -5.8800 N.3   225  THR225     -0.1218
    141  CA       -36.5190   16.9810   -6.1230 C.3   225  THR225      0.1862
    142  C        -37.0250   17.5030   -7.4680 C.2   225  THR225      0.2287
    143  O        -37.1850   16.7460   -8.4240 O.2   225  THR225     -0.2866
    144  CB       -35.0000   17.2150   -6.0250 C.3   225  THR225      0.1770
    145  OG1      -34.3420   16.6240   -7.1530 O.3   225  THR225     -0.2211
    146  CG2      -34.4550   16.5940   -4.7640 C.3   225  THR225      0.0375
    147  N        -36.1740   20.7970  -10.0260 N.3   227  HIS227     -0.1241
    148  CA       -35.3000   21.9410  -10.2310 C.3   227  HIS227      0.1621
    149  C        -35.7230   22.8260  -11.3800 C.2   227  HIS227      0.2264
    150  O        -36.1510   22.3440  -12.4280 O.2   227  HIS227     -0.2867
    151  CB       -33.8920   21.4610  -10.5260 C.3   227  HIS227      0.0745
    152  CG       -33.4090   20.4090   -9.5830 C.ar  227  HIS227      0.0817
    153  ND1      -32.6520   20.6990   -8.4700 N.ar  227  HIS227     -0.2268
    154  CD2      -33.5740   19.0670   -9.5870 C.ar  227  HIS227      0.1154
    155  CE1      -32.3640   19.5790   -7.8340 C.ar  227  HIS227      0.1986
    156  NE2      -32.9100   18.5740   -8.4910 N.ar  227  HIS227     -0.2212
    157  N        -35.7650   20.1430  -14.4890 N.3   257  SER257     -0.1202
    158  CA       -35.4490   18.7310  -14.3450 C.3   257  SER257      0.2020
    159  C        -35.8820   18.2760  -12.9670 C.2   257  SER257      0.2619
    160  O        -35.8100   19.0330  -12.0020 O.2   257  SER257     -0.2717
    161  CB       -33.9610   18.4620  -14.5580 C.3   257  SER257      0.2103
    162  OG       -33.1980   19.0290  -13.5130 O.3   257  SER257     -0.2182
    163  N        -36.3580   17.0400  -12.8880 N.am  258  TRP258     -0.1961
    164  CA       -36.9270   16.5140  -11.6570 C.3   258  TRP258      0.1771
    165  C        -36.7810   15.0000  -11.6000 C.2   258  TRP258      0.2620
    166  O        -36.9300   14.3150  -12.6140 O.2   258  TRP258     -0.2715
    167  CB       -38.4010   16.9050  -11.5550 C.3   258  TRP258      0.0590
    168  CG       -39.0040   17.2850  -12.8690 C.ar  258  TRP258      0.0006
    169  CD1      -38.9590   18.5110  -13.4630 C.ar  258  TRP258      0.0946
    170  CD2      -39.7550   16.4440  -13.7480 C.ar  258  TRP258      0.0152
    171  NE1      -39.6270   18.4840  -14.6600 N.ar  258  TRP258     -0.2442
    172  CE2      -40.1270   17.2250  -14.8570 C.ar  258  TRP258      0.0810
    173  CE3      -40.1480   15.1060  -13.7040 C.ar  258  TRP258      0.0012
    174  CZ2      -40.8710   16.7160  -15.9080 C.ar  258  TRP258      0.0191
    175  CZ3      -40.8870   14.6040  -14.7480 C.ar  258  TRP258      0.0001
    176  CH2      -41.2420   15.4050  -15.8350 C.ar  258  TRP258      0.0015
    177  N        -36.4840   14.4760  -10.4160 N.am  259  GLY259     -0.1954
    178  CA       -36.2780   13.0500  -10.2610 C.3   259  GLY259      0.1869
    179  C        -36.8840   12.4850   -8.9950 C.2   259  GLY259      0.2309
    180  O        -37.1050   13.2040   -8.0190 O.2   259  GLY259     -0.2863
@<TRIPOS>BOND
     1    75    74    2
     2     1     2    1
     3   122   121    2
     4    74    73    1
     5   121   120    1
     6     2     3    1
     7     2     5    1
     8     3     4    2
     9   123   120    1
    10   123   124    1
    11    73    72    1
    12    73    76    1
    13   120   119    1
    14     5     6    1
    15   124   126   ar
    16   124   125   ar
    17   119   117   am
    18     6     7    1
    19     6     8    1
    20   126   128   ar
    21    76    77    1
    22   125   127   ar
    23   128   127   ar
    24   109   108    2
    25    77    78    1
    26   117   116    1
    27   117   118    2
    28    68    67    2
    29   113   112   ar
    30   116   115    1
    31   112   114   ar
    32   112   111    1
    33    17    18   ar
    34    17    15   ar
    35    67    66    1
    36   174   176   ar
    37   174   172   ar
    38   176   175   ar
    39   111   110    1
    40   108   115   am
    41   108   107    1
    42    18    16   ar
    43    78    79   ar
    44    78    80   ar
    45    15    14   ar
    46    64    58    1
    47    64    63    1
    48   172   171   ar
    49   172   170   ar
    50   110   107    1
    51   175   173   ar
    52   171   169   ar
    53   107   106    1
    54   161   158    1
    55   161   162    1
    56    66    65    1
    57    66    69    1
    58    16    14   ar
    59   157   158    1
    60    58    59    1
    61   158   159    1
    62     9    10    1
    63    65    60   am
    64    71    69    1
    65    14    13    1
    66    70    69    1
    67    12    11    2
    68    63    62    1
    69   170   173   ar
    70   170   168   ar
    71   100    98   ar
    72   100   101   ar
    73   169   168   ar
    74    57    55    1
    75    95    94    2
    76    55    56    1
    77    55    52    1
    78    10    13    1
    79    10    11    1
    80    59    60    1
    81    59    62    1
    82    60    61    2
    83   103   101   ar
    84   103   105   ar
    85   159   163   am
    86   159   160    2
    87   163   164    1
    88    98    97   ar
    89    11    19   am
    90   168   167    1
    91   101    99   ar
    92   166   165    2
    93    54    53    2
    94    53    52    1
    95   150   149    2
    96    94    93    1
    97    52    51    1
    98   105   104   ar
    99   138   139   ar
   100   138   136   ar
   101    19    20    1
   102   164   165    1
   103   164   167    1
   104    97    99   ar
   105    97    96    1
   106   165   177   am
   107   139   137   ar
   108    99   102   ar
   109   149   148    1
   110    41    38    1
   111    92    93    1
   112    40    39    2
   113    25    23    1
   114    93    96    1
   115   104   102   ar
   116   136   134   ar
   117    51    44   am
   118    38    39    1
   119    38    37    1
   120   151   148    1
   121   151   152    1
   122   177   178    1
   123    20    23    1
   124    20    21    1
   125    23    24    1
   126   137   135   ar
   127   178   179    1
   128   148   147    1
   129    21    22    2
   130    37    28   am
   131   154   152   ar
   132   154   156   ar
   133   152   153   ar
   134    44    45    2
   135    44    43    1
   136    81    82    1
   137   134   135   ar
   138   134   133    1
   139    91    89    1
   140    88    89    2
   141    88    87    1
   142   179   180    2
   143    86    87    1
   144    86    85    1
   145    29    28    2
   146    28    27    1
   147    82    85    1
   148    82    83    1
   149    89    90    1
   150    42    43    1
   151   156   155   ar
   152   153   155   ar
   153   143   142    2
   154    33    35   ar
   155    33    31   ar
   156    30    27    1
   157    30    31    1
   158   133   130    1
   159    43    46    1
   160    83    84    2
   161    27    26    1
   162    35    36   ar
   163   132   131    2
   164    31    32   ar
   165   131   130    1
   166   142   141    1
   167    46    47    1
   168   130   129    1
   169   145   144    1
   170    36    34   ar
   171    32    34   ar
   172   141   144    1
   173   141   140    1
   174    47    48    1
   175   144   146    1
   176    50    48   ar
   177    48    49   ar
