@<TRIPOS>MOLECULE
tmp/4k8aA00.pdb
 108 100 0 0 0
SMALL
GASTEIGER

@<TRIPOS>ATOM
      1  N        -11.1910  -31.8060   48.1370 N.3    15  ILE15      -0.1231
      2  CA       -11.6310  -30.4070   48.1750 C.3    15  ILE15       0.1692
      3  C        -12.8200  -30.1120   47.2400 C.2    15  ILE15       0.2593
      4  O        -13.4650  -29.0650   47.3690 O.2    15  ILE15      -0.2718
      5  CB       -10.4510  -29.4260   47.9270 C.3    15  ILE15       0.0266
      6  CG1       -9.6670  -29.7800   46.6340 C.3    15  ILE15       0.0019
      7  CG2       -9.5440  -29.3360   49.1670 C.3    15  ILE15       0.0020
      8  CD1       -9.0550  -28.6260   45.9190 C.3    15  ILE15       0.0001
      9  N        -13.0930  -31.0260   46.3130 N.am   16  GLY16      -0.1942
     10  CA       -14.1880  -30.8690   45.3690 C.3    16  GLY16       0.2014
     11  C        -14.4680  -32.0910   44.5280 C.2    16  GLY16       0.2638
     12  O        -13.8210  -33.1330   44.6720 O.2    16  GLY16      -0.2714
     13  N        -15.4650  -31.9660   43.6590 N.am   17  GLU17      -0.1977
     14  CA       -15.8360  -33.0130   42.7240 C.3    17  GLU17       0.1602
     15  C        -15.6880  -32.4540   41.3280 C.2    17  GLU17       0.2287
     16  O        -15.9910  -31.2820   41.0930 O.2    17  GLU17      -0.2864
     17  CB       -17.2470  -33.5450   42.9830 C.3    17  GLU17       0.0415
     18  CG       -17.3480  -35.0300   42.6730 C.3    17  GLU17       0.1163
     19  CD       -18.5590  -35.7380   43.2500 C.2    17  GLU17       0.3649
     20  OE1      -18.4130  -36.3810   44.3160 O.co2  17  GLU17      -0.2457
     21  OE2      -19.6440  -35.6770   42.6240 O.co2  17  GLU17      -0.2457
     22  N        -11.4970  -34.0900   43.0600 N.3    23  VAL23      -0.1245
     23  CA       -10.3830  -33.1550   43.1590 C.3    23  VAL23       0.1561
     24  C         -9.9020  -33.1780   44.6150 C.2    23  VAL23       0.2260
     25  O        -10.7130  -33.1110   45.5450 O.2    23  VAL23      -0.2867
     26  CB       -10.7340  -31.7280   42.6580 C.3    23  VAL23       0.0252
     27  CG1       -9.5110  -30.8150   42.6790 C.3    23  VAL23       0.0019
     28  CG2      -11.3310  -31.7760   41.2600 C.3    23  VAL23       0.0019
     29  N         -3.4980  -28.8200   43.7600 N.3    37  ALA37      -0.1245
     30  CA        -4.7900  -29.4450   43.5530 C.3    37  ALA37       0.1562
     31  C         -4.5350  -30.6170   42.5840 C.2    37  ALA37       0.2260
     32  O         -3.8170  -30.4510   41.5930 O.2    37  ALA37      -0.2867
     33  CB        -5.7750  -28.4530   42.9650 C.3    37  ALA37       0.0290
     34  N         -6.3920  -33.3300   40.2810 N.3    39  LYS39      -0.1245
     35  CA        -7.5980  -33.7820   39.6020 C.3    39  LYS39       0.1561
     36  C         -7.3900  -35.2750   39.3340 C.2    39  LYS39       0.2260
     37  O         -6.3650  -35.6700   38.7630 O.2    39  LYS39      -0.2867
     38  CB        -7.8330  -33.0130   38.2890 C.3    39  LYS39       0.0271
     39  CG        -8.1050  -31.5250   38.4810 C.3    39  LYS39       0.0035
     40  CD        -8.7190  -30.8840   37.2430 C.3    39  LYS39       0.0206
     41  CE       -10.2180  -30.7310   37.3710 C.3    39  LYS39       0.1093
     42  NZ       -10.7090  -29.4120   36.8920 N.3    39  LYS39      -0.1314
     43  N         -5.8730  -20.6150   36.0270 N.3    69  VAL69      -0.1245
     44  CA        -5.2800  -21.7070   36.8060 C.3    69  VAL69       0.1561
     45  C         -4.0490  -22.2660   36.0650 C.2    69  VAL69       0.2260
     46  O         -4.1240  -22.5320   34.8680 O.2    69  VAL69      -0.2867
     47  CB        -6.3010  -22.8200   37.1890 C.3    69  VAL69       0.0252
     48  CG1       -5.7010  -23.7820   38.2180 C.3    69  VAL69       0.0019
     49  CG2       -7.5890  -22.2290   37.7310 C.3    69  VAL69       0.0019
     50  N         -2.4230  -29.1960   39.4500 N.3    84  MET84      -0.1230
     51  CA        -2.7060  -27.7800   39.1920 C.3    84  MET84       0.1702
     52  C         -2.4610  -26.9500   40.4270 C.2    84  MET84       0.2595
     53  O         -2.4670  -27.4770   41.5450 O.2    84  MET84      -0.2718
     54  CB        -4.1800  -27.5570   38.7830 C.3    84  MET84       0.0401
     55  CG        -4.8030  -28.7000   38.0360 C.3    84  MET84       0.0596
     56  SD        -5.8140  -28.1750   36.6420 S.3    84  MET84      -0.1393
     57  CE        -4.5070  -27.5900   35.4890 C.3    84  MET84       0.0692
     58  N         -2.3530  -25.6290   40.2210 N.am   85  GLU85      -0.1920
     59  CA        -2.2160  -24.6130   41.2650 C.3    85  GLU85       0.1949
     60  C         -3.4500  -24.6330   42.1880 C.2    85  GLU85       0.2659
     61  O         -4.5770  -24.7080   41.6910 O.2    85  GLU85      -0.2711
     62  CB        -1.9680  -23.2300   40.6020 C.2    85  GLU85       0.0111
     63  CG        -2.8140  -22.0530   41.0830 C.2    85  GLU85       0.0838
     64  CD        -2.4910  -20.7180   40.4330 C.2    85  GLU85       0.3877
     65  OE1       -2.6200  -20.6080   39.1910 O.co2  85  GLU85      -0.2406
     66  OE2       -2.1410  -19.7690   41.1740 O.co2  85  GLU85      -0.2406
     67  N         -3.2340  -24.6440   43.5230 N.am   86  LEU86      -0.1961
     68  CA        -4.3530  -24.6500   44.4770 C.3    86  LEU86       0.1728
     69  C         -5.0030  -23.2490   44.6590 C.2    86  LEU86       0.2616
     70  O         -4.2940  -22.2350   44.7390 O.2    86  LEU86      -0.2715
     71  CB        -3.9470  -25.2650   45.8320 C.3    86  LEU86       0.0311
     72  CG        -5.0470  -25.4020   46.9090 C.3    86  LEU86       0.0022
     73  CD1       -6.0930  -26.4400   46.5240 C.3    86  LEU86       0.0001
     74  CD2       -4.4620  -25.7830   48.2350 C.3    86  LEU86       0.0001
     75  N         -6.3590  -23.2180   44.6730 N.am   87  CYS87      -0.1954
     76  CA        -7.1930  -22.0410   44.9260 C.3    87  CYS87       0.1843
     77  C         -8.0070  -22.4670   46.1310 C.2    87  CYS87       0.2626
     78  O         -9.0320  -23.1350   45.9980 O.2    87  CYS87      -0.2714
     79  CB        -8.0720  -21.7070   43.7260 C.3    87  CYS87       0.0997
     80  SG        -7.1400  -21.3090   42.2310 S.3    87  CYS87      -0.0797
     81  N         -7.4470  -22.1790   47.3150 N.am   88  THR88      -0.1950
     82  CA        -7.9140  -22.5930   48.6450 C.3    88  THR88       0.1897
     83  C         -9.4070  -22.3220   48.9560 C.2    88  THR88       0.2313
     84  O        -10.0600  -23.1820   49.5530 O.2    88  THR88      -0.2863
     85  CB        -7.0290  -21.9710   49.7320 C.3    88  THR88       0.1794
     86  OG1       -7.1410  -20.5450   49.6720 O.3    88  THR88      -0.2208
     87  CG2       -5.5690  -22.3860   49.6070 C.3    88  THR88       0.0378
     88  N        -11.9620  -22.2160   46.9720 N.3    90  GLY90      -0.1210
     89  CA       -12.8250  -22.9950   46.0850 C.3    90  GLY90       0.1956
     90  C        -13.6030  -22.2630   45.0120 C.2    90  GLY90       0.2611
     91  O        -13.1660  -21.2220   44.5200 O.2    90  GLY90      -0.2717
     92  N        -14.7590  -22.8440   44.6260 N.am   91  GLU91      -0.1979
     93  CA       -15.7030  -22.3680   43.6000 C.3    91  GLU91       0.1602
     94  C        -16.2450  -20.9680   43.8950 C.2    91  GLU91       0.2287
     95  O        -16.5430  -20.6730   45.0570 O.2    91  GLU91      -0.2864
     96  CB       -16.8720  -23.3520   43.5210 C.3    91  GLU91       0.0415
     97  CG       -17.2440  -23.7890   42.1150 C.3    91  GLU91       0.1163
     98  CD       -17.6450  -25.2520   42.0290 C.2    91  GLU91       0.3649
     99  OE1      -18.8350  -25.5280   41.7450 O.co2  91  GLU91      -0.2457
    100  OE2      -16.7760  -26.1280   42.2630 O.co2  91  GLU91      -0.2457
    101  N        -12.5510  -20.0770   40.1080 N.3   138  LEU138     -0.1245
    102  CA       -11.9970  -20.4400   41.4150 C.3   138  LEU138      0.1561
    103  C        -11.4960  -19.2140   42.1770 C.2   138  LEU138      0.2260
    104  O        -11.0630  -18.2420   41.5640 O.2   138  LEU138     -0.2867
    105  CB       -10.8780  -21.4830   41.2910 C.3   138  LEU138      0.0270
    106  CG       -11.2860  -22.8080   40.6590 C.3   138  LEU138      0.0019
    107  CD1      -10.0900  -23.5480   40.1890 C.3   138  LEU138      0.0001
    108  CD2      -12.1110  -23.6620   41.6140 C.3   138  LEU138      0.0001
@<TRIPOS>BOND
     1    46    45    2
     2    57    56    1
     3    43    44    1
     4    45    44    1
     5    56    55    1
     6    44    47    1
     7    42    41    1
     8    47    49    1
     9    47    48    1
    10    40    41    1
    11    40    39    1
    12    55    54    1
    13    38    39    1
    14    38    35    1
    15    37    36    2
    16    54    51    1
    17    65    64   ar
    18    51    50    1
    19    51    52    1
    20    36    35    1
    21    35    34    1
    22   101   102    1
    23   107   106    1
    24    58    52   am
    25    58    59    1
    26    52    53    2
    27    64    63    1
    28    64    66   ar
    29    62    63    2
    30    62    59    1
    31   106   105    1
    32   106   108    1
    33    16    15    2
    34    28    26    1
    35    59    60    1
    36   105   102    1
    37    15    14    1
    38   102   103    1
    39   104   103    2
    40    32    31    2
    41    61    60    2
    42    99    98   ar
    43    98    97    1
    44    98   100   ar
    45    97    96    1
    46    60    67   am
    47    80    79    1
    48    31    30    1
    49    21    19   ar
    50    26    27    1
    51    26    23    1
    52    18    17    1
    53    18    19    1
    54    14    17    1
    55    14    13    1
    56    33    30    1
    57    22    23    1
    58    23    24    1
    59    19    20   ar
    60    96    93    1
    61    67    68    1
    62    30    29    1
    63    93    94    1
    64    93    92    1
    65    13    11   am
    66    79    76    1
    67    94    95    2
    68    68    69    1
    69    68    71    1
    70    91    90    2
    71    11    12    2
    72    11    10    1
    73    24    25    2
    74    92    90   am
    75    69    75   am
    76    69    70    2
    77    75    76    1
    78    76    77    1
    79    90    89    1
    80    10     9    1
    81    71    72    1
    82     8     6    1
    83    78    77    2
    84    89    88    1
    85    77    81   am
    86     9     3   am
    87    73    72    1
    88     6     5    1
    89    72    74    1
    90     3     4    2
    91     3     2    1
    92    81    82    1
    93     5     2    1
    94     5     7    1
    95     1     2    1
    96    82    83    1
    97    82    85    1
    98    83    84    2
    99    87    85    1
   100    86    85    1
