@<TRIPOS>MOLECULE
tmp/4k8bA01.pdb
 167 162 0 0 0
SMALL
GASTEIGER

@<TRIPOS>ATOM
      1  N         33.6310   62.4590   47.4290 N.3    39  GLN39      -0.1245
      2  CA        33.4930   61.2510   48.2550 C.3    39  GLN39       0.1566
      3  C         33.4510   59.9490   47.4520 C.2    39  GLN39       0.2260
      4  O         33.0680   59.9640   46.2870 O.2    39  GLN39      -0.2867
      5  CB        32.1750   61.3620   49.0550 C.3    39  GLN39       0.0367
      6  CG        32.2200   60.8730   50.5190 C.3    39  GLN39       0.0905
      7  CD        30.8560   60.8490   51.2250 C.2    39  GLN39       0.2608
      8  OE1       29.9120   61.5910   50.8940 O.2    39  GLN39      -0.2717
      9  NE2       30.7290   60.0170   52.2540 N.am   39  GLN39      -0.0878
     10  N         22.2170   57.3630   51.7230 N.3    54  TYR54      -0.1227
     11  CA        21.8240   58.7220   51.3900 C.3    54  TYR54       0.1736
     12  C         22.9430   59.6940   51.7800 C.2    54  TYR54       0.2595
     13  O         23.1230   60.6990   51.0910 O.2    54  TYR54      -0.2718
     14  CB        20.4980   59.1060   52.0670 C.3    54  TYR54       0.0548
     15  CG        19.9570   60.4450   51.6020 C.ar   54  TYR54      -0.0200
     16  CD1       20.3900   61.6370   52.1820 C.ar   54  TYR54      -0.0009
     17  CD2       19.0110   60.5210   50.5840 C.ar   54  TYR54      -0.0009
     18  CE1       19.9370   62.8700   51.7210 C.ar   54  TYR54       0.0417
     19  CE2       18.5380   61.7500   50.1280 C.ar   54  TYR54       0.0417
     20  CZ        19.0040   62.9220   50.6990 C.ar   54  TYR54       0.1957
     21  OH        18.5410   64.1300   50.2420 O.3    54  TYR54      -0.2866
     22  N         23.7070   59.4030   52.8610 N.am   55  HIS55      -0.1975
     23  CA        24.7620   60.3110   53.3240 C.3    55  HIS55       0.1656
     24  C         25.9520   60.4160   52.3310 C.2    55  HIS55       0.2291
     25  O         26.7340   61.3700   52.3990 O.2    55  HIS55      -0.2864
     26  CB        25.2150   59.9880   54.7510 C.3    55  HIS55       0.0771
     27  CG        25.8840   58.6650   54.9160 C.ar   55  HIS55       0.0820
     28  ND1       27.2450   58.4990   54.6770 N.ar   55  HIS55      -0.2267
     29  CD2       25.3720   57.4900   55.3350 C.ar   55  HIS55       0.1154
     30  CE1       27.5010   57.2260   54.9320 C.ar   55  HIS55       0.1986
     31  NE2       26.4020   56.5790   55.3300 N.ar   55  HIS55      -0.2212
     32  N         15.3380   59.1150   53.0960 N.3    76  VAL76      -0.1231
     33  CA        16.2630   59.9050   53.9220 C.3    76  VAL76       0.1692
     34  C         16.2510   59.3650   55.3550 C.2    76  VAL76       0.2592
     35  O         17.3070   59.2810   55.9890 O.2    76  VAL76      -0.2718
     36  CB        15.9710   61.4290   53.8780 C.3    76  VAL76       0.0266
     37  CG1       17.1710   62.2280   54.3690 C.3    76  VAL76       0.0020
     38  CG2       15.5790   61.8840   52.4770 C.3    76  VAL76       0.0020
     39  N         15.0500   58.9760   55.8390 N.am   77  ASP77      -0.1960
     40  CA        14.8070   58.4090   57.1700 C.3    77  ASP77       0.1840
     41  C         15.5320   57.0720   57.3690 C.2    77  ASP77       0.2622
     42  O         15.9990   56.8010   58.4660 O.2    77  ASP77      -0.2715
     43  CB        13.2930   58.2810   57.4580 C.3    77  ASP77       0.1450
     44  CG        12.5910   59.5950   57.7680 C.2    77  ASP77       0.3671
     45  OD1       12.6200   60.5050   56.9080 O.co2  77  ASP77      -0.2456
     46  OD2       11.9690   59.6940   58.8430 O.co2  77  ASP77      -0.2456
     47  N         15.6660   56.2640   56.3140 N.am   78  GLN78      -0.1963
     48  CA        16.3860   54.9980   56.4050 C.3    78  GLN78       0.1733
     49  C         17.8350   55.1090   55.9070 C.2    78  GLN78       0.2616
     50  O         18.5830   54.1300   56.0180 O.2    78  GLN78      -0.2715
     51  CB        15.6400   53.9040   55.6380 C.3    78  GLN78       0.0408
     52  CG        14.7510   53.0270   56.5180 C.3    78  GLN78       0.0908
     53  CD        13.7290   52.2530   55.7150 C.2    78  GLN78       0.2608
     54  OE1       12.5570   52.1540   56.1000 O.2    78  GLN78      -0.2717
     55  NE2       14.1370   51.7040   54.5700 N.am   78  GLN78      -0.0878
     56  N         18.2300   56.3040   55.3710 N.am   79  ASP79      -0.1971
     57  CA        19.5520   56.6200   54.8000 C.3    79  ASP79       0.1709
     58  C         19.8460   55.6630   53.6270 C.2    79  ASP79       0.2293
     59  O         20.9370   55.1000   53.5000 O.2    79  ASP79      -0.2864
     60  CB        20.6380   56.6020   55.8990 C.3    79  ASP79       0.1436
     61  CG        22.0710   56.9280   55.5060 C.2    79  ASP79       0.3671
     62  OD1       22.2700   57.8440   54.6790 O.co2  79  ASP79      -0.2456
     63  OD2       22.9930   56.2990   56.0670 O.co2  79  ASP79      -0.2456
     64  N         21.6370   45.4790   63.3890 N.3   121  ARG121     -0.1245
     65  CA        22.9720   45.3910   63.9870 C.3   121  ARG121      0.1563
     66  C         23.6320   44.0340   63.7980 C.2   121  ARG121      0.2260
     67  O         22.9540   43.0200   63.6450 O.2   121  ARG121     -0.2867
     68  CB        22.9260   45.7470   65.4830 C.3   121  ARG121      0.0307
     69  CG        22.4340   47.1530   65.7820 C.3   121  ARG121      0.0489
     70  CD        23.5200   48.1850   65.6120 C.3   121  ARG121      0.2205
     71  NE        22.9850   49.5390   65.7130 N.pl3 121  ARG121     -0.0865
     72  CZ        23.1610   50.3280   66.7620 C.cat 121  ARG121      0.5346
     73  NH1       23.8640   49.9080   67.8040 N.pl3 121  ARG121      0.1354
     74  NH2       22.6360   51.5470   66.7760 N.pl3 121  ARG121      0.1354
     75  N         38.0080   52.4080   62.7770 N.3   130  VAL130     -0.1245
     76  CA        37.0160   53.1360   61.9840 C.3   130  VAL130      0.1561
     77  C         37.5080   53.3770   60.5340 C.2   130  VAL130      0.2260
     78  O         36.7080   53.2770   59.6080 O.2   130  VAL130     -0.2867
     79  CB        36.5430   54.4300   62.7040 C.3   130  VAL130      0.0252
     80  CG1       37.6690   55.4560   62.8470 C.3   130  VAL130      0.0019
     81  CG2       35.3290   55.0440   62.0220 C.3   130  VAL130      0.0019
     82  N         36.8650   50.6610   57.7720 N.3   133  LEU133     -0.1231
     83  CA        35.5030   50.6050   57.2790 C.3   133  LEU133      0.1693
     84  C         35.0770   51.8590   56.5310 C.2   133  LEU133      0.2592
     85  O         34.0490   51.8250   55.8500 O.2   133  LEU133     -0.2718
     86  CB        34.5270   50.2650   58.4130 C.3   133  LEU133      0.0284
     87  CG        34.5990   48.8560   59.0340 C.3   133  LEU133      0.0019
     88  CD1       34.9550   47.7720   58.0270 C.3   133  LEU133      0.0001
     89  CD2       35.2950   48.8310   60.3380 C.3   133  LEU133      0.0001
     90  N         35.8440   52.9600   56.6320 N.am  134  LYS134     -0.1966
     91  CA        35.5050   54.2030   55.9320 C.3   134  LYS134      0.1728
     92  C         35.3660   53.9620   54.4360 C.2   134  LYS134      0.2617
     93  O         36.1790   53.2320   53.8630 O.2   134  LYS134     -0.2715
     94  CB        36.5320   55.3280   56.1980 C.3   134  LYS134      0.0311
     95  CG        36.4240   56.0390   57.5650 C.3   134  LYS134      0.0038
     96  CD        35.0280   56.6270   57.9340 C.3   134  LYS134      0.0206
     97  CE        34.5040   57.7570   57.0780 C.3   134  LYS134      0.1093
     98  NZ        33.1180   58.1250   57.4720 N.3   134  LYS134     -0.1314
     99  N         34.3100   54.5180   53.8420 N.am  135  GLY135     -0.1940
    100  CA        34.0380   54.4020   52.4120 C.3   135  GLY135      0.2014
    101  C         33.5020   53.0590   51.9630 C.2   135  GLY135      0.2640
    102  O         33.5590   52.7510   50.7700 O.2   135  GLY135     -0.2714
    103  N         32.9720   52.2490   52.9110 N.am  136  SER136     -0.1935
    104  CA        32.3850   50.9390   52.6110 C.3   136  SER136      0.2055
    105  C         30.8700   50.9230   52.8210 C.2   136  SER136      0.2643
    106  O         30.2450   49.8630   52.7300 O.2   136  SER136     -0.2714
    107  CB        33.0930   49.8210   53.3700 C.3   136  SER136      0.2130
    108  OG        34.3210   49.4930   52.7390 O.3   136  SER136     -0.2179
    109  N         30.2820   52.1140   53.0690 N.am  137  SER137     -0.1949
    110  CA        28.8440   52.3240   53.2200 C.3   137  SER137      0.1924
    111  C         28.2160   52.0220   51.8670 C.2   137  SER137      0.2314
    112  O         28.7830   52.3920   50.8230 O.2   137  SER137     -0.2863
    113  CB        28.5530   53.7630   53.6220 C.3   137  SER137      0.2116
    114  OG        29.1280   54.6730   52.7000 O.3   137  SER137     -0.2180
    115  N         25.5470   48.0860   54.4400 N.3   152  PHE152     -0.1227
    116  CA        26.3350   48.7630   55.4780 C.3   152  PHE152      0.1736
    117  C         26.0520   50.2610   55.5030 C.2   152  PHE152      0.2595
    118  O         26.2180   50.9420   54.4920 O.2   152  PHE152     -0.2718
    119  CB        27.8310   48.4660   55.3250 C.3   152  PHE152      0.0547
    120  CG        28.7850   49.0510   56.3470 C.ar  152  PHE152     -0.0202
    121  CD1       28.4070   49.1940   57.6820 C.ar  152  PHE152     -0.0042
    122  CD2       30.0910   49.3800   55.9930 C.ar  152  PHE152     -0.0042
    123  CE1       29.2940   49.7270   58.6220 C.ar  152  PHE152     -0.0003
    124  CE2       30.9930   49.8750   56.9480 C.ar  152  PHE152     -0.0003
    125  CZ        30.5910   50.0350   58.2580 C.ar  152  PHE152     -0.0000
    126  N         25.5910   50.7570   56.6620 N.am  153  ARG153     -0.1966
    127  CA        25.1630   52.1380   56.8360 C.3   153  ARG153      0.1729
    128  C         26.0760   52.9760   57.7380 C.2   153  ARG153      0.2616
    129  O         26.4940   54.0660   57.3400 O.2   153  ARG153     -0.2715
    130  CB        23.7030   52.1290   57.3480 C.3   153  ARG153      0.0348
    131  CG        23.1570   53.4680   57.8170 C.3   153  ARG153      0.0492
    132  CD        21.6610   53.4210   57.9940 C.3   153  ARG153      0.2205
    133  NE        21.2570   52.4830   59.0400 N.pl3 153  ARG153     -0.0865
    134  CZ        20.0070   52.0870   59.2510 C.cat 153  ARG153      0.5346
    135  NH1       19.0190   52.5390   58.4830 N.pl3 153  ARG153      0.1354
    136  NH2       19.7350   51.2260   60.2250 N.pl3 153  ARG153      0.1354
    137  N         26.3190   52.4980   58.9700 N.am  154  ALA154     -0.1963
    138  CA        27.0880   53.2110   59.9720 C.3   154  ALA154      0.1728
    139  C         27.8970   52.2530   60.8330 C.2   154  ALA154      0.2616
    140  O         27.5760   51.0710   60.8970 O.2   154  ALA154     -0.2715
    141  CB        26.1480   54.0350   60.8450 C.3   154  ALA154      0.0334
    142  N         28.9570   52.7630   61.4970 N.am  155  ALA155     -0.1963
    143  CA        29.8000   51.9460   62.3650 C.3   155  ALA155      0.1728
    144  C         29.4950   52.2070   63.8250 C.2   155  ALA155      0.2616
    145  O         29.3210   53.3630   64.2230 O.2   155  ALA155     -0.2715
    146  CB        31.2720   52.1960   62.0720 C.3   155  ALA155      0.0334
    147  N         29.3900   51.1220   64.6110 N.am  156  VAL156     -0.1963
    148  CA        29.1410   51.1810   66.0570 C.3   156  VAL156      0.1727
    149  C         30.5230   51.0570   66.7150 C.2   156  VAL156      0.2616
    150  O         31.0800   49.9590   66.8140 O.2   156  VAL156     -0.2715
    151  CB        28.1200   50.1240   66.5840 C.3   156  VAL156      0.0290
    152  CG1       27.5900   50.5290   67.9440 C.3   156  VAL156      0.0023
    153  CG2       26.9640   49.9130   65.6130 C.3   156  VAL156      0.0023
    154  N         31.1030   52.1990   67.0840 N.am  157  CYS157     -0.1968
    155  CA        32.4470   52.2220   67.6410 C.3   157  CYS157      0.1712
    156  C         32.5480   52.8890   68.9920 C.2   157  CYS157      0.2296
    157  O         31.6760   53.6620   69.3850 O.2   157  CYS157     -0.2864
    158  CB        33.4330   52.8340   66.6490 C.3   157  CYS157      0.0983
    159  SG        32.8070   54.2770   65.7480 S.3   157  CYS157     -0.0798
    160  N         26.1600   48.8320   61.7590 N.3   166  ASP166     -0.1239
    161  CA        24.7560   49.2050   61.6000 C.3   166  ASP166      0.1674
    162  C         24.4520   49.1750   60.0920 C.2   166  ASP166      0.2266
    163  O         25.1720   49.7830   59.2890 O.2   166  ASP166     -0.2867
    164  CB        24.4530   50.5800   62.2220 C.3   166  ASP166      0.1410
    165  CG        23.0390   51.0720   61.9700 C.2   166  ASP166      0.3668
    166  OD1       22.0910   50.4450   62.4790 O.co2 166  ASP166     -0.2456
    167  OD2       22.8830   52.0920   61.2730 O.co2 166  ASP166     -0.2456
@<TRIPOS>BOND
     1     4     3    2
     2     1     2    1
     3     3     2    1
     4     2     5    1
     5     5     6    1
     6    19    17   ar
     7    19    20   ar
     8    21    20    1
     9     6     7    1
    10    17    15   ar
    11    20    18   ar
    12   102   101    2
    13   112   111    2
    14     8     7    2
    15    13    12    2
    16     7     9   am
    17    11    10    1
    18    11    12    1
    19    11    14    1
    20    15    14    1
    21    15    16   ar
    22    18    16   ar
    23    12    22   am
    24   111   110    1
    25   101   100    1
    26   101   103   am
    27    24    25    2
    28    24    23    1
    29   100    99    1
    30    38    36    1
    31   104   105    1
    32   104   103    1
    33   104   107    1
    34   114   113    1
    35   106   105    2
    36   108   107    1
    37   105   109   am
    38    22    23    1
    39   109   110    1
    40    32    33    1
    41   110   113    1
    42    23    26    1
    43    59    58    2
    44    58    57    1
    45    99    92   am
    46    93    92    2
    47    36    33    1
    48    36    37    1
    49    33    34    1
    50    92    91    1
    51   115   116    1
    52   118   117    2
    53    55    53   am
    54    28    27   ar
    55    28    30   ar
    56    62    61   ar
    57    26    27    1
    58    57    56    1
    59    57    60    1
    60    27    29   ar
    61    30    31   ar
    62   119   116    1
    63   119   120    1
    64    31    29   ar
    65    34    39   am
    66    34    35    2
    67    56    49   am
    68   116   117    1
    69   117   126   am
    70    61    60    1
    71    61    63   ar
    72    51    48    1
    73    51    52    1
    74    53    54    2
    75    53    52    1
    76    39    40    1
    77    85    84    2
    78    49    50    2
    79    49    48    1
    80    91    94    1
    81    91    90    1
    82   122   120   ar
    83   122   124   ar
    84    94    95    1
    85    47    48    1
    86    47    41   am
    87   120   121   ar
    88    84    90   am
    89    84    83    1
    90   126   127    1
    91   127   130    1
    92   127   128    1
    93    45    44   ar
    94   124   125   ar
    95    97    98    1
    96    97    96    1
    97    40    41    1
    98    40    43    1
    99    83    82    1
   100    83    86    1
   101   129   128    2
   102   130   131    1
   103    41    42    2
   104    43    44    1
   105    95    96    1
   106   121   123   ar
   107   128   137   am
   108    44    46   ar
   109   131   132    1
   110   132   133    1
   111    88    87    1
   112   125   123   ar
   113    86    87    1
   114   135   134    1
   115   137   138    1
   116    87    89    1
   117   133   134    2
   118   134   136    1
   119   163   162    2
   120    78    77    2
   121   138   139    1
   122   138   141    1
   123   162   161    1
   124    77    76    1
   125   139   140    2
   126   139   142   am
   127   167   165   ar
   128   142   143    1
   129   161   160    1
   130   161   164    1
   131   165   164    1
   132   165   166   ar
   133    76    79    1
   134    76    75    1
   135    81    79    1
   136   146   143    1
   137   143   144    1
   138    79    80    1
   139    64    65    1
   140    67    66    2
   141    66    65    1
   142   144   145    2
   143   144   147   am
   144    65    68    1
   145   147   148    1
   146    68    69    1
   147    70    71    1
   148    70    69    1
   149   153   151    1
   150    71    72    2
   151   159   158    1
   152   148   151    1
   153   148   149    1
   154   151   152    1
   155   158   155    1
   156   149   150    2
   157   149   154   am
   158    72    74    1
   159    72    73    1
   160   154   155    1
   161   155   156    1
   162   156   157    2
