@<TRIPOS>MOLECULE
tmp/4k8cA01.pdb
 136 122 0 0 0
SMALL
GASTEIGER

@<TRIPOS>ATOM
      1  N         56.3450    7.7590   31.2940 N.3   121  ARG121     -0.1245
      2  CA        57.3760    8.1570   30.3280 C.3   121  ARG121      0.1563
      3  C         58.5290    7.1630   30.3330 C.2   121  ARG121      0.2260
      4  O         58.9880    6.6950   31.3960 O.2   121  ARG121     -0.2867
      5  CB        57.8520    9.6000   30.5680 C.3   121  ARG121      0.0307
      6  CG        59.1160    9.7580   31.4110 C.3   121  ARG121      0.0489
      7  CD        58.8340    9.5390   32.8880 C.3   121  ARG121      0.2205
      8  NE        60.0230    9.7070   33.7170 N.pl3 121  ARG121     -0.0865
      9  CZ        60.9060    8.7450   33.9660 C.cat 121  ARG121      0.5346
     10  NH1       60.7410    7.5390   33.4240 N.pl3 121  ARG121      0.1354
     11  NH2       61.9610    8.9910   34.7400 N.pl3 121  ARG121      0.1354
     12  N         62.1600    8.0380   44.7530 N.3   207  ASN207     -0.1240
     13  CA        60.7730    7.5780   44.6240 C.3   207  ASN207      0.1653
     14  C         60.6240    6.1800   45.2640 C.2   207  ASN207      0.2266
     15  O         61.6040    5.6050   45.7700 O.2   207  ASN207     -0.2867
     16  CB        60.2810    7.6250   43.1720 C.3   207  ASN207      0.1155
     17  CG        61.0250    6.6670   42.2690 C.2   207  ASN207      0.2627
     18  OD1       61.7470    5.7950   42.7400 O.2   207  ASN207     -0.2716
     19  ND2       60.8480    6.8200   40.9660 N.am  207  ASN207     -0.0877
     20  N         62.8520    3.4070   43.7120 N.3   210  GLU210     -0.1245
     21  CA        64.2640    3.6320   44.0200 C.3   210  GLU210      0.1567
     22  C         64.6140    3.2250   45.4410 C.2   210  GLU210      0.2260
     23  O         65.6770    2.6440   45.6800 O.2   210  GLU210     -0.2867
     24  CB        64.6810    5.0690   43.7730 C.3   210  GLU210      0.0388
     25  CG        64.7480    5.4070   42.2970 C.3   210  GLU210      0.1160
     26  CD        64.4640    6.8720   42.0070 C.2   210  GLU210      0.3649
     27  OE1       64.5530    7.6990   42.9390 O.co2 210  GLU210     -0.2457
     28  OE2       64.1450    7.1940   40.8430 O.co2 210  GLU210     -0.2457
     29  N         59.2990   10.1330   47.5380 N.3   237  THR237     -0.1218
     30  CA        58.0580   10.3910   46.8020 C.3   237  THR237      0.1862
     31  C         57.2590    9.1520   46.5230 C.2   237  THR237      0.2287
     32  O         57.7990    8.1200   46.3680 O.2   237  THR237     -0.2866
     33  CB        58.2330   11.1930   45.5140 C.3   237  THR237      0.1770
     34  OG1       59.0090   10.4740   44.6180 O.3   237  THR237     -0.2211
     35  CG2       58.9080   12.4900   45.7910 C.3   237  THR237      0.0375
     36  N         54.3440    9.1760   44.2070 N.3   238  SER238     -0.1202
     37  CA        53.4530    9.4010   43.1050 C.3   238  SER238      0.2020
     38  C         52.1320   10.0320   43.5860 C.2   238  SER238      0.2618
     39  O         52.2010   10.9940   44.2510 O.2   238  SER238     -0.2717
     40  CB        53.2600    8.1640   42.2450 C.3   238  SER238      0.2103
     41  OG        54.4930    7.6970   41.7380 O.3   238  SER238     -0.2182
     42  N         51.0080    9.4840   43.1630 N.am  239  GLU239     -0.1979
     43  CA        49.6980   10.0390   43.5370 C.3   239  GLU239      0.1602
     44  C         49.4470   10.0520   45.0500 C.2   239  GLU239      0.2287
     45  O         48.5250   10.7170   45.5150 O.2   239  GLU239     -0.2864
     46  CB        48.5570    9.3100   42.8080 C.3   239  GLU239      0.0415
     47  CG        48.2740    7.8940   43.3090 C.3   239  GLU239      0.1163
     48  CD        49.1170    6.8140   42.6440 C.2   239  GLU239      0.3649
     49  OE1       50.1150    7.1270   41.9520 O.co2 239  GLU239     -0.2457
     50  OE2       48.7700    5.6230   42.8140 O.co2 239  GLU239     -0.2457
     51  N         51.5910   11.2400   47.2140 N.3   241  GLY241     -0.1225
     52  CA        52.3620   12.3410   47.7810 C.3   241  GLY241      0.1811
     53  C         53.7990   11.9920   48.1050 C.2   241  GLY241      0.2280
     54  O         54.5300   11.4990   47.2450 O.2   241  GLY241     -0.2866
     55  N         49.5990   14.5830   47.7340 N.3   255  ALA255     -0.1231
     56  CA        49.6440   15.0650   46.3580 C.3   255  ALA255      0.1694
     57  C         48.5130   16.0760   46.1550 C.2   255  ALA255      0.2591
     58  O         47.4620   15.9740   46.7830 O.2   255  ALA255     -0.2718
     59  CB        49.4930   13.9060   45.3860 C.3   255  ALA255      0.0304
     60  N         48.7380   17.0570   45.2850 N.am  256  ILE256     -0.1980
     61  CA        47.6850   18.0170   44.9370 C.3   256  ILE256      0.1595
     62  C         46.6800   17.3440   43.9960 C.2   256  ILE256      0.2287
     63  O         46.9640   16.2800   43.4240 O.2   256  ILE256     -0.2864
     64  CB        48.2550   19.3000   44.2720 C.3   256  ILE256      0.0276
     65  CG1       48.8270   18.9860   42.8820 C.3   256  ILE256      0.0022
     66  CG2       49.3160   19.9570   45.1560 C.3   256  ILE256      0.0022
     67  CD1       49.0610   20.2070   42.0090 C.3   256  ILE256      0.0001
     68  N         44.8860   17.0480   40.5110 N.3   258  ILE258     -0.1245
     69  CA        45.2980   17.3160   39.1300 C.3   258  ILE258      0.1561
     70  C         44.1550   17.0710   38.1420 C.2   258  ILE258      0.2260
     71  O         43.2290   16.2910   38.4190 O.2   258  ILE258     -0.2867
     72  CB        46.5310   16.4690   38.7240 C.3   258  ILE258      0.0252
     73  CG1       46.2250   14.9670   38.8260 C.3   258  ILE258      0.0019
     74  CG2       47.7490   16.8540   39.5630 C.3   258  ILE258      0.0019
     75  CD1       47.2590   14.0790   38.1720 C.3   258  ILE258      0.0001
     76  N         46.9660   13.1140   34.3280 N.3   261  VAL261     -0.1245
     77  CA        48.4080   12.9400   34.1090 C.3   261  VAL261      0.1561
     78  C         48.6750   12.9780   32.6090 C.2   261  VAL261      0.2260
     79  O         48.4670   11.9840   31.9040 O.2   261  VAL261     -0.2867
     80  CB        48.9970   11.6420   34.7210 C.3   261  VAL261      0.0252
     81  CG1       50.5090   11.6290   34.5450 C.3   261  VAL261      0.0019
     82  CG2       48.6320   11.5010   36.1960 C.3   261  VAL261      0.0019
     83  N         54.2120   12.4350   32.9240 N.3   264  THR264     -0.1218
     84  CA        54.8870   12.4500   34.2210 C.3   264  THR264      0.1862
     85  C         56.3690   12.8890   34.1960 C.2   264  THR264      0.2287
     86  O         56.9880   13.0500   35.2560 O.2   264  THR264     -0.2866
     87  CB        54.7340   11.0990   34.9420 C.3   264  THR264      0.1770
     88  OG1       54.9360   11.2930   36.3420 O.3   264  THR264     -0.2211
     89  CG2       55.7480   10.0740   34.4140 C.3   264  THR264      0.0375
     90  N         59.5370   14.7420   34.5490 N.3   266  GLY266     -0.1210
     91  CA        59.9100   15.8610   35.4020 C.3   266  GLY266      0.1956
     92  C         59.3530   15.8530   36.8030 C.2   266  GLY266      0.2612
     93  O         59.7640   16.6850   37.6040 O.2   266  GLY266     -0.2717
     94  N         58.4440   14.9180   37.1130 N.am  267  ALA267     -0.1965
     95  CA        57.7680   14.9190   38.4300 C.3   267  ALA267      0.1728
     96  C         58.7520   14.9700   39.6030 C.2   267  ALA267      0.2616
     97  O         58.7080   15.8740   40.4260 O.2   267  ALA267     -0.2715
     98  CB        56.8560   13.7180   38.5710 C.3   267  ALA267      0.0334
     99  N         59.6380   13.9790   39.6830 N.am  268  GLY268     -0.1955
    100  CA        60.5920   13.9130   40.7640 C.3   268  GLY268      0.1869
    101  C         61.5330   15.1050   40.7480 C.2   268  GLY268      0.2309
    102  O         61.8910   15.6290   41.8040 O.2   268  GLY268     -0.2863
    103  N         59.6090   17.9720   42.1780 N.3   271  PHE271     -0.1241
    104  CA        59.5150   17.7730   43.6090 C.3   271  PHE271      0.1605
    105  C         60.8010   18.2790   44.2860 C.2   271  PHE271      0.2264
    106  O         60.7600   18.9980   45.2820 O.2   271  PHE271     -0.2867
    107  CB        59.2340   16.3130   43.9920 C.3   271  PHE271      0.0534
    108  CG        59.1210   16.1090   45.4810 C.ar  271  PHE271     -0.0203
    109  CD1       57.9000   16.2950   46.1140 C.ar  271  PHE271     -0.0042
    110  CD2       60.2330   15.8160   46.2670 C.ar  271  PHE271     -0.0042
    111  CE1       57.7890   16.1610   47.4870 C.ar  271  PHE271     -0.0003
    112  CE2       60.1340   15.6830   47.6500 C.ar  271  PHE271     -0.0003
    113  CZ        58.9030   15.8590   48.2540 C.ar  271  PHE271     -0.0000
    114  N         55.4350   18.9490   46.2910 N.3   293  CYS293     -0.1235
    115  CA        54.2210   18.3690   45.7190 C.3   293  CYS293      0.1677
    116  C         53.5040   19.3500   44.7790 C.2   293  CYS293      0.2270
    117  O         53.0010   18.9720   43.7370 O.2   293  CYS293     -0.2867
    118  CB        53.2940   17.8450   46.8220 C.3   293  CYS293      0.0956
    119  SG        53.9390   16.3380   47.5870 S.3   293  CYS293     -0.0801
    120  N         55.7190   19.5020   41.4900 N.3   296  ALA296     -0.1231
    121  CA        55.6290   18.2300   40.7840 C.3   296  ALA296      0.1694
    122  C         54.2530   18.0270   40.1520 C.2   296  ALA296      0.2592
    123  O         54.1430   17.5960   39.0070 O.2   296  ALA296     -0.2718
    124  CB        55.9430   17.0940   41.7280 C.3   296  ALA296      0.0304
    125  N         53.1940   18.3120   40.9020 N.am  297  GLY297     -0.1957
    126  CA        51.8430   18.2010   40.3550 C.3   297  GLY297      0.1869
    127  C         51.5380   19.1150   39.1720 C.2   297  GLY297      0.2309
    128  O         50.7220   18.7860   38.3030 O.2   297  GLY297     -0.2863
    129  N         53.4190   17.5620   35.7970 N.3   300  ILE300     -0.1245
    130  CA        52.8420   16.3650   35.1860 C.3   300  ILE300      0.1561
    131  C         51.5860   16.6410   34.3750 C.2   300  ILE300      0.2260
    132  O         51.0800   15.7460   33.7180 O.2   300  ILE300     -0.2867
    133  CB        52.6010   15.2390   36.2080 C.3   300  ILE300      0.0252
    134  CG1       51.4540   15.6080   37.1660 C.3   300  ILE300      0.0019
    135  CG2       53.9020   14.9410   36.9410 C.3   300  ILE300      0.0019
    136  CD1       51.1580   14.5250   38.1880 C.3   300  ILE300      0.0001
@<TRIPOS>BOND
     1     2     3    1
     2     2     5    1
     3     2     1    1
     4     3     4    2
     5     5     6    1
     6     6     7    1
     7    79    78    2
     8    78    77    1
     9     7     8    1
    10    83    84    1
    11    10     9    1
    12     8     9    2
    13   132   131    2
    14     9    11    1
    15    77    76    1
    16    77    80    1
    17    85    84    1
    18    85    86    2
    19    84    87    1
    20   131   130    1
    21    89    87    1
    22    81    80    1
    23    90    91    1
    24    80    82    1
    25    87    88    1
    26   130   129    1
    27   130   133    1
    28    91    92    1
    29   133   135    1
    30   133   134    1
    31    92    94   am
    32    92    93    2
    33    94    95    1
    34   134   136    1
    35    70    71    2
    36    70    69    1
    37    75    73    1
    38   128   127    2
    39    95    98    1
    40    95    96    1
    41    72    73    1
    42    72    69    1
    43    72    74    1
    44   123   122    2
    45    69    68    1
    46   127   126    1
    47    96    99   am
    48    96    97    2
    49    99   100    1
    50   122   121    1
    51   122   125   am
    52   126   125    1
    53   101   100    1
    54   101   102    2
    55   121   120    1
    56   121   124    1
    57    28    26   ar
    58    19    17   am
    59    41    40    1
    60    49    48   ar
    61    26    25    1
    62    26    27   ar
    63    67    65    1
    64   103   104    1
    65    40    37    1
    66    17    18    2
    67    17    16    1
    68    25    24    1
    69    48    50   ar
    70    48    47    1
    71    46    47    1
    72    46    43    1
    73    65    64    1
    74    37    38    1
    75    37    36    1
    76    42    43    1
    77    42    38   am
    78    16    13    1
    79    63    62    2
    80    43    44    1
    81    38    39    2
    82   104   107    1
    83   104   105    1
    84    20    21    1
    85   117   116    2
    86    24    21    1
    87   107   108    1
    88    62    61    1
    89    21    22    1
    90    64    61    1
    91    64    66    1
    92   105   106    2
    93    34    33    1
    94    13    12    1
    95    13    14    1
    96   116   115    1
    97    61    60    1
    98    44    45    2
    99    14    15    2
   100    60    57   am
   101    59    56    1
   102    22    23    2
   103   108   109   ar
   104   108   110   ar
   105    33    35    1
   106    33    30    1
   107   115   114    1
   108   115   118    1
   109   109   111   ar
   110    57    56    1
   111    57    58    2
   112   110   112   ar
   113    56    55    1
   114    32    31    2
   115    31    30    1
   116    30    29    1
   117   118   119    1
   118    51    52    1
   119    54    53    2
   120   111   113   ar
   121   112   113   ar
   122    52    53    1
