@<TRIPOS>MOLECULE
tmp/4k8eA04.pdb
 98 95 0 0 0
SMALL
GASTEIGER

@<TRIPOS>ATOM
      1  N        -43.3930    5.5050   -0.4950 N.3    39  MET39      -0.1245
      2  CA       -43.5130    6.8500   -1.0460 C.3    39  MET39       0.1570
      3  C        -44.7770    7.5940   -0.6020 C.2    39  MET39       0.2261
      4  O        -45.3300    8.3830   -1.3660 O.2    39  MET39      -0.2867
      5  CB       -43.3900    6.8400   -2.5770 C.3    39  MET39       0.0387
      6  CG       -42.0820    6.2830   -3.0790 C.3    39  MET39       0.0595
      7  SD       -40.6730    7.1250   -2.3550 S.3    39  MET39      -0.1393
      8  CE       -39.3900    6.4880   -3.3910 C.3    39  MET39       0.0692
      9  N        -35.1880   11.3590   -2.6420 N.3    82  TYR82      -0.1241
     10  CA       -36.5700   11.0470   -3.0220 C.3    82  TYR82       0.1605
     11  C        -37.4670   11.8610   -2.0960 C.2    82  TYR82       0.2264
     12  O        -37.3800   11.7230   -0.8800 O.2    82  TYR82      -0.2867
     13  CB       -36.9040    9.5580   -2.8660 C.3    82  TYR82       0.0534
     14  CG       -36.0200    8.5860   -3.6260 C.ar   82  TYR82      -0.0201
     15  CD1      -35.3890    8.9500   -4.8130 C.ar   82  TYR82      -0.0009
     16  CD2      -35.8180    7.3010   -3.1430 C.ar   82  TYR82      -0.0009
     17  CE1      -34.5890    8.0590   -5.5020 C.ar   82  TYR82       0.0417
     18  CE2      -35.0180    6.4090   -3.8150 C.ar   82  TYR82       0.0417
     19  CZ       -34.4030    6.7870   -4.9940 C.ar   82  TYR82       0.1957
     20  OH       -33.6090    5.8550   -5.6360 O.3    82  TYR82      -0.2866
     21  N        -28.3080    6.2560   -6.5700 N.3   121  ALA121     -0.1245
     22  CA       -29.7110    6.0180   -6.8610 C.3   121  ALA121      0.1562
     23  C        -30.5790    7.2580   -6.6330 C.2   121  ALA121      0.2260
     24  O        -31.7170    7.2960   -7.0800 O.2   121  ALA121     -0.2867
     25  CB       -30.2320    4.8460   -6.0430 C.3   121  ALA121      0.0290
     26  N        -32.0300   11.1450   -6.9080 N.3   123  PHE123     -0.1241
     27  CA       -32.2930   12.0260   -8.0470 C.3   123  PHE123      0.1605
     28  C        -31.4340   13.2930   -7.9540 C.2   123  PHE123      0.2264
     29  O        -31.6100   14.1020   -7.0350 O.2   123  PHE123     -0.2867
     30  CB       -33.7770   12.3780   -8.1000 C.3   123  PHE123      0.0534
     31  CG       -34.6580   11.2130   -8.4510 C.ar  123  PHE123     -0.0203
     32  CD1      -34.2620   10.2750   -9.3960 C.ar  123  PHE123     -0.0042
     33  CD2      -35.8780   11.0490   -7.8300 C.ar  123  PHE123     -0.0042
     34  CE1      -35.0660    9.2020   -9.7150 C.ar  123  PHE123     -0.0003
     35  CE2      -36.6900    9.9800   -8.1500 C.ar  123  PHE123     -0.0003
     36  CZ       -36.2790    9.0590   -9.0950 C.ar  123  PHE123     -0.0000
     37  N        -24.7680    5.0210  -12.5810 N.3   143  MET143     -0.1245
     38  CA       -25.8400    4.0400  -12.4680 C.3   143  MET143      0.1570
     39  C        -26.4140    3.7300  -13.8480 C.2   143  MET143      0.2261
     40  O        -26.6200    2.5770  -14.2200 O.2   143  MET143     -0.2867
     41  CB       -26.9210    4.5830  -11.5420 C.3   143  MET143      0.0387
     42  CG       -28.1130    3.6680  -11.4280 C.3   143  MET143      0.0595
     43  SD       -29.3340    4.3760  -10.2980 S.3   143  MET143     -0.1393
     44  CE       -30.8430    3.7490  -10.9910 C.3   143  MET143      0.0692
     45  N        -27.6340    0.7050   -3.1590 N.3   196  TYR196     -0.1241
     46  CA       -27.5290    2.0130   -2.5320 C.3   196  TYR196      0.1605
     47  C        -26.1030    2.2190   -2.0200 C.2   196  TYR196      0.2264
     48  O        -25.2460    1.3770   -2.2680 O.2   196  TYR196     -0.2867
     49  CB       -28.6500    2.1960   -1.5000 C.3   196  TYR196      0.0534
     50  CG       -29.9860    2.0680   -2.1910 C.ar  196  TYR196     -0.0201
     51  CD1      -30.5400    3.1500   -2.8500 C.ar  196  TYR196     -0.0009
     52  CD2      -30.6600    0.8590   -2.2460 C.ar  196  TYR196     -0.0009
     53  CE1      -31.7310    3.0380   -3.5180 C.ar  196  TYR196      0.0417
     54  CE2      -31.8520    0.7490   -2.9210 C.ar  196  TYR196      0.0417
     55  CZ       -32.3850    1.8330   -3.5410 C.ar  196  TYR196      0.1957
     56  OH       -33.5710    1.7290   -4.2120 O.3   196  TYR196     -0.2866
     57  N        -30.1140   -4.9190   -9.2120 N.3   250  PHE250     -0.1227
     58  CA       -30.8420   -3.6640   -9.1160 C.3   250  PHE250      0.1736
     59  C        -29.8780   -2.5170   -8.7970 C.2   250  PHE250      0.2595
     60  O        -28.9470   -2.6580   -7.9920 O.2   250  PHE250     -0.2718
     61  CB       -31.9200   -3.8100   -8.0390 C.3   250  PHE250      0.0547
     62  CG       -32.8400   -2.6370   -7.9390 C.ar  250  PHE250     -0.0202
     63  CD1      -33.6410   -2.2840   -8.9940 C.ar  250  PHE250     -0.0042
     64  CD2      -32.9080   -1.8930   -6.7820 C.ar  250  PHE250     -0.0042
     65  CE1      -34.4910   -1.2000   -8.9010 C.ar  250  PHE250     -0.0003
     66  CE2      -33.7510   -0.8120   -6.6920 C.ar  250  PHE250     -0.0003
     67  CZ       -34.5420   -0.4760   -7.7520 C.ar  250  PHE250     -0.0000
     68  N        -30.1150   -1.3780   -9.4450 N.am  251  ASN251     -0.1974
     69  CA       -29.2760   -0.1820   -9.2870 C.3   251  ASN251      0.1688
     70  C        -27.8460   -0.3870   -9.7780 C.2   251  ASN251      0.2292
     71  O        -26.9190    0.2750   -9.3270 O.2   251  ASN251     -0.2864
     72  CB       -29.3510    0.3660   -7.8560 C.3   251  ASN251      0.1181
     73  CG       -30.6450    1.0860   -7.5900 C.2   251  ASN251      0.2629
     74  OD1      -31.2430    1.6720   -8.4900 O.2   251  ASN251     -0.2716
     75  ND2      -31.0810    1.0630   -6.3460 N.am  251  ASN251     -0.0877
     76  N        -38.3860   -5.1370   -8.7540 N.3   296  PHE296     -0.1241
     77  CA       -39.3980   -4.5350   -9.6170 C.3   296  PHE296      0.1605
     78  C        -39.6890   -5.3730  -10.8520 C.2   296  PHE296      0.2264
     79  O        -40.4270   -4.9500  -11.7210 O.2   296  PHE296     -0.2867
     80  CB       -39.0350   -3.0880   -9.8860 C.3   296  PHE296      0.0534
     81  CG       -39.0640   -2.2770   -8.6280 C.ar  296  PHE296     -0.0203
     82  CD1      -40.2780   -1.8630   -8.1040 C.ar  296  PHE296     -0.0042
     83  CD2      -37.9080   -2.0110   -7.9170 C.ar  296  PHE296     -0.0042
     84  CE1      -40.3280   -1.1480   -6.9270 C.ar  296  PHE296     -0.0003
     85  CE2      -37.9580   -1.3010   -6.7320 C.ar  296  PHE296     -0.0003
     86  CZ       -39.1690   -0.8720   -6.2380 C.ar  296  PHE296     -0.0000
     87  N        -45.7690    2.6700   -5.1430 N.3   375  TYR375     -0.1241
     88  CA       -45.3570    4.0310   -4.9280 C.3   375  TYR375      0.1605
     89  C        -46.5200    4.8810   -5.4230 C.2   375  TYR375      0.2264
     90  O        -46.7710    4.9220   -6.6250 O.2   375  TYR375     -0.2867
     91  CB       -44.1220    4.3460   -5.7780 C.3   375  TYR375      0.0534
     92  CG       -42.8140    3.6970   -5.4170 C.ar  375  TYR375     -0.0201
     93  CD1      -42.6730    2.8030   -4.3790 C.ar  375  TYR375     -0.0009
     94  CD2      -41.6750    4.0650   -6.1090 C.ar  375  TYR375     -0.0009
     95  CE1      -41.4350    2.2390   -4.0910 C.ar  375  TYR375      0.0417
     96  CE2      -40.4480    3.5280   -5.8230 C.ar  375  TYR375      0.0417
     97  CZ       -40.3240    2.6200   -4.8040 C.ar  375  TYR375      0.1957
     98  OH       -39.0850    2.0910   -4.5160 O.3   375  TYR375     -0.2866
@<TRIPOS>BOND
     1    40    39    2
     2    39    38    1
     3    37    38    1
     4    38    41    1
     5    79    78    2
     6    41    42    1
     7    42    43    1
     8    44    43    1
     9    78    77    1
    10    80    77    1
    11    80    81    1
    12    70    71    2
    13    70    69    1
    14    34    32   ar
    15    34    36   ar
    16    77    76    1
    17    68    69    1
    18    68    59   am
    19    32    31   ar
    20    69    72    1
    21    57    58    1
    22    58    59    1
    23    58    61    1
    24    36    35   ar
    25    63    65   ar
    26    63    62   ar
    27    65    67   ar
    28    59    60    2
    29    81    82   ar
    30    81    83   ar
    31    74    73    2
    32    31    30    1
    33    31    33   ar
    34    35    33   ar
    35    82    84   ar
    36    30    27    1
    37    27    28    1
    38    27    26    1
    39    61    62    1
    40    28    29    2
    41    62    64   ar
    42    83    85   ar
    43    72    73    1
    44    67    66   ar
    45    73    75   am
    46    24    23    2
    47    84    86   ar
    48    22    23    1
    49    22    21    1
    50    22    25    1
    51    64    66   ar
    52    85    86   ar
    53    90    89    2
    54    94    96   ar
    55    94    92   ar
    56    96    97   ar
    57    91    92    1
    58    91    88    1
    59    20    19    1
    60    17    19   ar
    61    17    15   ar
    62    89    88    1
    63    92    93   ar
    64    87    88    1
    65    19    18   ar
    66    15    14   ar
    67    97    98    1
    68    97    95   ar
    69    93    95   ar
    70    56    55    1
    71    18    16   ar
    72    14    16   ar
    73    14    13    1
    74    55    53   ar
    75    55    54   ar
    76    53    51   ar
    77     8     7    1
    78    45    46    1
    79     6     5    1
    80     6     7    1
    81    10    13    1
    82    10     9    1
    83    10    11    1
    84    54    52   ar
    85    51    50   ar
    86     5     2    1
    87    46    47    1
    88    46    49    1
    89    48    47    2
    90    52    50   ar
    91    50    49    1
    92    11    12    2
    93     4     3    2
    94     2     3    1
    95     2     1    1
