@<TRIPOS>MOLECULE
tmp/4k8hA01.pdb
 142 135 0 0 0
SMALL
GASTEIGER

@<TRIPOS>ATOM
      1  N        -40.3540    0.4190    0.9230 N.3    37  THR37      -0.1218
      2  CA       -40.6430    1.7830    0.5030 C.3    37  THR37       0.1862
      3  C        -42.0150    1.8960   -0.1520 C.2    37  THR37       0.2287
      4  O        -42.3590    1.1230   -1.0520 O.2    37  THR37      -0.2866
      5  CB       -39.5470    2.2500   -0.4630 C.3    37  THR37       0.1770
      6  OG1      -38.3190    2.3730    0.2650 O.3    37  THR37      -0.2211
      7  CG2      -39.8830    3.5910   -1.1340 C.3    37  THR37       0.0375
      8  N        -43.5410    5.3710   -0.4470 N.3    39  MET39      -0.1245
      9  CA       -43.6550    6.7290   -0.9750 C.3    39  MET39       0.1570
     10  C        -44.9100    7.4930   -0.5450 C.2    39  MET39       0.2261
     11  O        -45.4420    8.3060   -1.3130 O.2    39  MET39      -0.2867
     12  CB       -43.5480    6.7200   -2.5020 C.3    39  MET39       0.0387
     13  CG       -42.2250    6.1760   -3.0200 C.3    39  MET39       0.0595
     14  SD       -40.7940    7.0130   -2.3050 S.3    39  MET39      -0.1393
     15  CE       -39.5050    6.3920   -3.3760 C.3    39  MET39       0.0692
     16  N        -37.4250    1.9070    4.1110 N.3    72  GLY72      -0.1225
     17  CA       -36.1660    2.6240    4.2320 C.3    72  GLY72       0.1811
     18  C        -36.3530    4.0690    4.6810 C.2    72  GLY72       0.2280
     19  O        -37.2110    4.7880    4.1810 O.2    72  GLY72      -0.2866
     20  N        -34.2390    7.7230    5.3780 N.3    74  PHE74      -0.1241
     21  CA       -33.0080    8.4700    5.1510 C.3    74  PHE74       0.1605
     22  C        -32.4290    8.9940    6.4590 C.2    74  PHE74       0.2264
     23  O        -33.1660    9.5290    7.3040 O.2    74  PHE74      -0.2867
     24  CB       -33.2780    9.6790    4.2550 C.3    74  PHE74       0.0534
     25  CG       -33.8360    9.3350    2.8900 C.ar   74  PHE74      -0.0203
     26  CD1      -33.4110    8.2130    2.2100 C.ar   74  PHE74      -0.0042
     27  CD2      -34.7740   10.1590    2.2880 C.ar   74  PHE74      -0.0042
     28  CE1      -33.9180    7.9050    0.9600 C.ar   74  PHE74      -0.0003
     29  CE2      -35.2720    9.8580    1.0460 C.ar   74  PHE74      -0.0003
     30  CZ       -34.8340    8.7320    0.3770 C.ar   74  PHE74      -0.0000
     31  N        -35.3250   11.3420   -2.6600 N.3    82  TYR82      -0.1241
     32  CA       -36.7040   11.0280   -3.0270 C.3    82  TYR82       0.1605
     33  C        -37.6150   11.8080   -2.0850 C.2    82  TYR82       0.2264
     34  O        -37.5140   11.6630   -0.8740 O.2    82  TYR82      -0.2867
     35  CB       -37.0040    9.5360   -2.8790 C.3    82  TYR82       0.0534
     36  CG       -36.1300    8.5880   -3.6740 C.ar   82  TYR82      -0.0201
     37  CD1      -35.4950    8.9810   -4.8430 C.ar   82  TYR82      -0.0009
     38  CD2      -35.9560    7.2920   -3.2500 C.ar   82  TYR82      -0.0009
     39  CE1      -34.7200    8.0930   -5.5670 C.ar   82  TYR82       0.0417
     40  CE2      -35.1860    6.3940   -3.9520 C.ar   82  TYR82       0.0417
     41  CZ       -34.5640    6.7940   -5.1100 C.ar   82  TYR82       0.1957
     42  OH       -33.7850    5.8900   -5.8060 O.3    82  TYR82      -0.2866
     43  N        -40.1030    9.5730    0.4000 N.3    85  ALA85      -0.1245
     44  CA       -39.6090    8.5920    1.3540 C.3    85  ALA85       0.1562
     45  C        -39.2450    9.3200    2.6540 C.2    85  ALA85       0.2260
     46  O        -38.7730   10.4520    2.6110 O.2    85  ALA85      -0.2867
     47  CB       -38.4100    7.8650    0.7880 C.3    85  ALA85       0.0290
     48  N        -35.0790    0.6150    9.1590 N.3   114  GLN114     -0.1245
     49  CA       -34.0110    0.4820    8.1680 C.3   114  GLN114      0.1566
     50  C        -33.4180    1.8500    7.8540 C.2   114  GLN114      0.2260
     51  O        -34.1350    2.7770    7.4570 O.2   114  GLN114     -0.2867
     52  CB       -34.4760   -0.1480    6.8620 C.3   114  GLN114      0.0367
     53  CG       -33.2870   -0.3590    5.9040 C.3   114  GLN114      0.0905
     54  CD       -33.6560   -0.8820    4.5580 C.2   114  GLN114      0.2608
     55  OE1      -34.3290   -0.1960    3.7670 O.2   114  GLN114     -0.2717
     56  NE2      -33.1840   -2.1000    4.2540 N.am  114  GLN114     -0.0878
     57  N        -31.0840    4.2300    5.6070 N.3   116  VAL116     -0.1245
     58  CA       -30.7610    4.2990    4.1960 C.3   116  VAL116      0.1561
     59  C        -29.9420    5.5300    3.8050 C.2   116  VAL116      0.2260
     60  O        -30.2120    6.6530    4.2690 O.2   116  VAL116     -0.2867
     61  CB       -32.0640    4.2860    3.3670 C.3   116  VAL116      0.0252
     62  CG1      -31.7900    4.5260    1.8830 C.3   116  VAL116      0.0019
     63  CG2      -32.7760    2.9750    3.5540 C.3   116  VAL116      0.0019
     64  N        -28.8020    6.7860   -0.1340 N.3   118  LEU118     -0.1245
     65  CA       -29.1000    6.4130   -1.5180 C.3   118  LEU118      0.1561
     66  C        -27.9120    6.3180   -2.4700 C.2   118  LEU118      0.2260
     67  O        -27.9240    5.5030   -3.3850 O.2   118  LEU118     -0.2867
     68  CB       -30.1080    7.3990   -2.1250 C.3   118  LEU118      0.0270
     69  CG       -31.5520    7.3850   -1.6210 C.3   118  LEU118      0.0019
     70  CD1      -32.4080    8.3660   -2.4230 C.3   118  LEU118      0.0001
     71  CD2      -32.1640    5.9790   -1.6960 C.3   118  LEU118      0.0001
     72  N        -28.9640   -0.7620    5.8610 N.3   191  HIS191     -0.1241
     73  CA       -29.1700   -1.1330    4.4660 C.3   191  HIS191      0.1621
     74  C        -27.8450   -1.1290    3.7070 C.2   191  HIS191      0.2264
     75  O        -27.3060   -0.0720    3.4120 O.2   191  HIS191     -0.2867
     76  CB       -30.1420   -0.1590    3.8100 C.3   191  HIS191      0.0745
     77  CG       -30.7180   -0.6530    2.5180 C.ar  191  HIS191      0.0817
     78  ND1      -30.3350   -1.8360    1.9310 N.ar  191  HIS191     -0.2268
     79  CD2      -31.7080   -0.1480    1.7430 C.ar  191  HIS191      0.1154
     80  CE1      -31.0470   -2.0270    0.8310 C.ar  191  HIS191      0.1986
     81  NE2      -31.8850   -1.0190    0.6990 N.ar  191  HIS191     -0.2212
     82  N        -29.2320   -3.8870   -2.3010 N.3   194  ASN194     -0.1240
     83  CA       -30.0480   -3.3500   -3.3770 C.3   194  ASN194      0.1653
     84  C        -29.4570   -2.1640   -4.1310 C.2   194  ASN194      0.2266
     85  O        -30.1900   -1.3750   -4.7280 O.2   194  ASN194     -0.2867
     86  CB       -31.4600   -3.0270   -2.8700 C.3   194  ASN194      0.1155
     87  CG       -32.1660   -4.2430   -2.2910 C.2   194  ASN194      0.2627
     88  OD1      -31.8900   -5.3880   -2.6690 O.2   194  ASN194     -0.2716
     89  ND2      -33.0880   -4.0030   -1.3750 N.am  194  ASN194     -0.0877
     90  N        -27.7900    0.5640   -3.1160 N.3   196  TYR196     -0.1241
     91  CA       -27.7120    1.8940   -2.5030 C.3   196  TYR196      0.1605
     92  C        -26.2630    2.1500   -2.0710 C.2   196  TYR196      0.2264
     93  O        -25.3790    1.3990   -2.4890 O.2   196  TYR196     -0.2867
     94  CB       -28.8080    2.0770   -1.4350 C.3   196  TYR196      0.0534
     95  CG       -30.1570    1.9360   -2.1390 C.ar  196  TYR196     -0.0201
     96  CD1      -30.6830    2.9750   -2.8680 C.ar  196  TYR196     -0.0009
     97  CD2      -30.8130    0.7130   -2.1850 C.ar  196  TYR196     -0.0009
     98  CE1      -31.8610    2.8470   -3.5610 C.ar  196  TYR196      0.0417
     99  CE2      -31.9940    0.5640   -2.8830 C.ar  196  TYR196      0.0417
    100  CZ       -32.5080    1.6480   -3.5820 C.ar  196  TYR196      0.1957
    101  OH       -33.6780    1.5340   -4.2970 O.3   196  TYR196     -0.2866
    102  N        -30.2170   -5.0010   -9.1840 N.3   250  PHE250     -0.1241
    103  CA       -30.9560   -3.7530   -9.0980 C.3   250  PHE250      0.1605
    104  C        -30.0030   -2.5960   -8.7900 C.2   250  PHE250      0.2264
    105  O        -29.0550   -2.7440   -7.9980 O.2   250  PHE250     -0.2867
    106  CB       -32.0250   -3.8670   -8.0170 C.3   250  PHE250      0.0534
    107  CG       -32.9550   -2.6930   -7.9590 C.ar  250  PHE250     -0.0203
    108  CD1      -33.7760   -2.4040   -9.0260 C.ar  250  PHE250     -0.0042
    109  CD2      -33.0250   -1.8990   -6.8250 C.ar  250  PHE250     -0.0042
    110  CE1      -34.6430   -1.3360   -8.9800 C.ar  250  PHE250     -0.0003
    111  CE2      -33.9020   -0.8260   -6.7700 C.ar  250  PHE250     -0.0003
    112  CZ       -34.7140   -0.5480   -7.8550 C.ar  250  PHE250     -0.0000
    113  N        -36.4120   -6.4320   -7.4670 N.3   295  PRO295     -0.2102
    114  CA       -37.7220   -6.6250   -6.8450 C.3   295  PRO295      0.1504
    115  C        -38.8630   -5.9290   -7.5620 C.2   295  PRO295      0.2575
    116  O        -40.0070   -6.0470   -7.1220 O.2   295  PRO295     -0.2718
    117  CB       -37.5240   -6.0240   -5.4510 C.3   295  PRO295      0.0282
    118  CG       -36.5580   -4.9120   -5.6620 C.3   295  PRO295      0.0208
    119  CD       -35.6190   -5.4150   -6.7500 C.3   295  PRO295      0.0893
    120  N        -38.5590   -5.2420   -8.6630 N.am  296  PHE296     -0.1977
    121  CA       -39.5920   -4.6570   -9.5090 C.3   296  PHE296      0.1639
    122  C        -39.8830   -5.4980  -10.7530 C.2   296  PHE296      0.2290
    123  O        -40.6000   -5.0780  -11.6490 O.2   296  PHE296     -0.2864
    124  CB       -39.2220   -3.2160   -9.8000 C.3   296  PHE296      0.0560
    125  CG       -39.1730   -2.3900   -8.5430 C.ar  296  PHE296     -0.0200
    126  CD1      -40.3520   -2.0040   -7.9230 C.ar  296  PHE296     -0.0042
    127  CD2      -37.9700   -2.0760   -7.9360 C.ar  296  PHE296     -0.0042
    128  CE1      -40.3350   -1.2710   -6.7500 C.ar  296  PHE296     -0.0003
    129  CE2      -37.9430   -1.3500   -6.7540 C.ar  296  PHE296     -0.0003
    130  CZ       -39.1230   -0.9470   -6.1590 C.ar  296  PHE296     -0.0000
    131  N        -45.9320    2.5330   -5.0770 N.3   375  TYR375     -0.1241
    132  CA       -45.4940    3.8980   -4.8490 C.3   375  TYR375      0.1605
    133  C        -46.6360    4.7790   -5.3280 C.2   375  TYR375      0.2264
    134  O        -46.9310    4.8140   -6.5200 O.2   375  TYR375     -0.2867
    135  CB       -44.2730    4.2430   -5.6990 C.3   375  TYR375      0.0534
    136  CG       -42.9410    3.5990   -5.3370 C.ar  375  TYR375     -0.0201
    137  CD1      -42.8130    2.6820   -4.3050 C.ar  375  TYR375     -0.0009
    138  CD2      -41.7890    3.9720   -6.0140 C.ar  375  TYR375     -0.0009
    139  CE1      -41.5700    2.1320   -3.9930 C.ar  375  TYR375      0.0417
    140  CE2      -40.5760    3.4330   -5.7170 C.ar  375  TYR375      0.0417
    141  CZ       -40.4570    2.5210   -4.6980 C.ar  375  TYR375      0.1957
    142  OH       -39.2040    2.0020   -4.4120 O.3   375  TYR375     -0.2866
@<TRIPOS>BOND
     1   123   122    2
     2   122   121    1
     3   124   121    1
     4   124   125    1
     5   121   120    1
     6   102   103    1
     7   103   104    1
     8   103   106    1
     9   108   110   ar
    10   108   107   ar
    11   110   112   ar
    12   104   105    2
    13   120   115   am
    14   125   127   ar
    15   125   126   ar
    16   106   107    1
    17   107   109   ar
    18   127   129   ar
    19   126   128   ar
    20   112   111   ar
    21   115   116    2
    22   115   114    1
    23   113   114    1
    24   113   119    1
    25   114   117    1
    26   109   111   ar
    27   129   130   ar
    28   119   118    1
    29   128   130   ar
    30   134   133    2
    31   138   140   ar
    32   138   136   ar
    33    42    41    1
    34   140   141   ar
    35   135   136    1
    36   135   132    1
    37   118   117    1
    38    39    41   ar
    39    39    37   ar
    40   136   137   ar
    41   133   132    1
    42    41    40   ar
    43   131   132    1
    44    37    36   ar
    45    85    84    2
    46   141   142    1
    47   141   139   ar
    48   137   139   ar
    49   101   100    1
    50    84    83    1
    51    40    38   ar
    52    36    38   ar
    53    36    35    1
    54   100    98   ar
    55   100    99   ar
    56    98    96   ar
    57    67    66    2
    58    83    86    1
    59    83    82    1
    60    15    14    1
    61    90    91    1
    62    32    35    1
    63    32    31    1
    64    32    33    1
    65    13    12    1
    66    13    14    1
    67    99    97   ar
    68    86    87    1
    69    96    95   ar
    70    88    87    2
    71    91    92    1
    72    91    94    1
    73    12     9    1
    74    93    92    2
    75    66    65    1
    76    70    69    1
    77    87    89   am
    78    97    95   ar
    79    95    94    1
    80    68    69    1
    81    68    65    1
    82    33    34    2
    83    71    69    1
    84    65    64    1
    85    11    10    2
    86     7     5    1
    87     4     3    2
    88     9    10    1
    89     9     8    1
    90     5     6    1
    91     5     2    1
    92     3     2    1
    93    30    28   ar
    94    30    29   ar
    95    43    44    1
    96     2     1    1
    97    81    80   ar
    98    81    79   ar
    99    47    44    1
   100    80    78   ar
   101    28    26   ar
   102    29    27   ar
   103    44    45    1
   104    79    77   ar
   105    62    61    1
   106    78    77   ar
   107    26    25   ar
   108    27    25   ar
   109    77    76    1
   110    46    45    2
   111    25    24    1
   112    61    63    1
   113    61    58    1
   114    75    74    2
   115    74    73    1
   116    55    54    2
   117    59    58    1
   118    59    60    2
   119    76    73    1
   120    16    17    1
   121    19    18    2
   122    58    57    1
   123    17    18    1
   124    56    54   am
   125    24    21    1
   126    73    72    1
   127    54    53    1
   128    21    20    1
   129    21    22    1
   130    53    52    1
   131    22    23    2
   132    52    49    1
   133    51    50    2
   134    50    49    1
   135    49    48    1
