@<TRIPOS>MOLECULE
tmp/4k8hA00.pdb
 237 232 0 0 0
SMALL
GASTEIGER

@<TRIPOS>ATOM
      1  N        -40.1440   -7.4420    5.5680 N.3    34  PRO34      -0.2103
      2  CA       -38.9100   -6.7740    5.1670 C.3    34  PRO34       0.1489
      3  C        -39.2070   -5.3020    4.8710 C.2    34  PRO34       0.2418
      4  O        -40.3760   -4.9330    4.7140 O.2    34  PRO34      -0.2734
      5  CB       -38.5280   -7.5090    3.8820 C.3    34  PRO34       0.0282
      6  CG       -39.8700   -7.8510    3.2710 C.3    34  PRO34       0.0208
      7  CD       -40.7950   -8.1160    4.4340 C.3    34  PRO34       0.0893
      8  N        -38.1580   -4.4820    4.7580 N.am   35  PRO35      -0.2718
      9  CA       -38.3450   -3.0580    4.4430 C.3    35  PRO35       0.1535
     10  C        -39.0240   -2.8720    3.0840 C.2    35  PRO35       0.2598
     11  O        -38.6020   -3.4640    2.0810 O.2    35  PRO35      -0.2715
     12  CB       -36.9130   -2.5020    4.4460 C.3    35  PRO35       0.0310
     13  CG       -36.0360   -3.7100    4.1810 C.3    35  PRO35       0.0237
     14  CD       -36.7390   -4.8760    4.8280 C.3    35  PRO35       0.0939
     15  N        -40.0860   -2.0730    3.0690 N.am   36  LEU36      -0.1964
     16  CA       -40.8230   -1.7620    1.8440 C.3    36  LEU36       0.1728
     17  C        -41.1360   -0.2740    1.7430 C.2    36  LEU36       0.2616
     18  O        -42.0560    0.2320    2.3930 O.2    36  LEU36      -0.2715
     19  CB       -42.1330   -2.5540    1.7840 C.3    36  LEU36       0.0311
     20  CG       -41.9930   -4.0780    1.8480 C.3    36  LEU36       0.0022
     21  CD1      -43.2480   -4.7500    2.4020 C.3    36  LEU36       0.0001
     22  CD2      -41.6490   -4.6100    0.4560 C.3    36  LEU36       0.0001
     23  N        -40.3540    0.4190    0.9230 N.am   37  THR37      -0.1951
     24  CA       -40.6430    1.7830    0.5030 C.3    37  THR37       0.1897
     25  C        -42.0150    1.8960   -0.1520 C.2    37  THR37       0.2313
     26  O        -42.3590    1.1230   -1.0520 O.2    37  THR37      -0.2863
     27  CB       -39.5470    2.2500   -0.4630 C.3    37  THR37       0.1794
     28  OG1      -38.3190    2.3730    0.2650 O.3    37  THR37      -0.2208
     29  CG2      -39.8830    3.5910   -1.1340 C.3    37  THR37       0.0378
     30  N        -37.4250    1.9070    4.1110 N.3    72  GLY72      -0.1225
     31  CA       -36.1660    2.6240    4.2320 C.3    72  GLY72       0.1811
     32  C        -36.3530    4.0690    4.6810 C.2    72  GLY72       0.2280
     33  O        -37.2110    4.7880    4.1810 O.2    72  GLY72      -0.2866
     34  N        -35.0790    0.6150    9.1590 N.3   114  GLN114     -0.1245
     35  CA       -34.0110    0.4820    8.1680 C.3   114  GLN114      0.1566
     36  C        -33.4180    1.8500    7.8540 C.2   114  GLN114      0.2260
     37  O        -34.1350    2.7770    7.4570 O.2   114  GLN114     -0.2867
     38  CB       -34.4760   -0.1480    6.8620 C.3   114  GLN114      0.0367
     39  CG       -33.2870   -0.3590    5.9040 C.3   114  GLN114      0.0905
     40  CD       -33.6560   -0.8820    4.5580 C.2   114  GLN114      0.2608
     41  OE1      -34.3290   -0.1960    3.7670 O.2   114  GLN114     -0.2717
     42  NE2      -33.1840   -2.1000    4.2540 N.am  114  GLN114     -0.0878
     43  N        -31.0840    4.2300    5.6070 N.3   116  VAL116     -0.1245
     44  CA       -30.7610    4.2990    4.1960 C.3   116  VAL116      0.1561
     45  C        -29.9420    5.5300    3.8050 C.2   116  VAL116      0.2260
     46  O        -30.2120    6.6530    4.2690 O.2   116  VAL116     -0.2867
     47  CB       -32.0640    4.2860    3.3670 C.3   116  VAL116      0.0252
     48  CG1      -31.7900    4.5260    1.8830 C.3   116  VAL116      0.0019
     49  CG2      -32.7760    2.9750    3.5540 C.3   116  VAL116      0.0019
     50  N        -28.9640   -0.7620    5.8610 N.3   191  HIS191     -0.1241
     51  CA       -29.1700   -1.1330    4.4660 C.3   191  HIS191      0.1621
     52  C        -27.8450   -1.1290    3.7070 C.2   191  HIS191      0.2264
     53  O        -27.3060   -0.0720    3.4120 O.2   191  HIS191     -0.2867
     54  CB       -30.1420   -0.1590    3.8100 C.3   191  HIS191      0.0745
     55  CG       -30.7180   -0.6530    2.5180 C.ar  191  HIS191      0.0817
     56  ND1      -30.3350   -1.8360    1.9310 N.ar  191  HIS191     -0.2268
     57  CD2      -31.7080   -0.1480    1.7430 C.ar  191  HIS191      0.1154
     58  CE1      -31.0470   -2.0270    0.8310 C.ar  191  HIS191      0.1986
     59  NE2      -31.8850   -1.0190    0.6990 N.ar  191  HIS191     -0.2212
     60  N        -29.2320   -3.8870   -2.3010 N.3   194  ASN194     -0.1240
     61  CA       -30.0480   -3.3500   -3.3770 C.3   194  ASN194      0.1653
     62  C        -29.4570   -2.1640   -4.1310 C.2   194  ASN194      0.2266
     63  O        -30.1900   -1.3750   -4.7280 O.2   194  ASN194     -0.2867
     64  CB       -31.4600   -3.0270   -2.8700 C.3   194  ASN194      0.1155
     65  CG       -32.1660   -4.2430   -2.2910 C.2   194  ASN194      0.2627
     66  OD1      -31.8900   -5.3880   -2.6690 O.2   194  ASN194     -0.2716
     67  ND2      -33.0880   -4.0030   -1.3750 N.am  194  ASN194     -0.0877
     68  N        -27.7900    0.5640   -3.1160 N.3   196  TYR196     -0.1241
     69  CA       -27.7120    1.8940   -2.5030 C.3   196  TYR196      0.1605
     70  C        -26.2630    2.1500   -2.0710 C.2   196  TYR196      0.2264
     71  O        -25.3790    1.3990   -2.4890 O.2   196  TYR196     -0.2867
     72  CB       -28.8080    2.0770   -1.4350 C.3   196  TYR196      0.0534
     73  CG       -30.1570    1.9360   -2.1390 C.ar  196  TYR196     -0.0201
     74  CD1      -30.6830    2.9750   -2.8680 C.ar  196  TYR196     -0.0009
     75  CD2      -30.8130    0.7130   -2.1850 C.ar  196  TYR196     -0.0009
     76  CE1      -31.8610    2.8470   -3.5610 C.ar  196  TYR196      0.0417
     77  CE2      -31.9940    0.5640   -2.8830 C.ar  196  TYR196      0.0417
     78  CZ       -32.5080    1.6480   -3.5820 C.ar  196  TYR196      0.1957
     79  OH       -33.6780    1.5340   -4.2970 O.3   196  TYR196     -0.2866
     80  N        -28.4060   -5.7170    6.2350 N.3   243  ARG243     -0.1245
     81  CA       -28.9990   -6.2850    5.0230 C.3   243  ARG243      0.1563
     82  C        -28.0420   -6.2810    3.8400 C.2   243  ARG243      0.2260
     83  O        -27.3930   -5.2760    3.5650 O.2   243  ARG243     -0.2867
     84  CB       -30.2900   -5.5580    4.6330 C.3   243  ARG243      0.0307
     85  CG       -31.1140   -6.3800    3.6600 C.3   243  ARG243      0.0489
     86  CD       -32.4980   -5.8440    3.4040 C.3   243  ARG243      0.2205
     87  NE       -33.4260   -6.9280    3.0590 N.pl3 243  ARG243     -0.0865
     88  CZ       -34.4290   -6.8710    2.1820 C.cat 243  ARG243      0.5346
     89  NH1      -34.6680   -5.7880    1.4410 N.pl3 243  ARG243      0.1354
     90  NH2      -35.2160   -7.9350    2.0330 N.pl3 243  ARG243      0.1354
     91  N        -31.1810  -10.8310    0.7690 N.3   288  VAL288     -0.1245
     92  CA       -32.0690  -10.9440   -0.3700 C.3   288  VAL288      0.1561
     93  C        -31.5760  -12.1340   -1.1760 C.2   288  VAL288      0.2260
     94  O        -30.3730  -12.2730   -1.4440 O.2   288  VAL288     -0.2867
     95  CB       -32.0750   -9.6920   -1.2500 C.3   288  VAL288      0.0252
     96  CG1      -33.0770   -9.8590   -2.3670 C.3   288  VAL288      0.0019
     97  CG2      -32.4080   -8.4420   -0.4380 C.3   288  VAL288      0.0019
     98  N        -34.7610  -13.3150   -6.3430 N.3   292  VAL292     -0.1245
     99  CA       -35.2060  -11.9930   -6.7880 C.3   292  VAL292      0.1561
    100  C        -33.9900  -11.0750   -6.8910 C.2   292  VAL292      0.2260
    101  O        -33.5320  -10.5140   -5.8930 O.2   292  VAL292     -0.2867
    102  CB       -36.2330  -11.3800   -5.7940 C.3   292  VAL292      0.0252
    103  CG1      -36.6960  -10.0110   -6.2600 C.3   292  VAL292      0.0019
    104  CG2      -37.4120  -12.2850   -5.6060 C.3   292  VAL292      0.0019
    105  N        -36.4120   -6.4320   -7.4670 N.3   295  PRO295     -0.2102
    106  CA       -37.7220   -6.6250   -6.8450 C.3   295  PRO295      0.1504
    107  C        -38.8630   -5.9290   -7.5620 C.2   295  PRO295      0.2575
    108  O        -40.0070   -6.0470   -7.1220 O.2   295  PRO295     -0.2718
    109  CB       -37.5240   -6.0240   -5.4510 C.3   295  PRO295      0.0282
    110  CG       -36.5580   -4.9120   -5.6620 C.3   295  PRO295      0.0208
    111  CD       -35.6190   -5.4150   -6.7500 C.3   295  PRO295      0.0893
    112  N        -38.5590   -5.2420   -8.6630 N.am  296  PHE296     -0.1977
    113  CA       -39.5920   -4.6570   -9.5090 C.3   296  PHE296      0.1639
    114  C        -39.8830   -5.4980  -10.7530 C.2   296  PHE296      0.2290
    115  O        -40.6000   -5.0780  -11.6490 O.2   296  PHE296     -0.2864
    116  CB       -39.2220   -3.2160   -9.8000 C.3   296  PHE296      0.0560
    117  CG       -39.1730   -2.3900   -8.5430 C.ar  296  PHE296     -0.0200
    118  CD1      -40.3520   -2.0040   -7.9230 C.ar  296  PHE296     -0.0042
    119  CD2      -37.9700   -2.0760   -7.9360 C.ar  296  PHE296     -0.0042
    120  CE1      -40.3350   -1.2710   -6.7500 C.ar  296  PHE296     -0.0003
    121  CE2      -37.9430   -1.3500   -6.7540 C.ar  296  PHE296     -0.0003
    122  CZ       -39.1230   -0.9470   -6.1590 C.ar  296  PHE296     -0.0000
    123  N        -42.6380  -11.8910   -9.8040 N.3   299  GLU299     -0.1245
    124  CA       -42.1200  -13.1240   -9.2070 C.3   299  GLU299      0.1567
    125  C        -41.8350  -14.1630  -10.2810 C.2   299  GLU299      0.2260
    126  O        -42.6790  -14.4210  -11.1450 O.2   299  GLU299     -0.2867
    127  CB       -43.1260  -13.6950   -8.2040 C.3   299  GLU299      0.0388
    128  CG       -43.2540  -12.9350   -6.9020 C.3   299  GLU299      0.1160
    129  CD       -44.1210  -11.6770   -6.9510 C.2   299  GLU299      0.3649
    130  OE1      -44.6930  -11.3080   -8.0060 O.co2 299  GLU299     -0.2457
    131  OE2      -44.2560  -11.0720   -5.8770 O.co2 299  GLU299     -0.2457
    132  N        -35.2240  -13.2570    2.1460 N.3   323  ALA323     -0.1231
    133  CA       -36.3730  -12.6720    1.4520 C.3   323  ALA323      0.1694
    134  C        -36.2490  -12.8770   -0.0450 C.2   323  ALA323      0.2593
    135  O        -35.1570  -12.7490   -0.5910 O.2   323  ALA323     -0.2718
    136  CB       -36.4710  -11.1660    1.7420 C.3   323  ALA323      0.0304
    137  N        -37.3780  -13.1480   -0.7010 N.am  324  GLY324     -0.1942
    138  CA       -37.4350  -13.1550   -2.1540 C.3   324  GLY324      0.2014
    139  C        -38.3060  -14.2590   -2.7180 C.2   324  GLY324      0.2639
    140  O        -37.9140  -15.4360   -2.7360 O.2   324  GLY324     -0.2714
    141  N        -39.4970  -13.8630   -3.1470 N.am  325  ASN325     -0.1958
    142  CA       -40.4580  -14.7610   -3.7920 C.3   325  ASN325      0.1819
    143  C        -40.7930  -15.9940   -2.9570 C.2   325  ASN325      0.2621
    144  O        -40.8810  -17.0980   -3.4710 O.2   325  ASN325     -0.2715
    145  CB       -39.9690  -15.1490   -5.1900 C.3   325  ASN325      0.1195
    146  CG       -41.0510  -15.8080   -6.0340 C.2   325  ASN325      0.2630
    147  OD1      -42.2550  -15.7240   -5.7320 O.2   325  ASN325     -0.2716
    148  ND2      -40.6260  -16.4600   -7.1080 N.am  325  ASN325     -0.0877
    149  N        -41.0120  -15.7960   -1.6590 N.am  326  PHE326     -0.1960
    150  CA       -41.3950  -16.9090   -0.7960 C.3   326  PHE326      0.1771
    151  C        -42.9060  -17.0630   -0.5890 C.2   326  PHE326      0.2619
    152  O        -43.3650  -18.1490   -0.2650 O.2   326  PHE326     -0.2715
    153  CB       -40.7000  -16.8030    0.5540 C.3   326  PHE326      0.0574
    154  CG       -39.2280  -17.1140    0.5070 C.ar  326  PHE326     -0.0200
    155  CD1      -38.7740  -18.3410    0.0410 C.ar  326  PHE326     -0.0042
    156  CD2      -38.2960  -16.1880    0.9590 C.ar  326  PHE326     -0.0042
    157  CE1      -37.4180  -18.6310    0.0210 C.ar  326  PHE326     -0.0003
    158  CE2      -36.9520  -16.4750    0.9270 C.ar  326  PHE326     -0.0003
    159  CZ       -36.5100  -17.7050    0.4590 C.ar  326  PHE326     -0.0000
    160  N        -43.6780  -15.9940   -0.7620 N.am  327  ALA327     -0.1977
    161  CA       -45.1230  -16.0630   -0.5180 C.3   327  ALA327      0.1597
    162  C        -45.7950  -17.0870   -1.4560 C.2   327  ALA327      0.2287
    163  O        -46.7030  -17.8470   -1.0660 O.2   327  ALA327     -0.2864
    164  CB       -45.7450  -14.6880   -0.7110 C.3   327  ALA327      0.0319
    165  N        -38.6100  -13.3760    5.1500 N.3   345  GLY345     -0.1210
    166  CA       -39.1930  -12.0870    4.8670 C.3   345  GLY345      0.1956
    167  C        -40.1350  -12.1930    3.6890 C.2   345  GLY345      0.2612
    168  O        -39.7880  -12.7690    2.6600 O.2   345  GLY345     -0.2717
    169  N        -41.3200  -11.6140    3.8540 N.am  346  TYR346     -0.1962
    170  CA       -42.3490  -11.6160    2.8390 C.3   346  TYR346      0.1771
    171  C        -42.6580  -10.1550    2.5210 C.2   346  TYR346      0.2620
    172  O        -43.2350   -9.4460    3.3500 O.2   346  TYR346     -0.2715
    173  CB       -43.6190  -12.2930    3.3720 C.3   346  TYR346      0.0574
    174  CG       -43.5390  -13.7900    3.6230 C.ar  346  TYR346     -0.0198
    175  CD1      -43.7980  -14.6910    2.6090 C.ar  346  TYR346     -0.0009
    176  CD2      -43.2600  -14.2990    4.8860 C.ar  346  TYR346     -0.0009
    177  CE1      -43.7730  -16.0560    2.8360 C.ar  346  TYR346      0.0417
    178  CE2      -43.2250  -15.6730    5.1160 C.ar  346  TYR346      0.0417
    179  CZ       -43.4900  -16.5350    4.0900 C.ar  346  TYR346      0.1957
    180  OH       -43.4900  -17.8970    4.2990 O.3   346  TYR346     -0.2866
    181  N        -42.2710   -9.7110    1.3310 N.am  347  GLY347     -0.1940
    182  CA       -42.3840   -8.3060    0.9580 C.3   347  GLY347      0.2014
    183  C        -43.6810   -7.9490    0.2540 C.2   347  GLY347      0.2639
    184  O        -44.6410   -7.4680    0.8770 O.2   347  GLY347     -0.2714
    185  N        -43.7170   -8.1810   -1.0540 N.am  348  ARG348     -0.1963
    186  CA       -44.8550   -7.7580   -1.8640 C.3   348  ARG348      0.1729
    187  C        -46.1920   -8.2820   -1.3780 C.2   348  ARG348      0.2616
    188  O        -47.1930   -7.5710   -1.4390 O.2   348  ARG348     -0.2715
    189  CB       -44.6310   -8.1240   -3.3320 C.3   348  ARG348      0.0348
    190  CG       -43.6570   -7.1700   -3.9960 C.3   348  ARG348      0.0492
    191  CD       -43.1260   -7.6780   -5.3200 C.3   348  ARG348      0.2205
    192  NE       -42.1200   -8.7160   -5.1350 N.pl3 348  ARG348     -0.0865
    193  CZ       -41.4810   -9.3210   -6.1330 C.cat 348  ARG348      0.5346
    194  NH1      -41.7620   -8.9990   -7.4010 N.pl3 348  ARG348      0.1354
    195  NH2      -40.5680  -10.2560   -5.8610 N.pl3 348  ARG348      0.1354
    196  N        -46.2290   -9.5040   -0.8700 N.am  349  PHE349     -0.1974
    197  CA       -47.5030  -10.0290   -0.4100 C.3   349  PHE349      0.1639
    198  C        -47.8860   -9.5610    0.9900 C.2   349  PHE349      0.2290
    199  O        -49.0430   -9.6760    1.3600 O.2   349  PHE349     -0.2864
    200  CB       -47.5700  -11.5450   -0.6100 C.3   349  PHE349      0.0560
    201  CG       -47.8660  -11.9060   -2.0260 C.ar  349  PHE349     -0.0200
    202  CD1      -49.1610  -11.8670   -2.5020 C.ar  349  PHE349     -0.0042
    203  CD2      -46.8430  -12.1950   -2.8990 C.ar  349  PHE349     -0.0042
    204  CE1      -49.4420  -12.1480   -3.8130 C.ar  349  PHE349     -0.0003
    205  CE2      -47.1190  -12.5000   -4.2130 C.ar  349  PHE349     -0.0003
    206  CZ       -48.4360  -12.4730   -4.6650 C.ar  349  PHE349     -0.0000
    207  N        -47.5470   -6.2800    1.4260 N.3   351  ILE351     -0.1245
    208  CA       -48.2220   -5.0820    0.9370 C.3   351  ILE351      0.1561
    209  C        -49.7050   -5.3710    0.7780 C.2   351  ILE351      0.2260
    210  O        -50.5360   -4.6190    1.2500 O.2   351  ILE351     -0.2867
    211  CB       -47.6070   -4.5840   -0.3930 C.3   351  ILE351      0.0252
    212  CG1      -46.1830   -4.0660   -0.1300 C.3   351  ILE351      0.0019
    213  CG2      -48.4970   -3.5230   -1.0510 C.3   351  ILE351      0.0019
    214  CD1      -45.4340   -3.5200   -1.3760 C.3   351  ILE351      0.0001
    215  N        -47.8250    0.5440   -5.4450 N.3   374  PHE374     -0.1227
    216  CA       -46.6880    0.3010   -4.5470 C.3   374  PHE374      0.1736
    217  C        -46.1050    1.6430   -4.1050 C.2   374  PHE374      0.2595
    218  O        -45.8120    1.8540   -2.9260 O.2   374  PHE374     -0.2718
    219  CB       -45.5970   -0.5250   -5.2400 C.3   374  PHE374      0.0547
    220  CG       -45.8480   -2.0180   -5.2790 C.ar  374  PHE374     -0.0202
    221  CD1      -46.9730   -2.5950   -4.7020 C.ar  374  PHE374     -0.0042
    222  CD2      -44.9320   -2.8440   -5.8960 C.ar  374  PHE374     -0.0042
    223  CE1      -47.1630   -3.9600   -4.7390 C.ar  374  PHE374     -0.0003
    224  CE2      -45.1180   -4.2170   -5.9440 C.ar  374  PHE374     -0.0003
    225  CZ       -46.2350   -4.7780   -5.3730 C.ar  374  PHE374     -0.0000
    226  N        -45.9320    2.5330   -5.0770 N.am  375  TYR375     -0.1976
    227  CA       -45.4940    3.8980   -4.8490 C.3   375  TYR375      0.1639
    228  C        -46.6360    4.7790   -5.3280 C.2   375  TYR375      0.2290
    229  O        -46.9310    4.8140   -6.5200 O.2   375  TYR375     -0.2864
    230  CB       -44.2730    4.2430   -5.6990 C.3   375  TYR375      0.0560
    231  CG       -42.9410    3.5990   -5.3370 C.ar  375  TYR375     -0.0198
    232  CD1      -42.8130    2.6820   -4.3050 C.ar  375  TYR375     -0.0009
    233  CD2      -41.7890    3.9720   -6.0140 C.ar  375  TYR375     -0.0009
    234  CE1      -41.5700    2.1320   -3.9930 C.ar  375  TYR375      0.0417
    235  CE2      -40.5760    3.4330   -5.7170 C.ar  375  TYR375      0.0417
    236  CZ       -40.4570    2.5210   -4.6980 C.ar  375  TYR375      0.1957
    237  OH       -39.2040    2.0020   -4.4120 O.3   375  TYR375     -0.2866
@<TRIPOS>BOND
     1   115   114    2
     2   126   125    2
     3   114   113    1
     4   125   124    1
     5   123   124    1
     6   116   113    1
     7   116   117    1
     8   113   112    1
     9   124   127    1
    10   112   107   am
    11   117   119   ar
    12   117   118   ar
    13   127   128    1
    14   130   129   ar
    15   119   121   ar
    16   118   120   ar
    17   107   108    2
    18   107   106    1
    19   105   106    1
    20   105   111    1
    21   194   193    1
    22   148   146   am
    23   129   128    1
    24   129   131   ar
    25   100    99    1
    26   100   101    2
    27   106   109    1
    28    99    98    1
    29    99   102    1
    30   121   122   ar
    31   120   122   ar
    32   111   110    1
    33   229   228    2
    34   103   102    1
    35   193   195    1
    36   193   192    2
    37   146   147    2
    38   146   145    1
    39   233   235   ar
    40   233   231   ar
    41   224   222   ar
    42   224   225   ar
    43   222   220   ar
    44   102   104    1
    45   235   236   ar
    46   230   231    1
    47   230   227    1
    48   110   109    1
    49   215   216    1
    50   225   223   ar
    51   231   232   ar
    52   228   227    1
    53   191   192    1
    54   191   190    1
    55   220   219    1
    56   220   221   ar
    57   219   216    1
    58   145   142    1
    59   226   227    1
    60   226   217   am
    61   223   221   ar
    62    63    62    2
    63   236   237    1
    64   236   234   ar
    65   206   205   ar
    66   206   204   ar
    67   216   217    1
    68   232   234   ar
    69    79    78    1
    70   205   203   ar
    71    62    61    1
    72   217   218    2
    73   190   189    1
    74   204   202   ar
    75   142   141    1
    76   142   143    1
    77    78    76   ar
    78    78    77   ar
    79    76    74   ar
    80   144   143    2
    81    61    64    1
    82    61    60    1
    83   189   186    1
    84   141   139   am
    85    68    69    1
    86   143   149   am
    87   203   201   ar
    88    77    75   ar
    89    64    65    1
    90    74    73   ar
    91   140   139    2
    92   139   138    1
    93    66    65    2
    94    69    70    1
    95    69    72    1
    96   202   201   ar
    97    71    70    2
    98    96    95    1
    99    65    67   am
   100    75    73   ar
   101   138   137    1
   102    73    72    1
   103   201   200    1
   104   186   187    1
   105   186   185    1
   106   149   150    1
   107   162   163    2
   108   162   161    1
   109    94    93    2
   110   188   187    2
   111   187   196   am
   112   214   212    1
   113    95    97    1
   114    95    92    1
   115    93    92    1
   116    29    27    1
   117   185   183   am
   118    26    25    2
   119   213   211    1
   120   196   197    1
   121   150   151    1
   122   150   153    1
   123   160   151   am
   124   160   161    1
   125   164   161    1
   126   137   134   am
   127   200   197    1
   128   135   134    2
   129   151   152    2
   130    27    28    1
   131    27    24    1
   132   197   198    1
   133   211   212    1
   134   211   208    1
   135    92    91    1
   136    25    24    1
   137   134   133    1
   138   157   155   ar
   139   157   159   ar
   140   155   154   ar
   141   183   184    2
   142   183   182    1
   143    22    20    1
   144   159   158   ar
   145    24    23    1
   146   154   153    1
   147   154   156   ar
   148    59    58   ar
   149    59    57   ar
   150   209   208    1
   151   209   210    2
   152    58    56   ar
   153    23    17   am
   154   158   156   ar
   155   208   207    1
   156   182   181    1
   157   198   199    2
   158   181   171   am
   159    89    88    1
   160   133   136    1
   161   133   132    1
   162    57    55   ar
   163    17    16    1
   164    17    18    2
   165    19    16    1
   166    19    20    1
   167    16    15    1
   168    20    21    1
   169    48    47    1
   170    56    55   ar
   171    90    88    1
   172    11    10    2
   173    88    87    2
   174    55    54    1
   175   171   170    1
   176   171   172    2
   177   175   177   ar
   178   175   174   ar
   179   168   167    2
   180   177   179   ar
   181   170   173    1
   182   170   169    1
   183    87    86    1
   184    15    10   am
   185    10     9    1
   186     6     5    1
   187     6     7    1
   188    47    49    1
   189    47    44    1
   190   173   174    1
   191    86    85    1
   192    53    52    2
   193    83    82    2
   194   174   176   ar
   195    85    84    1
   196   167   169   am
   197   167   166    1
   198    52    51    1
   199    41    40    2
   200    45    44    1
   201    45    46    2
   202    54    51    1
   203    82    81    1
   204     5     2    1
   205   179   180    1
   206   179   178   ar
   207    30    31    1
   208    33    32    2
   209    13    12    1
   210    13    14    1
   211    44    43    1
   212    31    32    1
   213    42    40   am
   214     7     1    1
   215     9    12    1
   216     9     8    1
   217    51    50    1
   218    40    39    1
   219    84    81    1
   220     4     3    2
   221     8    14    1
   222     8     3   am
   223   166   165    1
   224     3     2    1
   225   176   178   ar
   226    81    80    1
   227     2     1    1
   228    39    38    1
   229    38    35    1
   230    37    36    2
   231    36    35    1
   232    35    34    1
