@<TRIPOS>MOLECULE
tmp/4k8hA02.pdb
 108 105 0 0 0
SMALL
GASTEIGER

@<TRIPOS>ATOM
      1  N        -43.5410    5.3710   -0.4470 N.3    39  MET39      -0.1245
      2  CA       -43.6550    6.7290   -0.9750 C.3    39  MET39       0.1570
      3  C        -44.9100    7.4930   -0.5450 C.2    39  MET39       0.2261
      4  O        -45.4420    8.3060   -1.3130 O.2    39  MET39      -0.2867
      5  CB       -43.5480    6.7200   -2.5020 C.3    39  MET39       0.0387
      6  CG       -42.2250    6.1760   -3.0200 C.3    39  MET39       0.0595
      7  SD       -40.7940    7.0130   -2.3050 S.3    39  MET39      -0.1393
      8  CE       -39.5050    6.3920   -3.3760 C.3    39  MET39       0.0692
      9  N        -35.3250   11.3420   -2.6600 N.3    82  TYR82      -0.1241
     10  CA       -36.7040   11.0280   -3.0270 C.3    82  TYR82       0.1605
     11  C        -37.6150   11.8080   -2.0850 C.2    82  TYR82       0.2264
     12  O        -37.5140   11.6630   -0.8740 O.2    82  TYR82      -0.2867
     13  CB       -37.0040    9.5360   -2.8790 C.3    82  TYR82       0.0534
     14  CG       -36.1300    8.5880   -3.6740 C.ar   82  TYR82      -0.0201
     15  CD1      -35.4950    8.9810   -4.8430 C.ar   82  TYR82      -0.0009
     16  CD2      -35.9560    7.2920   -3.2500 C.ar   82  TYR82      -0.0009
     17  CE1      -34.7200    8.0930   -5.5670 C.ar   82  TYR82       0.0417
     18  CE2      -35.1860    6.3940   -3.9520 C.ar   82  TYR82       0.0417
     19  CZ       -34.5640    6.7940   -5.1100 C.ar   82  TYR82       0.1957
     20  OH       -33.7850    5.8900   -5.8060 O.3    82  TYR82      -0.2866
     21  N        -28.4560    6.1440   -6.6170 N.3   121  ALA121     -0.1245
     22  CA       -29.8650    5.9440   -6.9290 C.3   121  ALA121      0.1562
     23  C        -30.7170    7.1970   -6.6670 C.2   121  ALA121      0.2260
     24  O        -31.8670    7.2540   -7.0770 O.2   121  ALA121     -0.2867
     25  CB       -30.4260    4.7400   -6.1580 C.3   121  ALA121      0.0290
     26  N        -32.1370   11.1060   -6.9270 N.3   123  PHE123     -0.1241
     27  CA       -32.4030   11.9970   -8.0590 C.3   123  PHE123      0.1605
     28  C        -31.5120   13.2540   -7.9340 C.2   123  PHE123      0.2264
     29  O        -31.6710   14.0400   -6.9830 O.2   123  PHE123     -0.2867
     30  CB       -33.8910   12.3590   -8.0970 C.3   123  PHE123      0.0534
     31  CG       -34.8050   11.1880   -8.4210 C.ar  123  PHE123     -0.0203
     32  CD1      -34.3910   10.1580   -9.2550 C.ar  123  PHE123     -0.0042
     33  CD2      -36.0710   11.1220   -7.8880 C.ar  123  PHE123     -0.0042
     34  CE1      -35.2330    9.0900   -9.5540 C.ar  123  PHE123     -0.0003
     35  CE2      -36.9150   10.0620   -8.1910 C.ar  123  PHE123     -0.0003
     36  CZ       -36.4920    9.0470   -9.0200 C.ar  123  PHE123     -0.0000
     37  N        -24.8740    4.8900  -12.6540 N.3   143  MET143     -0.1245
     38  CA       -25.9410    3.8970  -12.5340 C.3   143  MET143      0.1570
     39  C        -26.5300    3.5800  -13.9030 C.2   143  MET143      0.2261
     40  O        -26.6820    2.4220  -14.2790 O.2   143  MET143     -0.2867
     41  CB       -27.0280    4.4170  -11.5990 C.3   143  MET143      0.0387
     42  CG       -28.1890    3.4940  -11.4390 C.3   143  MET143      0.0595
     43  SD       -29.3670    4.1840  -10.2730 S.3   143  MET143     -0.1393
     44  CE       -30.9050    3.6360  -11.0010 C.3   143  MET143      0.0692
     45  N        -30.2170   -5.0010   -9.1840 N.3   250  PHE250     -0.1227
     46  CA       -30.9560   -3.7530   -9.0980 C.3   250  PHE250      0.1736
     47  C        -30.0030   -2.5960   -8.7900 C.2   250  PHE250      0.2595
     48  O        -29.0550   -2.7440   -7.9980 O.2   250  PHE250     -0.2718
     49  CB       -32.0250   -3.8670   -8.0170 C.3   250  PHE250      0.0547
     50  CG       -32.9550   -2.6930   -7.9590 C.ar  250  PHE250     -0.0202
     51  CD1      -33.7760   -2.4040   -9.0260 C.ar  250  PHE250     -0.0042
     52  CD2      -33.0250   -1.8990   -6.8250 C.ar  250  PHE250     -0.0042
     53  CE1      -34.6430   -1.3360   -8.9800 C.ar  250  PHE250     -0.0003
     54  CE2      -33.9020   -0.8260   -6.7700 C.ar  250  PHE250     -0.0003
     55  CZ       -34.7140   -0.5480   -7.8550 C.ar  250  PHE250     -0.0000
     56  N        -30.2330   -1.4650   -9.4570 N.am  251  ASN251     -0.1974
     57  CA       -29.3910   -0.2670   -9.3130 C.3   251  ASN251      0.1688
     58  C        -27.9660   -0.4820   -9.8150 C.2   251  ASN251      0.2292
     59  O        -27.0260    0.1630   -9.3570 O.2   251  ASN251     -0.2864
     60  CB       -29.4390    0.2600   -7.8710 C.3   251  ASN251      0.1181
     61  CG       -30.7250    0.9960   -7.5740 C.2   251  ASN251      0.2629
     62  OD1      -31.3370    1.5960   -8.4500 O.2   251  ASN251     -0.2716
     63  ND2      -31.1310    0.9710   -6.3220 N.am  251  ASN251     -0.0877
     64  N        -38.5590   -5.2420   -8.6630 N.3   296  PHE296     -0.1241
     65  CA       -39.5920   -4.6570   -9.5090 C.3   296  PHE296      0.1605
     66  C        -39.8830   -5.4980  -10.7530 C.2   296  PHE296      0.2264
     67  O        -40.6000   -5.0780  -11.6490 O.2   296  PHE296     -0.2867
     68  CB       -39.2220   -3.2160   -9.8000 C.3   296  PHE296      0.0534
     69  CG       -39.1730   -2.3900   -8.5430 C.ar  296  PHE296     -0.0203
     70  CD1      -40.3520   -2.0040   -7.9230 C.ar  296  PHE296     -0.0042
     71  CD2      -37.9700   -2.0760   -7.9360 C.ar  296  PHE296     -0.0042
     72  CE1      -40.3350   -1.2710   -6.7500 C.ar  296  PHE296     -0.0003
     73  CE2      -37.9430   -1.3500   -6.7540 C.ar  296  PHE296     -0.0003
     74  CZ       -39.1230   -0.9470   -6.1590 C.ar  296  PHE296     -0.0000
     75  N        -49.2850   -3.5170   -8.2540 N.3   371  ARG371     -0.1245
     76  CA       -47.9760   -2.8780   -8.3070 C.3   371  ARG371      0.1563
     77  C        -48.0620   -1.3900   -8.6230 C.2   371  ARG371      0.2260
     78  O        -47.1790   -0.6260   -8.2350 O.2   371  ARG371     -0.2867
     79  CB       -47.0480   -3.5900   -9.2930 C.3   371  ARG371      0.0307
     80  CG       -47.4540   -3.5030  -10.7380 C.3   371  ARG371      0.0489
     81  CD       -46.4230   -4.1750  -11.6400 C.3   371  ARG371      0.2205
     82  NE       -46.7760   -4.0160  -13.0490 N.pl3 371  ARG371     -0.0865
     83  CZ       -45.9400   -4.1990  -14.0660 C.cat 371  ARG371      0.5346
     84  NH1      -44.6730   -4.5480  -13.8500 N.pl3 371  ARG371      0.1354
     85  NH2      -46.3790   -4.0250  -15.3090 N.pl3 371  ARG371      0.1354
     86  N        -47.8250    0.5440   -5.4450 N.3   374  PHE374     -0.1227
     87  CA       -46.6880    0.3010   -4.5470 C.3   374  PHE374      0.1736
     88  C        -46.1050    1.6430   -4.1050 C.2   374  PHE374      0.2595
     89  O        -45.8120    1.8540   -2.9260 O.2   374  PHE374     -0.2718
     90  CB       -45.5970   -0.5250   -5.2400 C.3   374  PHE374      0.0547
     91  CG       -45.8480   -2.0180   -5.2790 C.ar  374  PHE374     -0.0202
     92  CD1      -46.9730   -2.5950   -4.7020 C.ar  374  PHE374     -0.0042
     93  CD2      -44.9320   -2.8440   -5.8960 C.ar  374  PHE374     -0.0042
     94  CE1      -47.1630   -3.9600   -4.7390 C.ar  374  PHE374     -0.0003
     95  CE2      -45.1180   -4.2170   -5.9440 C.ar  374  PHE374     -0.0003
     96  CZ       -46.2350   -4.7780   -5.3730 C.ar  374  PHE374     -0.0000
     97  N        -45.9320    2.5330   -5.0770 N.am  375  TYR375     -0.1976
     98  CA       -45.4940    3.8980   -4.8490 C.3   375  TYR375      0.1639
     99  C        -46.6360    4.7790   -5.3280 C.2   375  TYR375      0.2290
    100  O        -46.9310    4.8140   -6.5200 O.2   375  TYR375     -0.2864
    101  CB       -44.2730    4.2430   -5.6990 C.3   375  TYR375      0.0560
    102  CG       -42.9410    3.5990   -5.3370 C.ar  375  TYR375     -0.0198
    103  CD1      -42.8130    2.6820   -4.3050 C.ar  375  TYR375     -0.0009
    104  CD2      -41.7890    3.9720   -6.0140 C.ar  375  TYR375     -0.0009
    105  CE1      -41.5700    2.1320   -3.9930 C.ar  375  TYR375      0.0417
    106  CE2      -40.5760    3.4330   -5.7170 C.ar  375  TYR375      0.0417
    107  CZ       -40.4570    2.5210   -4.6980 C.ar  375  TYR375      0.1957
    108  OH       -39.2040    2.0020   -4.4120 O.3   375  TYR375     -0.2866
@<TRIPOS>BOND
     1    85    83    1
     2    40    39    2
     3    83    84    1
     4    83    82    2
     5    39    38    1
     6    82    81    1
     7    37    38    1
     8    38    41    1
     9    67    66    2
    10    81    80    1
    11    41    42    1
    12    42    43    1
    13    44    43    1
    14    66    65    1
    15    80    79    1
    16    58    59    2
    17    58    57    1
    18    68    65    1
    19    68    69    1
    20    34    32   ar
    21    34    36   ar
    22    65    64    1
    23    56    57    1
    24    56    47   am
    25    57    60    1
    26    79    76    1
    27    32    31   ar
    28    45    46    1
    29    46    47    1
    30    46    49    1
    31    51    53   ar
    32    51    50   ar
    33    36    35   ar
    34    53    55   ar
    35    47    48    2
    36    77    76    1
    37    77    78    2
    38    69    71   ar
    39    69    70   ar
    40    62    61    2
    41    31    30    1
    42    31    33   ar
    43    76    75    1
    44    35    33   ar
    45    30    27    1
    46    27    28    1
    47    27    26    1
    48    49    50    1
    49    50    52   ar
    50    71    73   ar
    51    28    29    2
    52    70    72   ar
    53    60    61    1
    54    55    54   ar
    55    61    63   am
    56    24    23    2
    57    22    23    1
    58    22    21    1
    59    22    25    1
    60    52    54   ar
    61    73    74   ar
    62    72    74   ar
    63   100    99    2
    64   104   106   ar
    65   104   102   ar
    66    95    93   ar
    67    95    96   ar
    68    93    91   ar
    69    20    19    1
    70   106   107   ar
    71   101   102    1
    72   101    98    1
    73    17    19   ar
    74    17    15   ar
    75    86    87    1
    76    96    94   ar
    77   102   103   ar
    78    99    98    1
    79    91    90    1
    80    91    92   ar
    81    90    87    1
    82    19    18   ar
    83    97    98    1
    84    97    88   am
    85    15    14   ar
    86    94    92   ar
    87   107   108    1
    88   107   105   ar
    89    87    88    1
    90   103   105   ar
    91    88    89    2
    92    18    16   ar
    93    14    16   ar
    94    14    13    1
    95     8     7    1
    96    10    13    1
    97    10     9    1
    98    10    11    1
    99     6     5    1
   100     6     7    1
   101     5     2    1
   102    11    12    2
   103     4     3    2
   104     2     3    1
   105     2     1    1
