@<TRIPOS>MOLECULE
tmp/4k8kA01.pdb
 88 83 0 0 0
SMALL
GASTEIGER

@<TRIPOS>ATOM
      1  N         13.5580    7.5280  -24.3930 N.3    16  ILE16      -0.1245
      2  CA        13.3800    8.9740  -24.2410 C.3    16  ILE16       0.1561
      3  C         12.5590    9.1140  -22.9600 C.2    16  ILE16       0.2260
      4  O         11.4100    8.6940  -22.9260 O.2    16  ILE16      -0.2867
      5  CB        12.6740    9.5870  -25.4830 C.3    16  ILE16       0.0252
      6  CG1       13.4990    9.3050  -26.7630 C.3    16  ILE16       0.0019
      7  CG2       12.4110   11.0750  -25.2710 C.3    16  ILE16       0.0019
      8  CD1       12.8380    9.7710  -28.0480 C.3    16  ILE16       0.0001
      9  N          3.0430    2.0460  -30.3300 N.3    37  ILE37      -0.1245
     10  CA         2.5900    3.2310  -31.0540 C.3    37  ILE37       0.1561
     11  C          3.1080    3.2420  -32.4860 C.2    37  ILE37       0.2260
     12  O          4.1940    2.7190  -32.7790 O.2    37  ILE37      -0.2867
     13  CB         2.9670    4.5570  -30.3270 C.3    37  ILE37       0.0252
     14  CG1        4.4770    4.8160  -30.3290 C.3    37  ILE37       0.0019
     15  CG2        2.3840    4.5660  -28.9110 C.3    37  ILE37       0.0019
     16  CD1        4.9370    6.0630  -29.5890 C.3    37  ILE37       0.0001
     17  N          3.9810    5.7060  -36.0830 N.3    39  ALA39      -0.1245
     18  CA         4.7990    6.8750  -36.3310 C.3    39  ALA39       0.1562
     19  C          4.0560    8.1690  -36.0440 C.2    39  ALA39       0.2260
     20  O          4.6310    9.0820  -35.4540 O.2    39  ALA39      -0.2867
     21  CB         5.2880    6.8600  -37.7690 C.3    39  ALA39       0.0290
     22  N          3.7530    8.5650  -32.3590 N.3    42  ALA42      -0.1231
     23  CA         5.0550    8.9100  -31.7800 C.3    42  ALA42       0.1694
     24  C          5.3050   10.4130  -31.8850 C.2    42  ALA42       0.2591
     25  O          5.7150   11.0600  -30.9160 O.2    42  ALA42      -0.2718
     26  CB         6.1640    8.1300  -32.4540 C.3    42  ALA42       0.0304
     27  N          5.0300   10.9850  -33.0600 N.am   43  GLU43      -0.1979
     28  CA         5.2050   12.4290  -33.2330 C.3    43  GLU43       0.1602
     29  C          4.2600   13.2150  -32.3250 C.2    43  GLU43       0.2287
     30  O          4.6520   14.2100  -31.7320 O.2    43  GLU43      -0.2864
     31  CB         4.9920   12.8400  -34.6900 C.3    43  GLU43       0.0415
     32  CG         6.0120   12.2430  -35.6400 C.3    43  GLU43       0.1163
     33  CD         5.7320   12.5890  -37.0870 C.2    43  GLU43       0.3649
     34  OE1        5.2400   13.7060  -37.3540 O.co2  43  GLU43      -0.2457
     35  OE2        6.0120   11.7400  -37.9580 O.co2  43  GLU43      -0.2457
     36  N          5.3990   12.8200  -28.5960 N.3    46  TYR46      -0.1241
     37  CA         6.6290   13.5770  -28.3900 C.3    46  TYR46       0.1605
     38  C          6.3290   15.0810  -28.3180 C.2    46  TYR46       0.2264
     39  O          6.9080   15.7950  -27.4930 O.2    46  TYR46      -0.2867
     40  CB         7.6250   13.2590  -29.4960 C.3    46  TYR46       0.0534
     41  CG         9.0800   13.6140  -29.2220 C.ar   46  TYR46      -0.0201
     42  CD1        9.6740   13.4250  -27.9510 C.ar   46  TYR46      -0.0009
     43  CD2        9.8880   14.0710  -30.2690 C.ar   46  TYR46      -0.0009
     44  CE1       11.0330   13.7230  -27.7550 C.ar   46  TYR46       0.0417
     45  CE2       11.2310   14.3810  -30.0880 C.ar   46  TYR46       0.0417
     46  CZ        11.8000   14.1970  -28.8330 C.ar   46  TYR46       0.1957
     47  OH        13.1370   14.4960  -28.6880 O.3    46  TYR46      -0.2866
     48  N         15.7000    3.6350  -42.9780 N.3   107  PHE107     -0.1241
     49  CA        14.2570    3.5600  -42.7880 C.3   107  PHE107      0.1605
     50  C         13.5640    2.0470  -42.9440 C.2   107  PHE107      0.2264
     51  O         13.9440    1.1550  -43.7570 O.2   107  PHE107     -0.2867
     52  CB        13.6020    4.4480  -43.8500 C.3   107  PHE107      0.0534
     53  CG        14.1800    5.8100  -43.8550 C.ar  107  PHE107     -0.0203
     54  CD1       13.7910    6.7010  -42.9020 C.ar  107  PHE107     -0.0042
     55  CD2       15.1830    6.1750  -44.7310 C.ar  107  PHE107     -0.0042
     56  CE1       14.3210    7.9360  -42.8380 C.ar  107  PHE107     -0.0003
     57  CE2       15.7280    7.4140  -44.6670 C.ar  107  PHE107     -0.0003
     58  CZ        15.2840    8.3160  -43.7330 C.ar  107  PHE107     -0.0000
     59  N         13.3900    4.0570  -39.1000 N.3   109  PRO109     -0.2116
     60  CA        14.4550    4.5550  -38.2370 C.3   109  PRO109      0.1372
     61  C         14.5500    3.7420  -36.9430 C.2   109  PRO109      0.2244
     62  O         13.6830    2.9340  -36.6340 O.2   109  PRO109     -0.2868
     63  CB        14.0160    5.9940  -37.9450 C.3   109  PRO109      0.0268
     64  CG        12.5270    5.9260  -38.0000 C.3   109  PRO109      0.0207
     65  CD        12.2440    4.9870  -39.1440 C.3   109  PRO109      0.0892
     66  N         12.3610    3.8670  -30.7280 N.3   112  ARG112     -0.1245
     67  CA        12.3830    4.6570  -29.4990 C.3   112  ARG112      0.1563
     68  C         11.2150    4.2870  -28.6280 C.2   112  ARG112      0.2260
     69  O         10.1470    3.9090  -29.1260 O.2   112  ARG112     -0.2867
     70  CB        12.3170    6.1540  -29.8150 C.3   112  ARG112      0.0307
     71  CG        13.6460    6.8300  -30.1010 C.3   112  ARG112      0.0489
     72  CD        13.4310    7.8730  -31.1840 C.3   112  ARG112      0.2205
     73  NE        13.3440    7.2020  -32.4720 N.pl3 112  ARG112     -0.0865
     74  CZ        13.0360    7.7910  -33.6230 C.cat 112  ARG112      0.5346
     75  NH1       12.7040    9.0740  -33.6600 N.pl3 112  ARG112      0.1354
     76  NH2       13.0050    7.0710  -34.7310 N.pl3 112  ARG112      0.1354
     77  N          7.7290    2.9350  -30.3730 N.3   126  TYR126     -0.1241
     78  CA         7.6770    2.8790  -31.8250 C.3   126  TYR126      0.1605
     79  C          8.7540    1.8810  -32.2440 C.2   126  TYR126      0.2264
     80  O          9.9470    2.1170  -32.0250 O.2   126  TYR126     -0.2867
     81  CB         7.9460    4.2620  -32.4390 C.3   126  TYR126      0.0534
     82  CG         8.1700    4.1880  -33.9240 C.ar  126  TYR126     -0.0201
     83  CD1        7.1080    3.9620  -34.7970 C.ar  126  TYR126     -0.0009
     84  CD2        9.4530    4.3050  -34.4470 C.ar  126  TYR126     -0.0009
     85  CE1        7.3340    3.8620  -36.1660 C.ar  126  TYR126      0.0417
     86  CE2        9.6820    4.2290  -35.8000 C.ar  126  TYR126      0.0417
     87  CZ         8.6290    4.0000  -36.6550 C.ar  126  TYR126      0.1957
     88  OH         8.8850    3.9140  -38.0080 O.3   126  TYR126     -0.2866
@<TRIPOS>BOND
     1    55    57   ar
     2    55    53   ar
     3    57    58   ar
     4    53    52    1
     5    53    54   ar
     6    52    49    1
     7    51    50    2
     8    58    56   ar
     9    48    49    1
    10    50    49    1
    11    54    56   ar
    12    65    59    1
    13    65    64    1
    14    59    60    1
    15    60    63    1
    16    60    61    1
    17    88    87    1
    18    64    63    1
    19    35    33   ar
    20    21    18    1
    21    34    33   ar
    22    33    32    1
    23    61    62    2
    24    87    85   ar
    25    87    86   ar
    26    18    17    1
    27    18    19    1
    28    85    83   ar
    29    19    20    2
    30    86    84   ar
    31    32    31    1
    32    83    82   ar
    33    76    74    1
    34    31    28    1
    35    84    82   ar
    36    82    81    1
    37    75    74    1
    38    74    73    2
    39    28    27    1
    40    28    29    1
    41    27    24   am
    42    12    11    2
    43    11    10    1
    44    73    72    1
    45    26    23    1
    46    81    78    1
    47    22    23    1
    48    29    30    2
    49    79    80    2
    50    79    78    1
    51    24    23    1
    52    24    25    2
    53    78    77    1
    54    72    71    1
    55    10     9    1
    56    10    13    1
    57    66    67    1
    58    14    13    1
    59    14    16    1
    60    13    15    1
    61    43    45   ar
    62    43    41   ar
    63    71    70    1
    64    45    46   ar
    65    70    67    1
    66    67    68    1
    67    40    41    1
    68    40    37    1
    69    41    42   ar
    70    69    68    2
    71    46    47    1
    72    46    44   ar
    73    36    37    1
    74    37    38    1
    75    38    39    2
    76     8     6    1
    77    42    44   ar
    78     6     5    1
    79     5     7    1
    80     5     2    1
    81     1     2    1
    82     2     3    1
    83     3     4    2
