@<TRIPOS>MOLECULE
tmp/4k8nB00.pdb
 192 184 0 0 0
SMALL
GASTEIGER

@<TRIPOS>ATOM
      1  N         38.6880  -59.6570   25.6410 N.3    28  TRP28      -0.1241
      2  CA        39.5930  -58.5450   25.9200 C.3    28  TRP28       0.1605
      3  C         40.8610  -58.6830   25.0830 C.2    28  TRP28       0.2264
      4  O         41.4010  -57.6890   24.5860 O.2    28  TRP28      -0.2867
      5  CB        39.9600  -58.5020   27.4040 C.3    28  TRP28       0.0550
      6  CG        39.3720  -57.3400   28.1350 C.ar   28  TRP28       0.0003
      7  CD1       38.2880  -57.3520   28.9610 C.ar   28  TRP28       0.0946
      8  CD2       39.8360  -55.9820   28.1050 C.ar   28  TRP28       0.0152
      9  NE1       38.0490  -56.0850   29.4460 N.ar   28  TRP28      -0.2442
     10  CE2       38.9880  -55.2270   28.9310 C.ar   28  TRP28       0.0810
     11  CE3       40.8880  -55.3360   27.4510 C.ar   28  TRP28       0.0012
     12  CZ2       39.1610  -53.8520   29.1230 C.ar   28  TRP28       0.0191
     13  CZ3       41.0570  -53.9750   27.6450 C.ar   28  TRP28       0.0001
     14  CH2       40.2020  -53.2500   28.4690 C.ar   28  TRP28       0.0015
     15  N         40.4350  -56.7830   22.0240 N.3    31  LEU31      -0.1245
     16  CA        40.6920  -55.3440   22.1280 C.3    31  LEU31       0.1561
     17  C         42.1940  -55.0580   22.1850 C.2    31  LEU31       0.2260
     18  O         42.6510  -53.9880   21.7720 O.2    31  LEU31      -0.2867
     19  CB        40.0000  -54.7420   23.3520 C.3    31  LEU31       0.0270
     20  CG        38.5450  -54.2960   23.2240 C.3    31  LEU31       0.0019
     21  CD1       37.6410  -55.4530   22.8760 C.3    31  LEU31       0.0001
     22  CD2       38.1110  -53.6770   24.5270 C.3    31  LEU31       0.0001
     23  N         43.1990  -55.1170   18.5820 N.3    34  PHE34      -0.1227
     24  CA        42.7160  -53.8780   17.9770 C.3    34  PHE34       0.1736
     25  C         43.5740  -52.6630   18.3420 C.2    34  PHE34       0.2595
     26  O         43.7820  -51.7700   17.5180 O.2    34  PHE34      -0.2718
     27  CB        41.2570  -53.6200   18.3660 C.3    34  PHE34       0.0547
     28  CG        40.7270  -52.2970   17.8850 C.ar   34  PHE34      -0.0202
     29  CD1       40.4160  -52.1050   16.5470 C.ar   34  PHE34      -0.0042
     30  CD2       40.5340  -51.2450   18.7710 C.ar   34  PHE34      -0.0042
     31  CE1       39.9250  -50.8820   16.0990 C.ar   34  PHE34      -0.0003
     32  CE2       40.0410  -50.0200   18.3300 C.ar   34  PHE34      -0.0003
     33  CZ        39.7390  -49.8390   16.9940 C.ar   34  PHE34      -0.0000
     34  N         44.0650  -52.6290   19.5760 N.am   35  LEU35      -0.1980
     35  CA        44.8530  -51.4950   20.0390 C.3    35  LEU35       0.1596
     36  C         46.2210  -51.4390   19.3570 C.2    35  LEU35       0.2287
     37  O         46.7100  -50.3580   19.0120 O.2    35  LEU35      -0.2864
     38  CB        45.0210  -51.5350   21.5610 C.3    35  LEU35       0.0297
     39  CG        44.4320  -50.3520   22.3350 C.3    35  LEU35       0.0022
     40  CD1       44.9850  -50.2870   23.7500 C.3    35  LEU35       0.0001
     41  CD2       44.6960  -49.0510   21.5950 C.3    35  LEU35       0.0001
     42  N         50.7530  -48.9300   26.1450 N.3    45  ILE45      -0.1245
     43  CA        49.6770  -49.0330   27.1310 C.3    45  ILE45       0.1561
     44  C         48.9510  -50.3890   27.1580 C.2    45  ILE45       0.2260
     45  O         48.4850  -50.8260   28.2120 O.2    45  ILE45      -0.2867
     46  CB        48.6780  -47.8540   26.9370 C.3    45  ILE45       0.0252
     47  CG1       47.4270  -48.2790   26.1690 C.3    45  ILE45       0.0019
     48  CG2       49.3560  -46.7140   26.1930 C.3    45  ILE45       0.0019
     49  CD1       46.2210  -48.4990   27.0340 C.3    45  ILE45       0.0001
     50  N         49.9750  -53.2100   29.7120 N.3    48  ASP48      -0.1225
     51  CA        49.3380  -53.1470   31.0230 C.3    48  ASP48       0.1805
     52  C         48.0620  -53.9850   31.0500 C.2    48  ASP48       0.2597
     53  O         47.8070  -54.7080   32.0160 O.2    48  ASP48      -0.2718
     54  CB        49.0300  -51.6920   31.3760 C.3    48  ASP48       0.1424
     55  CG        48.5080  -51.5240   32.7910 C.2    48  ASP48       0.3668
     56  OD1       49.0460  -52.1710   33.7170 O.co2  48  ASP48      -0.2456
     57  OD2       47.5580  -50.7320   32.9740 O.co2  48  ASP48      -0.2456
     58  N         47.2740  -53.8870   29.9810 N.am   49  VAL49      -0.1980
     59  CA        46.1290  -54.7660   29.7780 C.3    49  VAL49       0.1595
     60  C         46.5620  -56.2440   29.7260 C.2    49  VAL49       0.2287
     61  O         46.0840  -57.0630   30.5200 O.2    49  VAL49      -0.2864
     62  CB        45.3440  -54.3700   28.5100 C.3    49  VAL49       0.0276
     63  CG1       44.3840  -55.4710   28.0970 C.3    49  VAL49       0.0022
     64  CG2       44.6010  -53.0560   28.7360 C.3    49  VAL49       0.0022
     65  N         47.6570  -57.9050   32.8900 N.3    52  LYS52      -0.1245
     66  CA        46.6100  -58.3240   33.8100 C.3    52  LYS52       0.1561
     67  C         45.8880  -59.5690   33.3210 C.2    52  LYS52       0.2260
     68  O         45.7130  -60.5190   34.0590 O.2    52  LYS52      -0.2867
     69  CB        45.6290  -57.1950   34.0210 C.3    52  LYS52       0.0271
     70  CG        46.2210  -56.0180   34.7550 C.3    52  LYS52       0.0035
     71  CD        45.4570  -54.7640   34.4340 C.3    52  LYS52       0.0206
     72  CE        45.7990  -53.6380   35.3770 C.3    52  LYS52       0.1093
     73  NZ        47.1540  -53.7450   35.9440 N.3    52  LYS52      -0.1314
     74  N         47.6400  -51.7220   49.7280 N.3    89  ARG89      -0.1245
     75  CA        48.2560  -52.8430   49.0230 C.3    89  ARG89       0.1563
     76  C         49.3950  -53.5170   49.7860 C.2    89  ARG89       0.2260
     77  O         50.5650  -53.2210   49.5480 O.2    89  ARG89      -0.2867
     78  CB        48.7740  -52.3710   47.6680 C.3    89  ARG89       0.0307
     79  CG        48.1590  -53.0840   46.4840 C.3    89  ARG89       0.0489
     80  CD        48.5030  -52.3520   45.2020 C.3    89  ARG89       0.2205
     81  NE        48.5770  -53.2520   44.0580 N.pl3  89  ARG89      -0.0865
     82  CZ        49.1630  -52.9390   42.9080 C.cat  89  ARG89       0.5346
     83  NH1       49.7270  -51.7480   42.7530 N.pl3  89  ARG89       0.1354
     84  NH2       49.1910  -53.8160   41.9140 N.pl3  89  ARG89       0.1354
     85  N         40.9710  -56.5910   42.3340 N.3    98  ARG98      -0.1245
     86  CA        41.6020  -55.3180   41.9850 C.3    98  ARG98       0.1563
     87  C         42.0300  -55.2810   40.5140 C.2    98  ARG98       0.2260
     88  O         42.1090  -54.2120   39.9100 O.2    98  ARG98      -0.2867
     89  CB        42.7850  -55.0140   42.9120 C.3    98  ARG98       0.0307
     90  CG        44.0200  -55.8640   42.6810 C.3    98  ARG98       0.0489
     91  CD        44.9840  -55.1950   41.7110 C.3    98  ARG98       0.2205
     92  NE        45.3790  -53.8670   42.1690 N.pl3  98  ARG98      -0.0865
     93  CZ        46.0350  -52.9850   41.4230 C.cat  98  ARG98       0.5346
     94  NH1       46.3610  -53.2870   40.1750 N.pl3  98  ARG98       0.1354
     95  NH2       46.3590  -51.7990   41.9190 N.pl3  98  ARG98       0.1354
     96  N         40.2710  -52.5640   37.2090 N.3   102  ARG102     -0.1231
     97  CA        40.9860  -51.6940   36.2730 C.3   102  ARG102      0.1694
     98  C         40.4730  -51.8410   34.8330 C.2   102  ARG102      0.2591
     99  O         40.1580  -50.8420   34.1780 O.2   102  ARG102     -0.2718
    100  CB        42.4940  -51.9240   36.3570 C.3   102  ARG102      0.0321
    101  CG        43.2010  -51.0100   37.3640 C.3   102  ARG102      0.0489
    102  CD        42.9820  -51.4200   38.8230 C.3   102  ARG102      0.2205
    103  NE        43.3970  -50.3770   39.7660 N.pl3 102  ARG102     -0.0865
    104  CZ        43.2100  -50.4380   41.0830 C.cat 102  ARG102      0.5346
    105  NH1       42.6200  -51.4940   41.6250 N.pl3 102  ARG102      0.1354
    106  NH2       43.6100  -49.4430   41.8650 N.pl3 102  ARG102      0.1354
    107  N         40.3770  -53.0780   34.3500 N.am  103  LEU103     -0.1980
    108  CA        39.7830  -53.3410   33.0420 C.3   103  LEU103      0.1596
    109  C         38.3580  -52.7960   33.0030 C.2   103  LEU103      0.2287
    110  O         37.9350  -52.2010   32.0070 O.2   103  LEU103     -0.2864
    111  CB        39.7770  -54.8430   32.7430 C.3   103  LEU103      0.0297
    112  CG        41.1270  -55.5680   32.8090 C.3   103  LEU103      0.0022
    113  CD1       40.9490  -57.0790   32.8750 C.3   103  LEU103      0.0001
    114  CD2       42.0160  -55.1900   31.6290 C.3   103  LEU103      0.0001
    115  N         38.2940  -49.1110   32.5750 N.3   106  ALA106     -0.1245
    116  CA        38.6560  -48.8640   31.1900 C.3   106  ALA106      0.1562
    117  C         37.4510  -49.0680   30.2800 C.2   106  ALA106      0.2260
    118  O         37.1790  -48.2420   29.3980 O.2   106  ALA106     -0.2867
    119  CB        39.7990  -49.7720   30.7740 C.3   106  ALA106      0.0290
    120  N         35.1260  -46.2380   29.9320 N.3   109  TRP109     -0.1227
    121  CA        35.5990  -45.2040   29.0280 C.3   109  TRP109      0.1737
    122  C         35.3050  -45.5880   27.5880 C.2   109  TRP109      0.2595
    123  O         34.8410  -44.7590   26.7960 O.2   109  TRP109     -0.2718
    124  CB        37.1000  -44.9780   29.1900 C.3   109  TRP109      0.0564
    125  CG        37.6160  -44.1140   28.1100 C.ar  109  TRP109      0.0003
    126  CD1       37.5400  -42.7540   28.0410 C.ar  109  TRP109      0.0946
    127  CD2       38.2540  -44.5450   26.9030 C.ar  109  TRP109      0.0152
    128  NE1       38.1070  -42.3080   26.8670 N.ar  109  TRP109     -0.2442
    129  CE2       38.5510  -43.3890   26.1510 C.ar  109  TRP109      0.0810
    130  CE3       38.6080  -45.7970   26.3880 C.ar  109  TRP109      0.0012
    131  CZ2       39.1870  -43.4510   24.9090 C.ar  109  TRP109      0.0191
    132  CZ3       39.2360  -45.8570   25.1560 C.ar  109  TRP109      0.0001
    133  CH2       39.5190  -44.6930   24.4310 C.ar  109  TRP109      0.0015
    134  N         35.5800  -46.8500   27.2640 N.am  110  LEU110     -0.1980
    135  CA        35.4060  -47.3570   25.9100 C.3   110  LEU110      0.1596
    136  C         33.9990  -47.0900   25.3900 C.2   110  LEU110      0.2287
    137  O         33.8280  -46.4590   24.3460 O.2   110  LEU110     -0.2864
    138  CB        35.7190  -48.8510   25.8460 C.3   110  LEU110      0.0297
    139  CG        35.7340  -49.3670   24.4080 C.3   110  LEU110      0.0022
    140  CD1       36.7010  -48.5470   23.5730 C.3   110  LEU110      0.0001
    141  CD2       36.0950  -50.8340   24.3490 C.3   110  LEU110      0.0001
    142  N         37.4630  -39.3150   28.2850 N.3   134  TYR134     -0.1241
    143  CA        38.5280  -39.6280   29.2380 C.3   134  TYR134      0.1605
    144  C         38.4570  -38.7440   30.4870 C.2   134  TYR134      0.2264
    145  O         38.5140  -39.2450   31.6090 O.2   134  TYR134     -0.2867
    146  CB        39.9040  -39.4850   28.5830 C.3   134  TYR134      0.0534
    147  CG        41.0450  -39.9590   29.4510 C.ar  134  TYR134     -0.0201
    148  CD1       41.2910  -41.3150   29.6200 C.ar  134  TYR134     -0.0009
    149  CD2       41.8810  -39.0520   30.1010 C.ar  134  TYR134     -0.0009
    150  CE1       42.3370  -41.7600   30.4160 C.ar  134  TYR134      0.0417
    151  CE2       42.9340  -39.4890   30.9000 C.ar  134  TYR134      0.0417
    152  CZ        43.1540  -40.8440   31.0510 C.ar  134  TYR134      0.1957
    153  OH        44.1870  -41.2940   31.8350 O.3   134  TYR134     -0.2866
    154  N         37.8690  -42.1000   33.0220 N.3   138  LEU138     -0.1245
    155  CA        39.1000  -42.7640   33.4590 C.3   138  LEU138      0.1561
    156  C         40.1920  -41.8290   34.0280 C.2   138  LEU138      0.2260
    157  O         41.1000  -42.2780   34.7360 O.2   138  LEU138     -0.2867
    158  CB        39.6440  -43.6120   32.2970 C.3   138  LEU138      0.0270
    159  CG        40.5120  -44.8410   32.5840 C.3   138  LEU138      0.0019
    160  CD1       39.9840  -45.5950   33.7820 C.3   138  LEU138      0.0001
    161  CD2       40.5540  -45.7490   31.3640 C.3   138  LEU138      0.0001
    162  N         43.5830  -41.8700   37.2570 N.3   142  HIS142     -0.1227
    163  CA        44.9340  -41.8710   36.7030 C.3   142  HIS142      0.1737
    164  C         45.7750  -40.6920   37.1830 C.2   142  HIS142      0.2438
    165  O         45.2700  -39.5720   37.3040 O.2   142  HIS142     -0.2733
    166  CB        44.8890  -41.9210   35.1720 C.3   142  HIS142      0.0758
    167  CG        44.6570  -43.2950   34.6230 C.ar  142  HIS142      0.0818
    168  ND1       44.0350  -43.5220   33.4120 N.ar  142  HIS142     -0.2268
    169  CD2       44.9660  -44.5150   35.1220 C.ar  142  HIS142      0.1154
    170  CE1       43.9690  -44.8230   33.1900 C.ar  142  HIS142      0.1986
    171  NE2       44.5280  -45.4480   34.2110 N.ar  142  HIS142     -0.2212
    172  N         47.0650  -40.9510   37.4650 N.am  143  PRO143     -0.2729
    173  CA        48.0080  -39.9120   37.8930 C.3   143  PRO143      0.1401
    174  C         48.2770  -38.9270   36.7620 C.2   143  PRO143      0.2269
    175  O         48.0050  -39.2560   35.6040 O.2   143  PRO143     -0.2865
    176  CB        49.2870  -40.7020   38.2010 C.3   143  PRO143      0.0296
    177  CG        48.8520  -42.1310   38.3580 C.3   143  PRO143      0.0237
    178  CD        47.6890  -42.2860   37.4360 C.3   143  PRO143      0.0939
    179  N         50.1190  -40.3010   33.6050 N.3   146  VAL146     -0.1245
    180  CA        49.4130  -41.3030   32.8080 C.3   146  VAL146      0.1561
    181  C         48.3650  -40.6100   31.9500 C.2   146  VAL146      0.2260
    182  O         48.1280  -40.9970   30.8010 O.2   146  VAL146     -0.2867
    183  CB        48.7370  -42.3670   33.6890 C.3   146  VAL146      0.0252
    184  CG1       48.0430  -43.4130   32.8220 C.3   146  VAL146      0.0019
    185  CG2       49.7590  -43.0270   34.5990 C.3   146  VAL146      0.0019
    186  N         48.4420  -40.5390   27.9500 N.3   150  VAL150     -0.1245
    187  CA        47.2280  -40.9010   27.2270 C.3   150  VAL150      0.1561
    188  C         46.7820  -39.7640   26.3110 C.2   150  VAL150      0.2260
    189  O         46.4730  -39.9900   25.1360 O.2   150  VAL150     -0.2867
    190  CB        46.0820  -41.3030   28.2000 C.3   150  VAL150      0.0252
    191  CG1       44.7240  -41.2930   27.5020 C.3   150  VAL150      0.0019
    192  CG2       46.3530  -42.6750   28.8110 C.3   150  VAL150      0.0019
@<TRIPOS>BOND
     1    31    29   ar
     2    31    33   ar
     3    29    28   ar
     4    33    32   ar
     5    26    25    2
     6    28    27    1
     7    28    30   ar
     8    24    25    1
     9    24    27    1
    10    24    23    1
    11    32    30   ar
    12    25    34   am
    13    37    36    2
    14    36    35    1
    15    34    35    1
    16    35    38    1
    17    38    39    1
    18    41    39    1
    19    18    17    2
    20    15    16    1
    21    16    17    1
    22    16    19    1
    23    39    40    1
    24    21    20    1
    25    20    19    1
    26    20    22    1
    27   140   139    1
    28   137   136    2
    29   141   139    1
    30   139   138    1
    31   133   131   ar
    32   133   132   ar
    33     4     3    2
    34   131   129   ar
    35     3     2    1
    36   189   188    2
    37   132   130   ar
    38   136   135    1
    39     1     2    1
    40   138   135    1
    41   135   134    1
    42     2     5    1
    43    42    43    1
    44   129   128   ar
    45   129   127   ar
    46    47    46    1
    47    47    49    1
    48    48    46    1
    49   188   187    1
    50   130   127   ar
    51   123   122    2
    52   128   126   ar
    53   127   125   ar
    54    46    43    1
    55    43    44    1
    56    44    45    2
    57   187   186    1
    58   187   190    1
    59   134   122   am
    60     5     6    1
    61    11    13   ar
    62    11     8   ar
    63   191   190    1
    64   122   121    1
    65    13    14   ar
    66   126   125   ar
    67    63    62    1
    68     8     6   ar
    69     8    10   ar
    70   125   124    1
    71     6     7   ar
    72   190   192    1
    73   142   143    1
    74    14    12   ar
    75    62    64    1
    76    62    59    1
    77   146   143    1
    78   146   147    1
    79    10    12   ar
    80    10     9   ar
    81     7     9   ar
    82   121   124    1
    83   121   120    1
    84   143   144    1
    85   118   117    2
    86   147   148   ar
    87   147   149   ar
    88   148   150   ar
    89    50    51    1
    90    60    59    1
    91    60    61    2
    92    59    58    1
    93    58    52   am
    94   149   151   ar
    95   117   116    1
    96   150   152   ar
    97   144   145    2
    98   119   116    1
    99   182   181    2
   100   151   152   ar
   101    51    52    1
   102    51    54    1
   103    52    53    2
   104   152   153    1
   105   116   115    1
   106   161   159    1
   107    54    55    1
   108   114   112    1
   109   181   180    1
   110   110   109    2
   111   158   159    1
   112   158   155    1
   113   159   160    1
   114   111   112    1
   115   111   108    1
   116    55    57   ar
   117    55    56   ar
   118   180   179    1
   119   180   183    1
   120   112   113    1
   121   184   183    1
   122    65    66    1
   123   109   108    1
   124   154   155    1
   125   108   107    1
   126   170   168   ar
   127   170   171   ar
   128    67    66    1
   129    67    68    2
   130   168   167   ar
   131   155   156    1
   132   183   185    1
   133    66    69    1
   134    69    70    1
   135   156   157    2
   136    99    98    2
   137   171   169   ar
   138   107    98   am
   139    71    70    1
   140    71    72    1
   141   167   169   ar
   142   167   166    1
   143    98    97    1
   144   166   163    1
   145    72    73    1
   146   175   174    2
   147    97   100    1
   148    97    96    1
   149   100   101    1
   150   163   164    1
   151   163   162    1
   152   174   173    1
   153   164   165    2
   154   164   172   am
   155   101   102    1
   156   178   172    1
   157   178   177    1
   158   172   173    1
   159   173   176    1
   160   176   177    1
   161   102   103    1
   162   103   104    2
   163    88    87    2
   164    94    93    1
   165    87    86    1
   166   104   105    1
   167   104   106    1
   168    93    95    1
   169    93    92    2
   170    91    92    1
   171    91    90    1
   172    84    82    1
   173    86    85    1
   174    86    89    1
   175    90    89    1
   176    83    82    1
   177    82    81    2
   178    81    80    1
   179    80    79    1
   180    79    78    1
   181    78    75    1
   182    75    74    1
   183    75    76    1
   184    77    76    2
