@<TRIPOS>MOLECULE
tmp/4k8pA00.pdb
 149 134 0 0 0
SMALL
GASTEIGER

@<TRIPOS>ATOM
      1  N         73.9120   15.3370   33.5400 N.3    12  ASN12      -0.1240
      2  CA        73.9820   15.1040   32.1200 C.3    12  ASN12       0.1653
      3  C         73.1250   16.1180   31.3530 C.2    12  ASN12       0.2266
      4  O         71.8920   16.1510   31.4860 O.2    12  ASN12      -0.2867
      5  CB        73.5480   13.6770   31.8070 C.3    12  ASN12       0.1155
      6  CG        74.5190   12.6400   32.3450 C.2    12  ASN12       0.2627
      7  OD1       75.7350   12.7990   32.2500 O.2    12  ASN12      -0.2716
      8  ND2       73.9790   11.5500   32.8990 N.am   12  ASN12      -0.0877
      9  N         71.1160   17.3800   28.5350 N.3    14  ILE14      -0.1245
     10  CA        70.3570   16.6080   27.5360 C.3    14  ILE14       0.1561
     11  C         69.2250   17.4440   26.9410 C.2    14  ILE14       0.2260
     12  O         68.5850   18.2220   27.6650 O.2    14  ILE14      -0.2867
     13  CB        69.7760   15.3170   28.1830 C.3    14  ILE14       0.0252
     14  CG1       70.8920   14.3250   28.5400 C.3    14  ILE14       0.0019
     15  CG2       68.7110   14.6640   27.3060 C.3    14  ILE14       0.0019
     16  CD1       70.5200   13.3730   29.6440 C.3    14  ILE14       0.0001
     17  N         65.5950   16.8280   25.1980 N.3    16  ASP16      -0.1239
     18  CA        64.5770   15.7950   25.0570 C.3    16  ASP16       0.1674
     19  C         63.8920   15.8540   23.6980 C.2    16  ASP16       0.2266
     20  O         63.6250   16.9350   23.1830 O.2    16  ASP16      -0.2867
     21  CB        63.5290   15.9130   26.1750 C.3    16  ASP16       0.1410
     22  CG        64.1030   15.6370   27.5420 C.2    16  ASP16       0.3668
     23  OD1       65.1800   14.9990   27.6200 O.co2  16  ASP16      -0.2456
     24  OD2       63.4630   16.0230   28.5480 O.co2  16  ASP16      -0.2456
     25  N         69.8670    3.4890   28.3950 N.3    37  LEU37      -0.1245
     26  CA        71.0600    4.0430   27.7100 C.3    37  LEU37       0.1561
     27  C         71.1790    3.4160   26.3300 C.2    37  LEU37       0.2260
     28  O         70.9380    2.2200   26.1620 O.2    37  LEU37      -0.2867
     29  CB        72.3400    3.8310   28.5140 C.3    37  LEU37       0.0270
     30  CG        72.6080    4.7270   29.7330 C.3    37  LEU37       0.0019
     31  CD1       73.7770    4.1790   30.5400 C.3    37  LEU37       0.0001
     32  CD2       72.8440    6.1870   29.3560 C.3    37  LEU37       0.0001
     33  N         66.0990   19.2210   28.5350 N.3    57  GLY57      -0.1210
     34  CA        65.9140   18.3020   29.6430 C.3    57  GLY57       0.1956
     35  C         67.1420   18.1760   30.5220 C.2    57  GLY57       0.2612
     36  O         67.8070   19.1660   30.8320 O.2    57  GLY57      -0.2717
     37  N         67.4550   16.9460   30.9210 N.am   58  GLY58      -0.1942
     38  CA        68.5040   16.6910   31.9100 C.3    58  GLY58       0.2014
     39  C         67.8790   16.7680   33.2960 C.2    58  GLY58       0.2639
     40  O         67.3470   17.8120   33.6810 O.2    58  GLY58      -0.2714
     41  N         67.9270   15.6830   34.0580 N.am   59  SER59      -0.1949
     42  CA        67.3130   15.6610   35.3890 C.3    59  SER59       0.1924
     43  C         67.7120   16.8530   36.2630 C.2    59  SER59       0.2314
     44  O         66.8500   17.6470   36.6830 O.2    59  SER59      -0.2863
     45  CB        67.6020   14.3280   36.0850 C.3    59  SER59       0.2116
     46  OG        67.0090   14.2590   37.3650 O.3    59  SER59      -0.2180
     47  N         66.6520   20.2780   34.7630 N.3    62  ASN62      -0.1240
     48  CA        65.2580   20.5390   35.1520 C.3    62  ASN62       0.1653
     49  C         65.1520   21.0360   36.5880 C.2    62  ASN62       0.2266
     50  O         64.4510   22.0140   36.8740 O.2    62  ASN62      -0.2867
     51  CB        64.4000   19.2890   34.9590 C.3    62  ASN62       0.1155
     52  CG        64.3960   18.7890   33.5220 C.2    62  ASN62       0.2627
     53  OD1       64.6630   19.5440   32.5790 O.2    62  ASN62      -0.2716
     54  ND2       64.0540   17.5240   33.3440 N.am   62  ASN62      -0.0877
     55  N         67.6900   12.5700   24.5230 N.3   114  SER114     -0.1217
     56  CA        66.8980   11.4680   25.0330 C.3   114  SER114      0.1889
     57  C         65.5580   11.4200   24.3100 C.2   114  SER114      0.2288
     58  O         64.7790   12.3890   24.3690 O.2   114  SER114     -0.2866
     59  CB        66.6760   11.6180   26.5510 C.3   114  SER114      0.2089
     60  OG        66.0470   10.4570   27.0820 O.3   114  SER114     -0.2183
     61  N         62.0590   10.3450   24.4000 N.3   115  ILE115     -0.1245
     62  CA        61.1400   10.0550   25.4860 C.3   115  ILE115      0.1561
     63  C         59.7820    9.7260   24.8900 C.2   115  ILE115      0.2260
     64  O         59.1660   10.5370   24.1770 O.2   115  ILE115     -0.2867
     65  CB        61.0710   11.2230   26.4960 C.3   115  ILE115      0.0252
     66  CG1       62.4760   11.5590   27.0180 C.3   115  ILE115      0.0019
     67  CG2       60.1040   10.8850   27.6320 C.3   115  ILE115      0.0019
     68  CD1       62.5080   12.6990   28.0070 C.3   115  ILE115      0.0001
     69  N         56.4130    7.9040   31.1530 N.3   123  ARG123     -0.1245
     70  CA        57.5030    8.2150   30.1800 C.3   123  ARG123      0.1563
     71  C         58.7850    7.1590   30.2220 C.2   123  ARG123      0.2260
     72  O         59.2550    6.6120   31.2650 O.2   123  ARG123     -0.2867
     73  CB        58.0610    9.6150   30.4300 C.3   123  ARG123      0.0307
     74  CG        59.3610    9.7440   31.1910 C.3   123  ARG123      0.0489
     75  CD        59.1520    9.6190   32.6330 C.3   123  ARG123      0.2205
     76  NE        60.3520    9.7150   33.4500 N.pl3 123  ARG123     -0.0865
     77  CZ        61.1610    8.7340   33.7510 C.cat 123  ARG123      0.5346
     78  NH1       61.0450    7.5810   33.1830 N.pl3 123  ARG123      0.1354
     79  NH2       62.1100    8.9480   34.6070 N.pl3 123  ARG123      0.1354
     80  N         68.4110    7.2820   25.9790 N.3   126  THR126     -0.1218
     81  CA        69.3600    8.3850   26.1050 C.3   126  THR126      0.1862
     82  C         70.7030    8.0610   25.4870 C.2   126  THR126      0.2287
     83  O         71.3600    7.1040   25.8900 O.2   126  THR126     -0.2866
     84  CB        69.5820    8.7700   27.5870 C.3   126  THR126      0.1770
     85  OG1       68.3120    9.1150   28.1520 O.3   126  THR126     -0.2211
     86  CG2       70.5230    9.9800   27.7080 C.3   126  THR126      0.0375
     87  N         74.2680    9.5940   25.4000 N.3   128  LEU128     -0.1245
     88  CA        74.9700   10.5460   26.2660 C.3   128  LEU128      0.1561
     89  C         75.8480   11.5670   25.5140 C.2   128  LEU128      0.2260
     90  O         76.1080   12.6630   26.0230 O.2   128  LEU128     -0.2867
     91  CB        75.7970    9.8080   27.3280 C.3   128  LEU128      0.0270
     92  CG        75.0240    9.1660   28.4870 C.3   128  LEU128      0.0019
     93  CD1       75.9530    8.3380   29.3640 C.3   128  LEU128      0.0001
     94  CD2       74.3110   10.2380   29.3070 C.3   128  LEU128      0.0001
     95  N         73.0600   14.1530   40.0490 N.3   153  GLU153     -0.1245
     96  CA        72.3650   12.9410   39.6400 C.3   153  GLU153      0.1567
     97  C         73.1910   11.6870   39.8700 C.2   153  GLU153      0.2260
     98  O         74.3850   11.6560   39.5240 O.2   153  GLU153     -0.2867
     99  CB        72.0780   12.9800   38.1370 C.3   153  GLU153      0.0388
    100  CG        71.4760   14.2680   37.6220 C.3   153  GLU153      0.1160
    101  CD        71.5780   14.4020   36.1090 C.2   153  GLU153      0.3649
    102  OE1       72.4260   13.7210   35.4750 O.co2 153  GLU153     -0.2457
    103  OE2       70.8050   15.2010   35.5500 O.co2 153  GLU153     -0.2457
    104  N         72.6800    9.4940   37.8800 N.3   155  TYR155     -0.1241
    105  CA        72.9020    9.2560   36.4420 C.3   155  TYR155      0.1605
    106  C         74.3480    9.5860   36.0450 C.2   155  TYR155      0.2264
    107  O         74.8380    9.1090   35.0230 O.2   155  TYR155     -0.2867
    108  CB        71.9830   10.1410   35.6060 C.3   155  TYR155      0.0534
    109  CG        70.5230    9.7400   35.5080 C.ar  155  TYR155     -0.0201
    110  CD1       70.1310    8.4140   35.2520 C.ar  155  TYR155     -0.0009
    111  CD2       69.5250   10.7230   35.5600 C.ar  155  TYR155     -0.0009
    112  CE1       68.7870    8.0790   35.1150 C.ar  155  TYR155      0.0417
    113  CE2       68.1870   10.3990   35.4180 C.ar  155  TYR155      0.0417
    114  CZ        67.8180    9.0810   35.1970 C.ar  155  TYR155      0.1957
    115  OH        66.4870    8.7570   35.0500 O.3   155  TYR155     -0.2866
    116  N         77.2140    6.8670   35.1000 N.3   158  ASP158     -0.1239
    117  CA        77.3290    6.2370   33.7760 C.3   158  ASP158      0.1674
    118  C         78.4930    6.7730   32.9140 C.2   158  ASP158      0.2266
    119  O         79.3360    5.9690   32.4940 O.2   158  ASP158     -0.2867
    120  CB        75.9960    6.2390   33.0250 C.3   158  ASP158      0.1410
    121  CG        75.0020    5.2490   33.6040 C.2   158  ASP158      0.3668
    122  OD1       75.3870    4.0920   33.8910 O.co2 158  ASP158     -0.2456
    123  OD2       73.8320    5.6320   33.7670 O.co2 158  ASP158     -0.2456
    124  N         57.1610   13.0310   32.9130 N.3   267  THR267     -0.1203
    125  CA        58.5480   13.4890   32.7730 C.3   267  THR267      0.1994
    126  C         58.8340   14.7120   33.6500 C.2   267  THR267      0.2618
    127  O         58.1370   15.7270   33.5500 O.2   267  THR267     -0.2717
    128  CB        58.8770   13.8540   31.3110 C.3   267  THR267      0.1784
    129  OG1       58.5050   12.7860   30.4370 O.3   267  THR267     -0.2211
    130  CG2       60.3440   14.1340   31.1360 C.3   267  THR267      0.0376
    131  N         59.8480   14.6000   34.5040 N.am  268  GLY268     -0.1956
    132  CA        60.3100   15.7180   35.3150 C.3   268  GLY268      0.1869
    133  C         59.7550   15.7530   36.7270 C.2   268  GLY268      0.2309
    134  O         60.1730   16.5970   37.5320 O.2   268  GLY268     -0.2863
    135  N         62.3410   15.4650   39.3490 N.3   271  ASP271     -0.1239
    136  CA        63.2450   16.5980   39.2180 C.3   271  ASP271      0.1674
    137  C         62.6640   17.8210   39.8960 C.2   271  ASP271      0.2266
    138  O         63.3610   18.5050   40.6320 O.2   271  ASP271     -0.2867
    139  CB        63.5110   16.9320   37.7450 C.3   271  ASP271      0.1410
    140  CG        64.0090   15.7330   36.9470 C.2   271  ASP271      0.3668
    141  OD1       64.5840   14.7940   37.5520 O.co2 271  ASP271     -0.2456
    142  OD2       63.8440   15.7440   35.7060 O.co2 271  ASP271     -0.2456
    143  N         59.5240   18.5720   30.4200 N.3   307  PRO307     -0.2116
    144  CA        60.0640   18.3790   31.7650 C.3   307  PRO307      0.1372
    145  C         60.2340   19.6360   32.6240 C.2   307  PRO307      0.2244
    146  O         60.5690   19.5300   33.8140 O.2   307  PRO307     -0.2868
    147  CB        61.4360   17.7800   31.4750 C.3   307  PRO307      0.0268
    148  CG        61.8500   18.4870   30.2310 C.3   307  PRO307      0.0207
    149  CD        60.5990   18.6250   29.4100 C.3   307  PRO307      0.0892
@<TRIPOS>BOND
     1    20    19    2
     2    19    18    1
     3    64    63    2
     4    57    58    2
     5    57    56    1
     6    61    62    1
     7    55    56    1
     8    63    62    1
     9    56    59    1
    10    18    17    1
    11    18    21    1
    12    87    88    1
    13    62    65    1
    14    82    83    2
    15    82    81    1
    16    89    90    2
    17    89    88    1
    18    80    81    1
    19    81    84    1
    20    28    27    2
    21    21    22    1
    22    88    91    1
    23    27    26    1
    24    65    66    1
    25    65    67    1
    26    59    60    1
    27    11    10    1
    28    11    12    2
    29    66    68    1
    30    15    13    1
    31    91    92    1
    32    10    13    1
    33    10     9    1
    34    22    23   ar
    35    22    24   ar
    36    84    86    1
    37    84    85    1
    38    26    25    1
    39    26    29    1
    40    13    14    1
    41    92    94    1
    42    92    93    1
    43    29    30    1
    44    33    34    1
    45    14    16    1
    46    32    30    1
    47   149   148    1
    48   149   143    1
    49    34    35    1
    50    30    31    1
    51    70    71    1
    52    70    73    1
    53    70    69    1
    54    71    72    2
    55   148   147    1
    56   143   144    1
    57    73    74    1
    58   129   128    1
    59    35    36    2
    60    35    37   am
    61    37    38    1
    62   130   128    1
    63    74    75    1
    64   128   125    1
    65     3     4    2
    66     3     2    1
    67   147   144    1
    68   144   145    1
    69     5     2    1
    70     5     6    1
    71    38    39    1
    72     2     1    1
    73     7     6    2
    74     6     8   am
    75   119   118    2
    76    53    52    2
    77   145   146    2
    78    75    76    1
    79   125   124    1
    80   125   126    1
    81   118   117    1
    82   120   121    1
    83   120   117    1
    84    78    77    1
    85    39    40    2
    86    39    41   am
    87    54    52   am
    88    76    77    2
    89    52    51    1
    90   127   126    2
    91   121   123   ar
    92   121   122   ar
    93   126   131   am
    94    77    79    1
    95   117   116    1
    96    41    42    1
    97   131   132    1
    98    47    48    1
    99    51    48    1
   100   107   106    2
   101   115   114    1
   102   112   114   ar
   103   112   110   ar
   104    48    49    1
   105   114   113   ar
   106   110   109   ar
   107   132   133    1
   108    42    45    1
   109    42    43    1
   110   113   111   ar
   111   102   101   ar
   112   109   111   ar
   113   109   108    1
   114   103   101   ar
   115   108   105    1
   116   142   140   ar
   117   106   105    1
   118    45    46    1
   119   101   100    1
   120    43    44    2
   121   105   104    1
   122    49    50    2
   123   133   134    2
   124   140   141   ar
   125   140   139    1
   126   100    99    1
   127   139   136    1
   128    99    96    1
   129   136   135    1
   130   136   137    1
   131    98    97    2
   132    96    97    1
   133    96    95    1
   134   137   138    2
