@<TRIPOS>MOLECULE
tmp/4k8xA00.pdb
 91 89 0 0 0
SMALL
GASTEIGER

@<TRIPOS>ATOM
      1  N        -28.8350   22.1930  -10.7860 N.3   267  THR267     -0.1203
      2  CA       -28.0070   22.7100   -9.7140 C.3   267  THR267      0.1994
      3  C        -27.6080   21.6810   -8.6600 C.2   267  THR267      0.2617
      4  O        -26.4250   21.5630   -8.3400 O.2   267  THR267     -0.2717
      5  CB       -28.6490   23.9440   -9.0480 C.3   267  THR267      0.1784
      6  OG1      -28.5380   25.0600   -9.9350 O.3   267  THR267     -0.2211
      7  CG2      -27.9320   24.2790   -7.7630 C.3   267  THR267      0.0376
      8  N        -28.5830   20.9480   -8.1210 N.am  268  ILE268     -0.1979
      9  CA       -28.3240   20.0300   -7.0100 C.3   268  ILE268      0.1595
     10  C        -28.5070   18.5730   -7.4090 C.2   268  ILE268      0.2287
     11  O        -29.4130   18.2450   -8.1610 O.2   268  ILE268     -0.2864
     12  CB       -29.2510   20.3380   -5.8420 C.3   268  ILE268      0.0276
     13  CG1      -29.2160   21.8290   -5.5290 C.3   268  ILE268      0.0022
     14  CG2      -28.8820   19.5220   -4.6070 C.3   268  ILE268      0.0022
     15  CD1      -30.2180   22.2080   -4.4800 C.3   268  ILE268      0.0001
     16  N        -33.6540   19.4220    1.4580 N.3   281  ALA281     -0.1231
     17  CA       -32.2520   19.4720    1.0620 C.3   281  ALA281      0.1694
     18  C        -31.6660   20.8780    1.1420 C.2   281  ALA281      0.2592
     19  O        -30.5080   21.0330    1.4870 O.2   281  ALA281     -0.2718
     20  CB       -32.0600   18.8860   -0.3420 C.3   281  ALA281      0.0304
     21  N        -32.4690   21.8970    0.8420 N.am  282  VAL282     -0.1966
     22  CA       -31.9770   23.2790    0.8140 C.3   282  VAL282      0.1727
     23  C        -32.0730   24.0090    2.1560 C.2   282  VAL282      0.2616
     24  O        -31.1330   24.6930    2.5600 O.2   282  VAL282     -0.2715
     25  CB       -32.7080   24.1150   -0.2360 C.3   282  VAL282      0.0290
     26  CG1      -32.3180   25.5820   -0.1110 C.3   282  VAL282      0.0023
     27  CG2      -32.4250   23.5790   -1.6310 C.3   282  VAL282      0.0023
     28  N        -33.2040   23.8670    2.8400 N.am  283  PHE283     -0.1960
     29  CA       -33.4500   24.6030    4.0820 C.3   283  PHE283      0.1771
     30  C        -33.3220   23.7700    5.3710 C.2   283  PHE283      0.2620
     31  O        -33.4120   24.3090    6.4740 O.2   283  PHE283     -0.2715
     32  CB       -34.8150   25.3100    4.0310 C.3   283  PHE283      0.0574
     33  CG       -34.9140   26.3570    2.9540 C.ar  283  PHE283     -0.0200
     34  CD1      -34.2350   27.5600    3.0740 C.ar  283  PHE283     -0.0042
     35  CD2      -35.6690   26.1390    1.8210 C.ar  283  PHE283     -0.0042
     36  CE1      -34.3130   28.5270    2.0810 C.ar  283  PHE283     -0.0003
     37  CE2      -35.7550   27.0980    0.8260 C.ar  283  PHE283     -0.0003
     38  CZ       -35.0760   28.2950    0.9570 C.ar  283  PHE283     -0.0000
     39  N        -33.1170   22.4640    5.2370 N.am  284  GLY284     -0.1940
     40  CA       -32.9240   21.6120    6.3980 C.3   284  GLY284      0.2014
     41  C        -34.2160   21.2030    7.0700 C.2   284  GLY284      0.2638
     42  O        -34.3380   20.0750    7.5410 O.2   284  GLY284     -0.2714
     43  N        -35.1780   22.1220    7.1230 N.am  285  LYS285     -0.1977
     44  CA       -36.5110   21.8410    7.6660 C.3   285  LYS285      0.1596
     45  C        -37.2670   20.8430    6.7880 C.2   285  LYS285      0.2287
     46  O        -37.2440   20.9400    5.5690 O.2   285  LYS285     -0.2864
     47  CB       -37.3340   23.1330    7.8050 C.3   285  LYS285      0.0298
     48  CG       -36.6520   24.2500    8.5920 C.3   285  LYS285      0.0038
     49  CD       -37.6580   25.1100    9.3660 C.3   285  LYS285      0.0206
     50  CE       -38.5380   25.9330    8.4400 C.3   285  LYS285      0.1093
     51  NZ       -37.7630   26.9620    7.6870 N.3   285  LYS285     -0.1314
     52  N        -34.4950   32.3830   -3.1890 N.3   325  GLU325     -0.1231
     53  CA       -33.1020   32.0250   -2.9810 C.3   325  GLU325      0.1699
     54  C        -32.3700   31.6530   -4.2740 C.2   325  GLU325      0.2592
     55  O        -31.1810   31.9040   -4.4060 O.2   325  GLU325     -0.2718
     56  CB       -32.9880   30.8750   -1.9770 C.3   325  GLU325      0.0402
     57  CG       -33.4420   31.1780   -0.5710 C.3   325  GLU325      0.1161
     58  CD       -32.5990   32.2320    0.1250 C.2   325  GLU325      0.3649
     59  OE1      -31.6870   31.8510    0.8970 O.co2 325  GLU325     -0.2457
     60  OE2      -32.8590   33.4410   -0.0750 O.co2 325  GLU325     -0.2457
     61  N        -33.0710   31.0470   -5.2230 N.am  326  PHE326     -0.1976
     62  CA       -32.4250   30.6380   -6.4610 C.3   326  PHE326      0.1639
     63  C        -32.4500   31.7090   -7.5440 C.2   326  PHE326      0.2290
     64  O        -31.6440   31.6920   -8.4730 O.2   326  PHE326     -0.2864
     65  CB       -33.0370   29.3430   -6.9850 C.3   326  PHE326      0.0560
     66  CG       -32.5380   28.1240   -6.2880 C.ar  326  PHE326     -0.0200
     67  CD1      -33.1400   27.6720   -5.1320 C.ar  326  PHE326     -0.0042
     68  CD2      -31.4350   27.4340   -6.7880 C.ar  326  PHE326     -0.0042
     69  CE1      -32.6610   26.5410   -4.4770 C.ar  326  PHE326     -0.0003
     70  CE2      -30.9520   26.3020   -6.1430 C.ar  326  PHE326     -0.0003
     71  CZ       -31.5650   25.8570   -4.9840 C.ar  326  PHE326     -0.0000
     72  N        -29.0420   34.1650   -8.1690 N.3   329  MET329     -0.1245
     73  CA       -27.9860   33.4620   -8.8610 C.3   329  MET329      0.1570
     74  C        -28.3180   33.3740  -10.3440 C.2   329  MET329      0.2261
     75  O        -27.4330   33.4750  -11.1990 O.2   329  MET329     -0.2867
     76  CB       -27.8110   32.0670   -8.2790 C.3   329  MET329      0.0387
     77  CG       -26.6950   31.2900   -8.9510 C.3   329  MET329      0.0595
     78  SD       -25.0520   32.0010   -8.6750 S.3   329  MET329     -0.1393
     79  CE       -24.3080   31.6380  -10.2510 C.3   329  MET329      0.0692
     80  N        -22.4590   35.9010   -6.1170 N.3   481  TYR481     -0.1241
     81  CA       -23.1370   35.2800   -7.2490 C.3   481  TYR481      0.1605
     82  C        -22.4160   35.6570   -8.5300 C.2   481  TYR481      0.2264
     83  O        -22.1730   34.8000   -9.3790 O.2   481  TYR481     -0.2867
     84  CB       -24.6120   35.7030   -7.3410 C.3   481  TYR481      0.0534
     85  CG       -25.4750   35.2460   -6.1860 C.ar  481  TYR481     -0.0201
     86  CD1      -25.4360   33.9330   -5.7400 C.ar  481  TYR481     -0.0009
     87  CD2      -26.3090   36.1350   -5.5270 C.ar  481  TYR481     -0.0009
     88  CE1      -26.2170   33.5150   -4.6670 C.ar  481  TYR481      0.0417
     89  CE2      -27.0950   35.7300   -4.4580 C.ar  481  TYR481      0.0417
     90  CZ       -27.0460   34.4210   -4.0320 C.ar  481  TYR481      0.1957
     91  OH       -27.8240   34.0250   -2.9690 O.3   481  TYR481     -0.2866
@<TRIPOS>BOND
     1    75    74    2
     2     1     2    1
     3    74    73    1
     4    79    78    1
     5     6     5    1
     6     2     5    1
     7     2     3    1
     8    83    82    2
     9     5     7    1
    10    77    78    1
    11    77    76    1
    12    73    76    1
    13    73    72    1
    14     3     4    2
    15     3     8   am
    16    82    81    1
    17    64    63    2
    18    11    10    2
    19     8     9    1
    20    63    62    1
    21    10     9    1
    22    84    81    1
    23    84    85    1
    24    81    80    1
    25     9    12    1
    26    65    62    1
    27    65    66    1
    28    68    66   ar
    29    68    70   ar
    30    62    61    1
    31    66    67   ar
    32    85    86   ar
    33    85    87   ar
    34    70    71   ar
    35    12    13    1
    36    12    14    1
    37    86    88   ar
    38    13    15    1
    39    87    89   ar
    40    61    54   am
    41    67    69   ar
    42    71    69   ar
    43    88    90   ar
    44    89    90   ar
    45    55    54    2
    46    54    53    1
    47    90    91    1
    48    52    53    1
    49    53    56    1
    50    56    57    1
    51    27    25    1
    52    57    58    1
    53    20    17    1
    54    25    26    1
    55    25    22    1
    56    60    58   ar
    57    58    59   ar
    58    22    21    1
    59    22    23    1
    60    37    38   ar
    61    37    35   ar
    62    21    18   am
    63    38    36   ar
    64    17    18    1
    65    17    16    1
    66    18    19    2
    67    35    33   ar
    68    36    34   ar
    69    23    24    2
    70    23    28   am
    71    28    29    1
    72    33    34   ar
    73    33    32    1
    74    32    29    1
    75    29    30    1
    76    39    30   am
    77    39    40    1
    78    30    31    2
    79    46    45    2
    80    40    41    1
    81    45    44    1
    82    41    43   am
    83    41    42    2
    84    43    44    1
    85    44    47    1
    86    51    50    1
    87    47    48    1
    88    50    49    1
    89    48    49    1
