@<TRIPOS>MOLECULE
tmp/4k90A00.pdb
 91 89 0 0 0
SMALL
GASTEIGER

@<TRIPOS>ATOM
      1  N         47.8430   -6.3600    3.7220 N.3   146  ASN146     -0.1225
      2  CA        47.6310   -6.1020    5.1500 C.3   146  ASN146      0.1785
      3  C         47.3340   -4.6460    5.4830 C.2   146  ASN146      0.2597
      4  O         47.7910   -4.1240    6.5020 O.2   146  ASN146     -0.2718
      5  CB        48.8480   -6.5820    5.9640 C.3   146  ASN146      0.1169
      6  CG        49.1030   -8.0620    5.7870 C.2   146  ASN146      0.2627
      7  OD1       50.2360   -8.5010    5.5440 O.2   146  ASN146     -0.2716
      8  ND2       48.0560   -8.8340    5.8800 N.am  146  ASN146     -0.0877
      9  N         46.5590   -3.9970    4.6260 N.am  147  ASN147     -0.1960
     10  CA        46.2770   -2.5990    4.8220 C.3   147  ASN147      0.1819
     11  C         45.2230   -2.1800    3.8140 C.2   147  ASN147      0.2621
     12  O         44.6420   -3.0210    3.1290 O.2   147  ASN147     -0.2715
     13  CB        47.5670   -1.7900    4.6110 C.3   147  ASN147      0.1195
     14  CG        47.7350   -0.6800    5.6210 C.2   147  ASN147      0.2630
     15  OD1       46.8140    0.1030    5.8680 O.2   147  ASN147     -0.2716
     16  ND2       48.9360   -0.5850    6.2000 N.am  147  ASN147     -0.0877
     17  N         44.9980   -0.8760    3.7330 N.am  148  ALA148     -0.1977
     18  CA        44.1510   -0.2590    2.7130 C.3   148  ALA148      0.1597
     19  C         44.4160    1.2320    2.8120 C.2   148  ALA148      0.2287
     20  O         44.9670    1.7160    3.8250 O.2   148  ALA148     -0.2864
     21  CB        42.6810   -0.5470    2.9510 C.3   148  ALA148      0.0319
     22  N         44.8940   -9.5730    2.8440 N.3   166  TRP166     -0.1241
     23  CA        45.6500   -9.7640    4.0740 C.3   166  TRP166      0.1605
     24  C         46.2370  -11.1820    4.0790 C.2   166  TRP166      0.2264
     25  O         45.5990  -12.1410    3.6350 O.2   166  TRP166     -0.2867
     26  CB        44.7540   -9.5620    5.2870 C.3   166  TRP166      0.0550
     27  CG        44.2410   -8.1380    5.4260 C.ar  166  TRP166      0.0003
     28  CD1       43.3880   -7.4810    4.5750 C.ar  166  TRP166      0.0946
     29  CD2       44.5520   -7.2140    6.4770 C.ar  166  TRP166      0.0152
     30  NE1       43.1520   -6.1980    5.0380 N.ar  166  TRP166     -0.2442
     31  CE2       43.8550   -6.0090    6.2000 C.ar  166  TRP166      0.0810
     32  CE3       45.3690   -7.2770    7.6180 C.ar  166  TRP166      0.0012
     33  CZ2       43.9470   -4.8770    7.0340 C.ar  166  TRP166      0.0191
     34  CZ3       45.4550   -6.1520    8.4500 C.ar  166  TRP166      0.0001
     35  CH2       44.7450   -4.9690    8.1500 C.ar  166  TRP166      0.0015
     36  N         36.5630   -1.9590    6.9600 N.3   181  ILE181     -0.1245
     37  CA        37.7440   -1.3940    6.3170 C.3   181  ILE181      0.1561
     38  C         37.3430   -0.4740    5.1650 C.2   181  ILE181      0.2260
     39  O         37.9090    0.6180    4.9960 O.2   181  ILE181     -0.2867
     40  CB        38.7250   -2.5090    5.8250 C.3   181  ILE181      0.0252
     41  CG1       39.2030   -3.3230    7.0350 C.3   181  ILE181      0.0019
     42  CG2       39.9000   -1.9090    5.0500 C.3   181  ILE181      0.0019
     43  CD1       40.0750   -4.5240    6.7020 C.3   181  ILE181      0.0001
     44  N         36.0220    2.5710    6.8060 N.3   184  HIS184     -0.1226
     45  CA        37.1750    3.3330    7.3020 C.3   184  HIS184      0.1752
     46  C         37.8250    4.1540    6.1920 C.2   184  HIS184      0.2595
     47  O         38.0730    5.3570    6.3730 O.2   184  HIS184     -0.2718
     48  CB        38.2110    2.4170    7.9840 C.3   184  HIS184      0.0759
     49  CG        39.4210    3.1510    8.4860 C.ar  184  HIS184      0.0818
     50  ND1       39.6650    3.3620    9.8280 N.ar  184  HIS184     -0.2268
     51  CD2       40.4490    3.7290    7.8220 C.ar  184  HIS184      0.1154
     52  CE1       40.7950    4.0370    9.9670 C.ar  184  HIS184      0.1986
     53  NE2       41.2940    4.2660    8.7660 N.ar  184  HIS184     -0.2212
     54  N         38.0970    3.5200    5.0500 N.am  185  GLU185     -0.1979
     55  CA        38.7650    4.2080    3.9470 C.3   185  GLU185      0.1602
     56  C         37.9020    5.3500    3.3880 C.2   185  GLU185      0.2287
     57  O         38.3710    6.4860    3.2380 O.2   185  GLU185     -0.2864
     58  CB        39.1470    3.2350    2.8180 C.3   185  GLU185      0.0415
     59  CG        40.1200    2.1330    3.2340 C.3   185  GLU185      0.1163
     60  CD        41.2830    2.6630    4.0690 C.2   185  GLU185      0.3649
     61  OE1       41.8570    3.7120    3.7040 O.co2 185  GLU185     -0.2457
     62  OE2       41.6190    2.0300    5.0830 O.co2 185  GLU185     -0.2457
     63  N         43.2090   -4.4660   15.3280 N.3   249  ILE249     -0.1231
     64  CA        44.4580   -3.7840   14.9840 C.3   249  ILE249      0.1692
     65  C         44.8030   -2.5610   15.8600 C.2   249  ILE249      0.2591
     66  O         45.9030   -2.0110   15.7340 O.2   249  ILE249     -0.2718
     67  CB        44.5030   -3.3940   13.4840 C.3   249  ILE249      0.0266
     68  CG1       43.4350   -2.3420   13.1480 C.3   249  ILE249      0.0019
     69  CG2       44.3900   -4.6530   12.5970 C.3   249  ILE249      0.0020
     70  CD1       43.4360   -1.8680   11.6790 C.3   249  ILE249      0.0001
     71  N         43.8670   -2.1220   16.7070 N.am  250  ARG250     -0.1980
     72  CA        44.1100   -0.9750   17.5940 C.3   250  ARG250      0.1597
     73  C         44.5480   -1.4210   18.9870 C.2   250  ARG250      0.2287
     74  O         44.4080   -2.5950   19.3390 O.2   250  ARG250     -0.2864
     75  CB        42.8700   -0.0650   17.6990 C.3   250  ARG250      0.0334
     76  CG        42.2870    0.3770   16.3510 C.3   250  ARG250      0.0492
     77  CD        43.2750    1.1040   15.4530 C.3   250  ARG250      0.2205
     78  NE        42.6020    1.5120   14.2190 N.pl3 250  ARG250     -0.0865
     79  CZ        43.1560    1.5520   13.0100 C.cat 250  ARG250      0.5346
     80  NH1       44.4460    1.2280   12.8270 N.pl3 250  ARG250      0.1354
     81  NH2       42.4110    1.9300   11.9690 N.pl3 250  ARG250      0.1354
     82  N         47.3260    6.6950   13.7660 N.3   275  HIS275     -0.1241
     83  CA        46.3950    5.5970   14.1370 C.3   275  HIS275      0.1621
     84  C         46.2020    5.4680   15.6350 C.2   275  HIS275      0.2264
     85  O         45.0810    5.2690   16.0970 O.2   275  HIS275     -0.2867
     86  CB        46.7920    4.2530   13.5130 C.3   275  HIS275      0.0745
     87  CG        46.6920    4.2480   12.0210 C.ar  275  HIS275      0.0817
     88  ND1       47.7990    4.2920   11.2030 N.ar  275  HIS275     -0.2268
     89  CD2       45.6140    4.2610   11.2010 C.ar  275  HIS275      0.1154
     90  CE1       47.4080    4.2910    9.9400 C.ar  275  HIS275      0.1986
     91  NE2       46.0870    4.2840    9.9120 N.ar  275  HIS275     -0.2212
@<TRIPOS>BOND
     1    18    19    1
     2    18    21    1
     3    18    17    1
     4    19    20    2
     5    58    59    1
     6    58    55    1
     7    22    23    1
     8    12    11    2
     9    59    60    1
    10    57    56    2
    11    56    55    1
    12    25    24    2
    13    61    60   ar
    14     1     2    1
    15    17    11   am
    16    11    10    1
    17    55    54    1
    18    60    62   ar
    19    23    24    1
    20    23    26    1
    21    28    30   ar
    22    28    27   ar
    23    13    10    1
    24    13    14    1
    25     9    10    1
    26     9     3   am
    27    39    38    2
    28    30    31   ar
    29    42    40    1
    30    54    46   am
    31     2     3    1
    32     2     5    1
    33    38    37    1
    34    26    27    1
    35    27    29   ar
    36     3     4    2
    37     7     6    2
    38    14    15    2
    39    14    16   am
    40     6     8   am
    41     6     5    1
    42    40    37    1
    43    40    41    1
    44    46    47    2
    45    46    45    1
    46    31    29   ar
    47    31    33   ar
    48    37    36    1
    49    29    32   ar
    50    43    41    1
    51    44    45    1
    52    33    35   ar
    53    45    48    1
    54    32    34   ar
    55    51    49   ar
    56    51    53   ar
    57    48    49    1
    58    35    34   ar
    59    49    50   ar
    60    53    52   ar
    61    50    52   ar
    62    91    90   ar
    63    91    89   ar
    64    90    88   ar
    65    89    87   ar
    66    88    87   ar
    67    70    68    1
    68    81    79    1
    69    87    86    1
    70    69    67    1
    71    80    79    1
    72    79    78    2
    73    68    67    1
    74    67    64    1
    75    86    83    1
    76    82    83    1
    77    83    84    1
    78    78    77    1
    79    64    63    1
    80    64    65    1
    81    77    76    1
    82    84    85    2
    83    66    65    2
    84    65    71   am
    85    76    75    1
    86    71    72    1
    87    72    75    1
    88    72    73    1
    89    73    74    2
