@<TRIPOS>MOLECULE
tmp/4k90A01.pdb
 83 79 0 0 0
SMALL
GASTEIGER

@<TRIPOS>ATOM
      1  N         35.6730   18.8520   19.3960 N.3   339  ARG339     -0.1231
      2  CA        34.6430   18.6460   20.4070 C.3   339  ARG339      0.1694
      3  C         33.6330   19.7980   20.4230 C.2   339  ARG339      0.2592
      4  O         32.4250   19.5570   20.3470 O.2   339  ARG339     -0.2718
      5  CB        35.2680   18.4950   21.8050 C.3   339  ARG339      0.0321
      6  CG        34.2200   18.3910   22.9200 C.3   339  ARG339      0.0489
      7  CD        34.8060   18.8210   24.2430 C.3   339  ARG339      0.2205
      8  NE        35.0600   20.2530   24.2620 N.pl3 339  ARG339     -0.0865
      9  CZ        35.8880   20.8730   25.0990 C.cat 339  ARG339      0.5346
     10  NH1       36.5790   20.1920   26.0190 N.pl3 339  ARG339      0.1354
     11  NH2       36.0190   22.1920   25.0220 N.pl3 339  ARG339      0.1354
     12  N         34.1340   21.0300   20.5490 N.am  340  ASP340     -0.1974
     13  CA        33.2780   22.2310   20.5040 C.3   340  ASP340      0.1709
     14  C         32.4180   22.2550   19.2400 C.2   340  ASP340      0.2293
     15  O         31.2520   22.6200   19.3020 O.2   340  ASP340     -0.2864
     16  CB        34.0980   23.5200   20.6110 C.3   340  ASP340      0.1436
     17  CG        34.5520   23.8060   22.0390 C.2   340  ASP340      0.3671
     18  OD1       34.2080   22.9950   22.9510 O.co2 340  ASP340     -0.2456
     19  OD2       35.2510   24.8240   22.2390 O.co2 340  ASP340     -0.2456
     20  N         29.5470   19.8720   19.7330 N.3   343  LEU343     -0.1231
     21  CA        28.5870   20.5230   20.6210 C.3   343  LEU343      0.1693
     22  C         27.7830   21.6210   19.9020 C.2   343  LEU343      0.2592
     23  O         26.5480   21.7150   20.0730 O.2   343  LEU343     -0.2718
     24  CB        29.2870   21.0430   21.8830 C.3   343  LEU343      0.0284
     25  CG        29.6850   19.9240   22.8780 C.3   343  LEU343      0.0019
     26  CD1       30.8800   20.2980   23.7450 C.3   343  LEU343      0.0001
     27  CD2       28.4860   19.4910   23.7460 C.3   343  LEU343      0.0001
     28  N         28.4650   22.3920   19.0580 N.am  344  ASP344     -0.1974
     29  CA        27.8240   23.4590   18.2770 C.3   344  ASP344      0.1709
     30  C         26.9160   22.8860   17.1970 C.2   344  ASP344      0.2293
     31  O         25.8650   23.4530   16.8930 O.2   344  ASP344     -0.2864
     32  CB        28.8740   24.3860   17.6520 C.3   344  ASP344      0.1436
     33  CG        29.5840   25.2790   18.6800 C.2   344  ASP344      0.3671
     34  OD1       29.1730   25.3590   19.8770 O.co2 344  ASP344     -0.2456
     35  OD2       30.5790   25.9140   18.2710 O.co2 344  ASP344     -0.2456
     36  N         23.4100   18.5300   24.8920 N.3   355  GLN355     -0.1245
     37  CA        24.6560   19.0730   25.4190 C.3   355  GLN355      0.1566
     38  C         25.1640   18.2320   26.5940 C.2   355  GLN355      0.2260
     39  O         26.3510   17.9290   26.6700 O.2   355  GLN355     -0.2867
     40  CB        24.4950   20.5410   25.8190 C.3   355  GLN355      0.0367
     41  CG        24.0970   21.4680   24.6690 C.3   355  GLN355      0.0905
     42  CD        25.1830   21.5890   23.6230 C.2   355  GLN355      0.2608
     43  OE1       26.1910   22.2600   23.8370 O.2   355  GLN355     -0.2717
     44  NE2       24.9820   20.9410   22.4810 N.am  355  GLN355     -0.0878
     45  N         28.7510   16.3550   26.4000 N.3   359  TRP359     -0.1241
     46  CA        29.7410   16.8190   27.3700 C.3   359  TRP359      0.1605
     47  C         30.1850   15.7150   28.3290 C.2   359  TRP359      0.2264
     48  O         31.3760   15.5610   28.5810 O.2   359  TRP359     -0.2867
     49  CB        29.1920   17.9810   28.1910 C.3   359  TRP359      0.0550
     50  CG        29.5330   19.3730   27.6750 C.ar  359  TRP359      0.0003
     51  CD1       28.6480   20.3380   27.2990 C.ar  359  TRP359      0.0946
     52  CD2       30.8440   19.9460   27.5250 C.ar  359  TRP359      0.0152
     53  NE1       29.3220   21.4820   26.9270 N.ar  359  TRP359     -0.2442
     54  CE2       30.6710   21.2680   27.0610 C.ar  359  TRP359      0.0810
     55  CE3       32.1490   19.4720   27.7500 C.ar  359  TRP359      0.0012
     56  CZ2       31.7550   22.1230   26.8030 C.ar  359  TRP359      0.0191
     57  CZ3       33.2250   20.3120   27.4890 C.ar  359  TRP359      0.0001
     58  CH2       33.0220   21.6310   27.0270 C.ar  359  TRP359      0.0015
     59  N         35.4980   20.2380   30.2260 N.3   369  ALA369     -0.1231
     60  CA        35.4780   21.6850   30.0090 C.3   369  ALA369      0.1694
     61  C         36.8330   22.3680   30.1890 C.2   369  ALA369      0.2592
     62  O         37.1140   23.3540   29.5130 O.2   369  ALA369     -0.2718
     63  CB        34.3990   22.3410   30.8840 C.3   369  ALA369      0.0304
     64  N         37.6900   21.8440   31.0640 N.am  370  GLY370     -0.1957
     65  CA        39.0210   22.4370   31.2460 C.3   370  GLY370      0.1869
     66  C         40.1640   21.9240   30.3810 C.2   370  GLY370      0.2309
     67  O         41.3320   22.2630   30.6380 O.2   370  GLY370     -0.2863
     68  N         42.9080   21.3370   27.6000 N.3   372  LYS372     -0.1245
     69  CA        43.7210   22.2700   26.8260 C.3   372  LYS372      0.1561
     70  C         44.6230   21.5350   25.8730 C.2   372  LYS372      0.2260
     71  O         45.2890   20.5570   26.2460 O.2   372  LYS372     -0.2867
     72  CB        44.5830   23.1410   27.7430 C.3   372  LYS372      0.0271
     73  CG        43.8260   23.8080   28.8850 C.3   372  LYS372      0.0035
     74  CD        43.0220   25.0060   28.4540 C.3   372  LYS372      0.0206
     75  CE        42.5180   25.7480   29.7010 C.3   372  LYS372      0.1093
     76  NZ        41.7130   26.9220   29.3140 N.3   372  LYS372     -0.1314
     77  N         30.3980   21.3990   32.1990 N.3   385  PRO385     -0.2116
     78  CA        30.0030   22.7620   32.5870 C.3   385  PRO385      0.1372
     79  C         28.7390   22.8190   33.4470 C.2   385  PRO385      0.2244
     80  O         27.8470   21.9810   33.2980 O.2   385  PRO385     -0.2868
     81  CB        29.7440   23.4470   31.2410 C.3   385  PRO385      0.0268
     82  CG        30.5920   22.6840   30.2780 C.3   385  PRO385      0.0207
     83  CD        30.4860   21.2660   30.7340 C.3   385  PRO385      0.0892
@<TRIPOS>BOND
     1    31    30    2
     2    30    29    1
     3    32    29    1
     4    32    33    1
     5    35    33   ar
     6    29    28    1
     7    33    34   ar
     8    28    22   am
     9    14    15    2
    10    14    13    1
    11     1     2    1
    12    20    21    1
    13    22    23    2
    14    22    21    1
    15     4     3    2
    16     2     3    1
    17     2     5    1
    18     3    12   am
    19    13    12    1
    20    13    16    1
    21    16    17    1
    22    21    24    1
    23     5     6    1
    24    24    25    1
    25    17    19   ar
    26    17    18   ar
    27    44    42   am
    28    25    26    1
    29    25    27    1
    30     6     7    1
    31    42    43    2
    32    42    41    1
    33     7     8    1
    34     8     9    2
    35    41    40    1
    36    36    37    1
    37    11     9    1
    38     9    10    1
    39    37    40    1
    40    37    38    1
    41    70    71    2
    42    70    69    1
    43    45    46    1
    44    38    39    2
    45    56    58   ar
    46    56    54   ar
    47    69    68    1
    48    69    72    1
    49    53    54   ar
    50    53    51   ar
    51    58    57   ar
    52    54    52   ar
    53    51    50   ar
    54    46    49    1
    55    46    47    1
    56    57    55   ar
    57    52    50   ar
    58    52    55   ar
    59    50    49    1
    60    72    73    1
    61    47    48    2
    62    74    73    1
    63    74    75    1
    64    76    75    1
    65    62    61    2
    66    60    61    1
    67    60    59    1
    68    60    63    1
    69    61    64   am
    70    82    83    1
    71    82    81    1
    72    66    67    2
    73    66    65    1
    74    83    77    1
    75    64    65    1
    76    81    78    1
    77    77    78    1
    78    78    79    1
    79    80    79    2
