@<TRIPOS>MOLECULE
tmp/4k91B01.pdb
 105 97 0 0 0
SMALL
GASTEIGER

@<TRIPOS>ATOM
      1  N         55.0430   -8.6340   36.0600 N.3    37  ALA37      -0.1231
      2  CA        54.4860   -7.8500   34.9610 C.3    37  ALA37       0.1694
      3  C         55.5560   -6.8980   34.4040 C.2    37  ALA37       0.2592
      4  O         56.6920   -7.3190   34.1690 O.2    37  ALA37      -0.2718
      5  CB        53.2050   -7.1060   35.3930 C.3    37  ALA37       0.0304
      6  N         55.2260   -5.6230   34.1960 N.am   38  SER38      -0.1952
      7  CA        56.2100   -4.7330   33.5610 C.3    38  SER38       0.1924
      8  C         57.5090   -4.4950   34.3280 C.2    38  SER38       0.2314
      9  O         58.4560   -3.9420   33.7860 O.2    38  SER38      -0.2863
     10  CB        55.5890   -3.4310   33.0300 C.3    38  SER38       0.2116
     11  OG        54.8840   -3.7160   31.8220 O.3    38  SER38      -0.2180
     12  N         60.7030   -5.3700   32.6070 N.3    41  LYS41      -0.1245
     13  CA        61.4370   -4.4720   31.7050 C.3    41  LYS41       0.1561
     14  C         62.7020   -3.8790   32.2760 C.2    41  LYS41       0.2260
     15  O         63.5350   -3.4110   31.5280 O.2    41  LYS41      -0.2867
     16  CB        60.5070   -3.4090   31.1310 C.3    41  LYS41       0.0271
     17  CG        59.5930   -4.0000   30.1090 C.3    41  LYS41       0.0035
     18  CD        58.2750   -3.2910   30.0310 C.3    41  LYS41       0.0206
     19  CE        57.3900   -3.9960   29.0250 C.3    41  LYS41       0.1093
     20  NZ        55.9870   -4.0820   29.5100 N.3    41  LYS41      -0.1314
     21  N         49.7150   -4.8590   25.3040 N.3    74  GLY74      -0.1210
     22  CA        50.1690   -4.0480   26.4530 C.3    74  GLY74       0.1956
     23  C         50.5540   -2.6420   26.0260 C.2    74  GLY74       0.2612
     24  O         50.1240   -2.2040   24.9740 O.2    74  GLY74      -0.2717
     25  N         51.3530   -1.9410   26.8350 N.am   75  SER75      -0.1952
     26  CA        51.7890   -0.5940   26.4800 C.3    75  SER75       0.1924
     27  C         52.5680   -0.5240   25.1650 C.2    75  SER75       0.2314
     28  O         53.1140   -1.5410   24.6900 O.2    75  SER75      -0.2863
     29  CB        52.5540    0.0620   27.6260 C.3    75  SER75       0.2116
     30  OG        51.6220    0.5110   28.5770 O.3    75  SER75      -0.2180
     31  N         57.1790    1.9810   29.0460 N.3    98  SER98      -0.1217
     32  CA        56.9390    0.5560   29.2480 C.3    98  SER98       0.1889
     33  C         56.3960   -0.0310   27.9280 C.2    98  SER98       0.2288
     34  O         55.5230   -0.8710   27.9420 O.2    98  SER98      -0.2866
     35  CB        55.9050    0.3800   30.3860 C.3    98  SER98       0.2089
     36  OG        55.8810   -0.9560   30.8760 O.3    98  SER98      -0.2183
     37  N         55.8950   -2.3550   25.0060 N.3   100  ASN100     -0.1240
     38  CA        56.2440   -3.7680   24.6980 C.3   100  ASN100      0.1653
     39  C         56.8070   -3.9330   23.2920 C.2   100  ASN100      0.2266
     40  O         57.6460   -4.8260   23.0280 O.2   100  ASN100     -0.2867
     41  CB        55.0580   -4.7100   24.8820 C.3   100  ASN100      0.1155
     42  CG        54.6800   -4.9100   26.3600 C.2   100  ASN100      0.2627
     43  OD1       55.5040   -4.7600   27.2670 O.2   100  ASN100     -0.2716
     44  ND2       53.4400   -5.2530   26.5900 N.am  100  ASN100     -0.0877
     45  N         58.9580   -8.8530   28.2010 N.3   139  THR139     -0.1203
     46  CA        57.9660   -7.8600   28.6200 C.3   139  THR139      0.1994
     47  C         57.2600   -8.1030   29.9470 C.2   139  THR139      0.2618
     48  O         56.7930   -7.1480   30.5840 O.2   139  THR139     -0.2717
     49  CB        56.8810   -7.6860   27.5440 C.3   139  THR139      0.1784
     50  OG1       56.1380   -8.8950   27.4390 O.3   139  THR139     -0.2211
     51  CG2       57.5250   -7.3870   26.1750 C.3   139  THR139      0.0376
     52  N         57.1650   -9.3630   30.3560 N.am  140  GLY140     -0.1956
     53  CA        56.4320   -9.7010   31.5780 C.3   140  GLY140      0.1869
     54  C         55.0170  -10.2430   31.3770 C.2   140  GLY140      0.2309
     55  O         54.1700  -10.0850   32.2540 O.2   140  GLY140     -0.2863
     56  N         54.5750    6.1850   34.2880 N.3   186  ARG186     -0.1245
     57  CA        53.5350    5.6600   35.1620 C.3   186  ARG186      0.1563
     58  C         53.8860    5.7660   36.6540 C.2   186  ARG186      0.2260
     59  O         53.0590    5.5140   37.5320 O.2   186  ARG186     -0.2867
     60  CB        53.2900    4.2120   34.7610 C.3   186  ARG186      0.0307
     61  CG        53.3600    4.0370   33.2190 C.3   186  ARG186      0.0489
     62  CD        52.9480    2.6400   32.7250 C.3   186  ARG186      0.2205
     63  NE        52.6250    2.6640   31.2930 N.pl3 186  ARG186     -0.0865
     64  CZ        51.3880    2.7580   30.7990 C.cat 186  ARG186      0.5346
     65  NH1       50.3360    2.8350   31.6090 N.pl3 186  ARG186      0.1354
     66  NH2       51.1940    2.7750   29.4850 N.pl3 186  ARG186      0.1354
     67  N         57.1360    0.8090   37.1600 N.3   201  THR201     -0.1203
     68  CA        55.8610    0.3040   37.6250 C.3   201  THR201      0.1994
     69  C         55.4750   -0.9810   36.8880 C.2   201  THR201      0.2618
     70  O         55.9470   -1.2510   35.7910 O.2   201  THR201     -0.2717
     71  CB        54.7170    1.3270   37.4270 C.3   201  THR201      0.1784
     72  OG1       54.6050    1.6480   36.0480 O.3   201  THR201     -0.2211
     73  CG2       54.9590    2.5980   38.2110 C.3   201  THR201      0.0376
     74  N         54.6140   -1.7740   37.5110 N.am  202  GLY202     -0.1942
     75  CA        54.0680   -2.9700   36.8670 C.3   202  GLY202      0.2014
     76  C         52.6600   -3.2420   37.3570 C.2   202  GLY202      0.2639
     77  O         52.3610   -2.9970   38.5240 O.2   202  GLY202     -0.2714
     78  N         51.7940   -3.7530   36.4750 N.am  203  HIS203     -0.1959
     79  CA        50.4360   -4.1230   36.8710 C.3   203  HIS203      0.1787
     80  C         49.6620   -5.1670   36.0400 C.2   203  HIS203      0.2620
     81  O         49.6630   -5.1330   34.8130 O.2   203  HIS203     -0.2715
     82  CB        49.5530   -2.8890   37.0490 C.3   203  HIS203      0.0785
     83  CG        48.1010   -3.2200   37.2360 C.ar  203  HIS203      0.0821
     84  ND1       47.1390   -2.9240   36.2930 N.ar  203  HIS203     -0.2267
     85  CD2       47.4530   -3.8390   38.2530 C.ar  203  HIS203      0.1154
     86  CE1       45.9590   -3.3360   36.7260 C.ar  203  HIS203      0.1986
     87  NE2       46.1220   -3.8970   37.9140 N.ar  203  HIS203     -0.2212
     88  N         49.0140   -6.0920   36.7480 N.am  204  THR204     -0.1951
     89  CA        47.9340   -6.9550   36.2000 C.3   204  THR204      0.1897
     90  C         47.0870   -7.3010   37.4170 C.2   204  THR204      0.2313
     91  O         47.5600   -7.1710   38.5530 O.2   204  THR204     -0.2863
     92  CB        48.4180   -8.2710   35.5750 C.3   204  THR204      0.1794
     93  OG1       48.9620   -9.1220   36.5940 O.3   204  THR204     -0.2208
     94  CG2       49.4390   -8.0270   34.4750 C.3   204  THR204      0.0378
     95  N         49.7780    2.0990   45.7170 N.3   235  ARG235     -0.1245
     96  CA        51.1510    1.8070   45.3320 C.3   235  ARG235      0.1563
     97  C         52.1280    2.9580   45.6740 C.2   235  ARG235      0.2260
     98  O         53.2060    2.7440   46.2350 O.2   235  ARG235     -0.2867
     99  CB        51.1760    1.4750   43.8430 C.3   235  ARG235      0.0307
    100  CG        52.5490    1.4960   43.2260 C.3   235  ARG235      0.0489
    101  CD        52.5790    0.8480   41.8550 C.3   235  ARG235      0.2205
    102  NE        51.9560    1.6640   40.8110 N.pl3 235  ARG235     -0.0865
    103  CZ        51.6820    1.2090   39.5910 C.cat 235  ARG235      0.5346
    104  NH1       51.9850   -0.0520   39.2730 N.pl3 235  ARG235      0.1354
    105  NH2       51.1210    2.0040   38.6900 N.pl3 235  ARG235      0.1354
@<TRIPOS>BOND
     1    40    39    2
     2    39    38    1
     3    28    27    2
     4    38    41    1
     5    38    37    1
     6    41    42    1
     7    24    23    2
     8    27    26    1
     9    21    22    1
    10    23    22    1
    11    23    25   am
    12    51    49    1
    13    42    44   am
    14    42    43    2
    15    26    25    1
    16    26    29    1
    17    50    49    1
    18    49    46    1
    19    29    30    1
    20    33    34    2
    21    33    32    1
    22    45    46    1
    23    46    47    1
    24    19    20    1
    25    19    18    1
    26    31    32    1
    27    32    35    1
    28    66    64    1
    29    47    52   am
    30    47    48    2
    31    18    17    1
    32    17    16    1
    33    52    53    1
    34    35    36    1
    35    64    63    2
    36    64    65    1
    37    16    13    1
    38    63    62    1
    39    54    53    1
    40    54    55    2
    41    15    14    2
    42    13    14    1
    43    13    12    1
    44    11    10    1
    45    62    61    1
    46    10     7    1
    47    61    60    1
    48     7     6    1
    49     7     8    1
    50     9     8    2
    51     4     3    2
    52     6     3   am
    53    56    57    1
    54     3     2    1
    55    94    92    1
    56    60    57    1
    57    81    80    2
    58     2     5    1
    59     2     1    1
    60    57    58    1
    61    92    89    1
    62    92    93    1
    63    70    69    2
    64    80    88   am
    65    80    79    1
    66    72    71    1
    67    89    88    1
    68    89    90    1
    69    84    86   ar
    70    84    83   ar
    71    78    79    1
    72    78    76   am
    73    58    59    2
    74    86    87   ar
    75    75    76    1
    76    75    74    1
    77    79    82    1
    78    69    74   am
    79    69    68    1
    80    82    83    1
    81    67    68    1
    82    83    85   ar
    83    76    77    2
    84    90    91    2
    85    71    68    1
    86    71    73    1
    87    87    85   ar
    88   105   103    1
    89   104   103    1
    90   103   102    2
    91   102   101    1
    92   101   100    1
    93   100    99    1
    94    99    96    1
    95    96    97    1
    96    96    95    1
    97    97    98    2
