@<TRIPOS>MOLECULE
tmp/4k93B03.pdb
 83 78 0 0 0
SMALL
GASTEIGER

@<TRIPOS>ATOM
      1  N         38.4250   29.6700  -19.0380 N.3   183  SER183     -0.1202
      2  CA        39.6760   30.3980  -18.8950 C.3   183  SER183      0.2020
      3  C         40.5890   30.2820  -20.1310 C.2   183  SER183      0.2618
      4  O         41.3560   31.2010  -20.4120 O.2   183  SER183     -0.2717
      5  CB        40.3900   29.9510  -17.6150 C.3   183  SER183      0.2103
      6  OG        40.8020   28.5990  -17.6720 O.3   183  SER183     -0.2182
      7  N         40.5330   29.1520  -20.8370 N.am  184  PHE184     -0.1975
      8  CA        41.2700   29.0170  -22.1150 C.3   184  PHE184      0.1639
      9  C         40.6010   29.7920  -23.2440 C.2   184  PHE184      0.2290
     10  O         41.3070   30.3540  -24.0830 O.2   184  PHE184     -0.2864
     11  CB        41.4920   27.5520  -22.4940 C.3   184  PHE184      0.0560
     12  CG        42.4600   26.8420  -21.5820 C.ar  184  PHE184     -0.0200
     13  CD1       42.0100   26.2980  -20.3870 C.ar  184  PHE184     -0.0042
     14  CD2       43.8140   26.7110  -21.9140 C.ar  184  PHE184     -0.0042
     15  CE1       42.8860   25.6430  -19.5260 C.ar  184  PHE184     -0.0003
     16  CE2       44.6980   26.0480  -21.0570 C.ar  184  PHE184     -0.0003
     17  CZ        44.2260   25.5150  -19.8620 C.ar  184  PHE184     -0.0000
     18  N         41.7460   33.1270  -22.7740 N.3   187  ASP187     -0.1239
     19  CA        43.1090   33.2160  -23.2500 C.3   187  ASP187      0.1674
     20  C         43.1780   33.3680  -24.7820 C.2   187  ASP187      0.2266
     21  O         44.0240   34.1030  -25.2960 O.2   187  ASP187     -0.2867
     22  CB        43.9400   32.0240  -22.7730 C.3   187  ASP187      0.1410
     23  CG        45.4020   32.1360  -23.1780 C.2   187  ASP187      0.3668
     24  OD1       46.0840   33.0580  -22.6940 O.co2 187  ASP187     -0.2456
     25  OD2       45.8770   31.3100  -23.9860 O.co2 187  ASP187     -0.2456
     26  N         41.3260   37.2480  -25.3640 N.3   190  ARG190     -0.1245
     27  CA        41.4550   38.1940  -24.2470 C.3   190  ARG190      0.1563
     28  C         41.2530   39.6510  -24.6770 C.2   190  ARG190      0.2260
     29  O         40.4600   40.3760  -24.0790 O.2   190  ARG190     -0.2867
     30  CB        42.8310   38.0150  -23.6240 C.3   190  ARG190      0.0307
     31  CG        43.1150   38.8920  -22.4400 C.3   190  ARG190      0.0489
     32  CD        44.4610   38.4780  -21.8820 C.3   190  ARG190      0.2205
     33  NE        44.3980   37.1890  -21.1920 N.pl3 190  ARG190     -0.0865
     34  CZ        44.9700   36.0560  -21.5880 C.cat 190  ARG190      0.5346
     35  NH1       44.8540   34.9650  -20.8380 N.pl3 190  ARG190      0.1354
     36  NH2       45.6620   35.9940  -22.7210 N.pl3 190  ARG190      0.1354
     37  N         38.6630   31.6630  -12.1500 N.3   209  GLN209     -0.1245
     38  CA        39.6910   31.2940  -13.1120 C.3   209  GLN209      0.1566
     39  C         39.6220   32.1740  -14.3700 C.2   209  GLN209      0.2260
     40  O         40.6590   32.5910  -14.8950 O.2   209  GLN209     -0.2867
     41  CB        39.5920   29.8070  -13.4890 C.3   209  GLN209      0.0367
     42  CG        39.7630   28.8360  -12.3200 C.3   209  GLN209      0.0905
     43  CD        38.4390   28.4070  -11.6550 C.2   209  GLN209      0.2608
     44  OE1       37.5060   29.2040  -11.4540 O.2   209  GLN209     -0.2717
     45  NE2       38.3620   27.1290  -11.3090 N.am  209  GLN209     -0.0878
     46  N         40.9460   35.7210  -13.4890 N.3   212  LEU212     -0.1231
     47  CA        42.4020   35.6640  -13.4080 C.3   212  LEU212      0.1693
     48  C         43.0330   35.5820  -14.8140 C.2   212  LEU212      0.2592
     49  O         44.0390   36.2350  -15.0850 O.2   212  LEU212     -0.2718
     50  CB        42.8500   34.4900  -12.5240 C.3   212  LEU212      0.0284
     51  CG        42.4900   34.5670  -11.0260 C.3   212  LEU212      0.0019
     52  CD1       42.9850   33.2910  -10.3510 C.3   212  LEU212      0.0001
     53  CD2       43.0690   35.8230  -10.3820 C.3   212  LEU212      0.0001
     54  N         42.4300   34.7870  -15.6900 N.am  213  SER213     -0.1952
     55  CA        42.9290   34.6590  -17.0540 C.3   213  SER213      0.1924
     56  C         42.7570   35.9600  -17.8420 C.2   213  SER213      0.2314
     57  O         43.6340   36.3380  -18.6090 O.2   213  SER213     -0.2863
     58  CB        42.2440   33.4890  -17.7500 C.3   213  SER213      0.2116
     59  OG        42.6500   33.4030  -19.1050 O.3   213  SER213     -0.2180
     60  N         45.5140   38.1560  -16.6660 N.3   216  GLN216     -0.1231
     61  CA        46.8050   37.4560  -16.6750 C.3   216  GLN216      0.1698
     62  C         47.5220   37.6630  -15.3470 C.2   216  GLN216      0.2593
     63  O         48.6750   38.0830  -15.2860 O.2   216  GLN216     -0.2718
     64  CB        47.6540   37.9320  -17.8600 C.3   216  GLN216      0.0381
     65  CG        47.0480   37.5660  -19.2060 C.3   216  GLN216      0.0905
     66  CD        47.9020   38.0250  -20.3690 C.2   216  GLN216      0.2608
     67  OE1       47.9360   39.2090  -20.7040 O.2   216  GLN216     -0.2717
     68  NE2       48.5950   37.0890  -20.9920 N.am  216  GLN216     -0.0878
     69  N         46.7970   37.3480  -14.2820 N.am  217  THR217     -0.1939
     70  CA        47.2780   37.5060  -12.9190 C.3   217  THR217      0.2028
     71  C         46.7760   36.3470  -12.0590 C.2   217  THR217      0.2642
     72  O         45.7450   35.7380  -12.3720 O.2   217  THR217     -0.2714
     73  CB        46.7810   38.8300  -12.3150 C.3   217  THR217      0.1808
     74  OG1       47.3070   38.9690  -10.9900 O.3   217  THR217     -0.2208
     75  CG2       45.2480   38.8970  -12.2710 C.3   217  THR217      0.0379
     76  N         47.4890   36.0420  -10.9770 N.am  218  ASP218     -0.1971
     77  CA        46.9560   35.0960  -10.0050 C.3   218  ASP218      0.1709
     78  C         46.4210   35.8190   -8.7650 C.2   218  ASP218      0.2293
     79  O         45.9640   35.1750   -7.8160 O.2   218  ASP218     -0.2864
     80  CB        47.9810   34.0200   -9.6410 C.3   218  ASP218      0.1436
     81  CG        48.2820   33.0820  -10.8020 C.2   218  ASP218      0.3671
     82  OD1       47.3660   32.7590  -11.5900 O.co2 218  ASP218     -0.2456
     83  OD2       49.4420   32.6520  -10.9170 O.co2 218  ASP218     -0.2456
@<TRIPOS>BOND
     1    26    27    1
     2    21    20    2
     3    20    19    1
     4    28    27    1
     5    28    29    2
     6    27    30    1
     7    10     9    2
     8    25    23   ar
     9    30    31    1
    10    19    18    1
    11    19    22    1
    12     9     8    1
    13    23    22    1
    14    23    24   ar
    15    36    34    1
    16    11     8    1
    17    11    12    1
    18    31    32    1
    19     8     7    1
    20    14    12   ar
    21    14    16   ar
    22    32    33    1
    23    34    33    2
    24    34    35    1
    25    12    13   ar
    26    16    17   ar
    27    68    66   am
    28     7     3   am
    29    67    66    2
    30     4     3    2
    31    13    15   ar
    32    66    65    1
    33     3     2    1
    34    17    15   ar
    35    65    64    1
    36    59    58    1
    37     1     2    1
    38     2     5    1
    39    57    56    2
    40    64    61    1
    41    56    55    1
    42    58    55    1
    43     6     5    1
    44    55    54    1
    45    61    60    1
    46    61    62    1
    47    54    48   am
    48    62    63    2
    49    62    69   am
    50    49    48    2
    51    40    39    2
    52    48    47    1
    53    39    38    1
    54    69    70    1
    55    46    47    1
    56    41    38    1
    57    41    42    1
    58    47    50    1
    59    38    37    1
    60    70    73    1
    61    70    71    1
    62    50    51    1
    63    72    71    2
    64    42    43    1
    65    73    75    1
    66    73    74    1
    67    71    76   am
    68    43    44    2
    69    43    45   am
    70    82    81   ar
    71    51    53    1
    72    51    52    1
    73    76    77    1
    74    83    81   ar
    75    81    80    1
    76    77    80    1
    77    77    78    1
    78    78    79    2
