@<TRIPOS>MOLECULE
tmp/4k97A00.pdb
 233 221 0 0 0
SMALL
GASTEIGER

@<TRIPOS>ATOM
      1  N         13.9520  211.6080  169.1010 N.3    49  THR49      -0.1203
      2  CA        14.5160  210.7830  170.1640 C.3    49  THR49       0.1994
      3  C         15.2120  211.6370  171.2230 C.2    49  THR49       0.2618
      4  O         15.4080  212.8310  171.0270 O.2    49  THR49      -0.2717
      5  CB        15.5120  209.7660  169.5860 C.3    49  THR49       0.1784
      6  OG1       16.6030  210.4740  168.9870 O.3    49  THR49      -0.2211
      7  CG2       14.8440  208.9010  168.5240 C.3    49  THR49       0.0376
      8  N         15.5820  211.0240  172.3430 N.am   50  GLY50      -0.1942
      9  CA        16.4290  211.6970  173.3170 C.3    50  GLY50       0.2014
     10  C         15.7590  212.5670  174.3720 C.2    50  GLY50       0.2639
     11  O         14.5240  212.6350  174.4650 O.2    50  GLY50      -0.2714
     12  N         16.6010  213.2430  175.1560 N.am   51  SER51      -0.1949
     13  CA        16.1970  214.0350  176.3150 C.3    51  SER51       0.1924
     14  C         14.9440  214.8990  176.1630 C.2    51  SER51       0.2314
     15  O         13.9950  214.7580  176.9370 O.2    51  SER51      -0.2863
     16  CB        17.3660  214.9190  176.7640 C.3    51  SER51       0.2116
     17  OG        17.7980  214.5400  178.0530 O.3    51  SER51      -0.2180
     18  N         11.8110  212.9440  175.5940 N.3    54  GLU54      -0.1245
     19  CA        11.4420  212.1030  176.7240 C.3    54  GLU54       0.1567
     20  C         11.0570  212.9550  177.9310 C.2    54  GLU54       0.2260
     21  O         10.7380  212.4170  178.9940 O.2    54  GLU54      -0.2867
     22  CB        12.5930  211.1660  177.0980 C.3    54  GLU54       0.0388
     23  CG        13.0170  210.2340  175.9920 C.3    54  GLU54       0.1160
     24  CD        14.3980  209.6310  176.2300 C.2    54  GLU54       0.3649
     25  OE1       15.2790  210.3290  176.7810 O.co2  54  GLU54      -0.2457
     26  OE2       14.6060  208.4550  175.8600 O.co2  54  GLU54      -0.2457
     27  N         13.0440  214.8540  179.7230 N.3    56  VAL56      -0.1231
     28  CA        14.0750  214.8360  180.7540 C.3    56  VAL56       0.1692
     29  C         15.2410  215.7570  180.4170 C.2    56  VAL56       0.2592
     30  O         16.2960  215.6810  181.0480 O.2    56  VAL56      -0.2718
     31  CB        14.5910  213.4050  181.0530 C.3    56  VAL56       0.0266
     32  CG1       13.5260  212.6010  181.7790 C.3    56  VAL56       0.0020
     33  CG2       15.0340  212.7050  179.7590 C.3    56  VAL56       0.0020
     34  N         15.0480  216.6200  179.4220 N.am   57  LYS57      -0.1966
     35  CA        16.0180  217.6720  179.1080 C.3    57  LYS57       0.1728
     36  C         16.0310  218.6730  180.2630 C.2    57  LYS57       0.2616
     37  O         14.9730  219.0460  180.7690 O.2    57  LYS57      -0.2715
     38  CB        15.6180  218.3940  177.8130 C.3    57  LYS57       0.0311
     39  CG        16.5960  219.4750  177.3400 C.3    57  LYS57       0.0038
     40  CD        17.8700  218.8430  176.7660 C.3    57  LYS57       0.0206
     41  CE        18.8270  219.8970  176.2260 C.3    57  LYS57       0.1093
     42  NZ        19.5560  220.6080  177.3140 N.3    57  LYS57      -0.1314
     43  N         17.2130  219.1160  180.6850 N.am   58  ILE58      -0.1977
     44  CA        17.2850  220.0690  181.7970 C.3    58  ILE58       0.1596
     45  C         17.8010  221.4450  181.3890 C.2    58  ILE58       0.2287
     46  O         18.3570  221.6140  180.2950 O.2    58  ILE58      -0.2864
     47  CB        18.1240  219.5340  182.9730 C.3    58  ILE58       0.0276
     48  CG1       19.5720  219.2970  182.5440 C.3    58  ILE58       0.0022
     49  CG2       17.5070  218.2590  183.5400 C.3    58  ILE58       0.0022
     50  CD1       20.4360  218.7130  183.6550 C.3    58  ILE58       0.0001
     51  N         19.4300  221.3240  172.9800 N.3    63  GLU63      -0.1245
     52  CA        19.9760  220.1410  172.2930 C.3    63  GLU63       0.1567
     53  C         18.8520  219.2010  171.8590 C.2    63  GLU63       0.2260
     54  O         18.0550  218.7440  172.6880 O.2    63  GLU63      -0.2867
     55  CB        21.0060  219.3970  173.1730 C.3    63  GLU63       0.0388
     56  CG        22.0750  218.5900  172.3950 C.3    63  GLU63       0.1160
     57  CD        21.7250  217.1100  172.2080 C.2    63  GLU63       0.3649
     58  OE1       20.6820  216.6650  172.7300 O.co2  63  GLU63      -0.2457
     59  OE2       22.4960  216.3870  171.5370 O.co2  63  GLU63      -0.2457
     60  N         17.7490  215.6960  169.4970 N.3    65  ASP65      -0.1239
     61  CA        18.1680  214.5190  168.7380 C.3    65  ASP65       0.1674
     62  C         17.0580  214.0470  167.8100 C.2    65  ASP65       0.2266
     63  O         15.8970  213.9460  168.2240 O.2    65  ASP65      -0.2867
     64  CB        18.5440  213.3800  169.6810 C.3    65  ASP65       0.1410
     65  CG        19.5950  213.7830  170.6730 C.2    65  ASP65       0.3668
     66  OD1       20.8000  213.6980  170.3380 O.co2  65  ASP65      -0.2456
     67  OD2       19.2070  214.2010  171.7820 O.co2  65  ASP65      -0.2456
     68  N         21.2970  217.0360  166.5770 N.3   153  ASP153     -0.1239
     69  CA        21.9520  215.8540  166.0130 C.3   153  ASP153      0.1674
     70  C         20.9960  215.0960  165.0940 C.2   153  ASP153      0.2266
     71  O         19.9930  214.5380  165.5590 O.2   153  ASP153     -0.2867
     72  CB        22.4320  214.9030  167.1190 C.3   153  ASP153      0.1410
     73  CG        23.5600  215.4880  167.9590 C.2   153  ASP153      0.3668
     74  OD1       24.3560  216.2830  167.4160 O.co2 153  ASP153     -0.2456
     75  OD2       23.6560  215.1470  169.1620 O.co2 153  ASP153     -0.2456
     76  N         20.5120  211.8400  162.9470 N.3   155  ILE155     -0.1245
     77  CA        21.1010  210.5200  163.0240 C.3   155  ILE155      0.1561
     78  C         20.4920  209.5670  162.0070 C.2   155  ILE155      0.2260
     79  O         19.3170  209.1940  162.1180 O.2   155  ILE155     -0.2867
     80  CB        20.9270  209.9610  164.4340 C.3   155  ILE155      0.0252
     81  CG1       21.5870  210.9180  165.4380 C.3   155  ILE155      0.0019
     82  CG2       21.5040  208.5520  164.5270 C.3   155  ILE155      0.0019
     83  CD1       21.2570  210.6270  166.8770 C.3   155  ILE155      0.0001
     84  N         27.7060  204.6160  163.9470 N.3   196  LYS196     -0.1245
     85  CA        28.7390  204.8920  164.9350 C.3   196  LYS196      0.1561
     86  C         29.7760  203.7690  164.8390 C.2   196  LYS196      0.2260
     87  O         29.4440  202.5950  165.0430 O.2   196  LYS196     -0.2867
     88  CB        28.1020  204.9470  166.3280 C.3   196  LYS196      0.0271
     89  CG        29.0170  204.6550  167.5050 C.3   196  LYS196      0.0035
     90  CD        29.9530  205.8090  167.7900 C.3   196  LYS196      0.0206
     91  CE        30.4630  205.7810  169.2270 C.3   196  LYS196      0.1093
     92  NZ        29.3880  206.1240  170.2060 N.3   196  LYS196     -0.1314
     93  N         26.3270  200.4090  164.9170 N.3   210  ARG210     -0.1231
     94  CA        25.9230  200.1600  166.2960 C.3   210  ARG210      0.1694
     95  C         24.4190  199.9980  166.4970 C.2   210  ARG210      0.2592
     96  O         23.6330  200.6550  165.8950 O.2   210  ARG210     -0.2718
     97  CB        26.4480  201.2120  167.2610 C.3   210  ARG210      0.0321
     98  CG        26.9720  200.5860  168.5340 C.3   210  ARG210      0.0489
     99  CD        26.8170  201.4210  169.7750 C.3   210  ARG210      0.2205
    100  NE        25.5950  202.1610  169.6900 N.pl3 210  ARG210     -0.0865
    101  CZ        25.4430  203.4230  170.0370 C.cat 210  ARG210      0.5346
    102  NH1       26.4620  204.0940  170.5360 N.pl3 210  ARG210      0.1354
    103  NH2       24.2540  203.9980  169.9000 N.pl3 210  ARG210      0.1354
    104  N         24.0530  199.0980  167.3790 N.am  211  LEU211     -0.1966
    105  CA        22.6500  198.9540  167.7620 C.3   211  LEU211      0.1728
    106  C         22.1370  200.2090  168.4770 C.2   211  LEU211      0.2617
    107  O         22.8640  200.8350  169.2620 O.2   211  LEU211     -0.2715
    108  CB        22.4630  197.7390  168.6690 C.3   211  LEU211      0.0311
    109  CG        22.4120  196.3830  167.9770 C.3   211  LEU211      0.0022
    110  CD1       22.4450  195.2800  169.0110 C.3   211  LEU211      0.0001
    111  CD2       21.1440  196.2920  167.1510 C.3   211  LEU211      0.0001
    112  N         20.8920  200.5780  168.1880 N.am  212  SER212     -0.1936
    113  CA        20.2540  201.7070  168.8530 C.3   212  SER212      0.2055
    114  C         18.8680  201.3370  169.3350 C.2   212  SER212      0.2643
    115  O         18.0900  200.7190  168.6090 O.2   212  SER212     -0.2714
    116  CB        20.1610  202.9140  167.9150 C.3   212  SER212      0.2130
    117  OG        19.3890  203.9310  168.5190 O.3   212  SER212     -0.2179
    118  N         18.5550  201.7320  170.5600 N.am  213  PHE213     -0.1959
    119  CA        17.2350  201.4580  171.1270 C.3   213  PHE213      0.1771
    120  C         16.5500  202.7370  171.6220 C.2   213  PHE213      0.2620
    121  O         15.7320  202.6980  172.5470 O.2   213  PHE213     -0.2715
    122  CB        17.3510  200.4250  172.2530 C.3   213  PHE213      0.0574
    123  CG        17.9100  199.1000  171.7980 C.ar  213  PHE213     -0.0200
    124  CD1       17.0910  198.1560  171.1980 C.ar  213  PHE213     -0.0042
    125  CD2       19.2600  198.8080  171.9500 C.ar  213  PHE213     -0.0042
    126  CE1       17.6080  196.9420  170.7670 C.ar  213  PHE213     -0.0003
    127  CE2       19.7780  197.5920  171.5270 C.ar  213  PHE213     -0.0003
    128  CZ        18.9530  196.6600  170.9360 C.ar  213  PHE213     -0.0000
    129  N         16.8890  203.8590  170.9950 N.am  214  SER214     -0.1950
    130  CA        16.2480  205.1390  171.2850 C.3   214  SER214      0.1924
    131  C         14.7170  205.0460  171.2920 C.2   214  SER214      0.2314
    132  O         14.0750  205.6290  172.1640 O.2   214  SER214     -0.2863
    133  CB        16.7190  206.2250  170.3060 C.3   214  SER214      0.2116
    134  OG        18.1190  206.4160  170.3930 O.3   214  SER214     -0.2180
    135  N         13.6440  203.0590  174.4740 N.3   217  GLU217     -0.1245
    136  CA        13.8960  203.8800  175.6560 C.3   217  GLU217      0.1567
    137  C         12.8430  204.9620  175.7760 C.2   217  GLU217      0.2260
    138  O         12.4120  205.3040  176.8690 O.2   217  GLU217     -0.2867
    139  CB        15.2930  204.5030  175.5940 C.3   217  GLU217      0.0388
    140  CG        16.4120  203.4600  175.6060 C.3   217  GLU217      0.1160
    141  CD        17.7630  204.0260  175.1760 C.2   217  GLU217      0.3649
    142  OE1       18.6630  203.2170  174.8870 O.co2 217  GLU217     -0.2457
    143  OE2       17.9300  205.2690  175.1330 O.co2 217  GLU217     -0.2457
    144  N         21.6470  213.6570  186.0810 N.3   248  LYS248     -0.1245
    145  CA        22.2050  214.2660  184.8800 C.3   248  LYS248      0.1561
    146  C         22.7960  215.6310  185.1950 C.2   248  LYS248      0.2260
    147  O         23.8590  215.9790  184.6770 O.2   248  LYS248     -0.2867
    148  CB        21.1500  214.4110  183.7850 C.3   248  LYS248      0.0271
    149  CG        20.6570  213.1080  183.2220 C.3   248  LYS248      0.0035
    150  CD        19.4900  213.3400  182.2700 C.3   248  LYS248      0.0206
    151  CE        19.9310  214.1490  181.0720 C.3   248  LYS248      0.1093
    152  NZ        18.8130  214.2290  180.1080 N.3   248  LYS248     -0.1314
    153  N         26.6280  216.7080  184.4840 N.3   252  GLU252     -0.1245
    154  CA        26.7520  217.8430  183.5690 C.3   252  GLU252      0.1567
    155  C         27.5980  218.9730  184.1550 C.2   252  GLU252      0.2260
    156  O         28.3920  219.5930  183.4380 O.2   252  GLU252     -0.2867
    157  CB        25.3590  218.3590  183.1890 C.3   252  GLU252      0.0388
    158  CG        25.2930  219.2360  181.9500 C.3   252  GLU252      0.1160
    159  CD        23.8650  219.3780  181.4060 C.2   252  GLU252      0.3649
    160  OE1       23.3310  220.5090  181.4110 O.co2 252  GLU252     -0.2457
    161  OE2       23.2720  218.3630  180.9690 O.co2 252  GLU252     -0.2457
    162  N         29.0800  210.3370  179.7550 N.3   265  CYS265     -0.1221
    163  CA        27.9720  210.9520  179.0660 C.3   265  CYS265      0.1808
    164  C         26.6940  210.7200  179.8130 C.2   265  CYS265      0.2602
    165  O         26.6630  210.0130  180.7690 O.2   265  CYS265     -0.2717
    166  CB        27.8560  210.4450  177.6510 C.3   265  CYS265      0.0970
    167  SG        27.5230  208.7250  177.5340 S.3   265  CYS265     -0.0800
    168  N         25.6490  211.3780  179.3880 N.am  266  SER266     -0.1938
    169  CA        24.3640  211.2150  180.0080 C.3   266  SER266      0.2055
    170  C         23.8120  209.8240  179.8820 C.2   266  SER266      0.2643
    171  O         23.0850  209.4290  180.7140 O.2   266  SER266     -0.2714
    172  CB        23.3770  212.2850  179.5820 C.3   266  SER266      0.2130
    173  OG        23.1660  212.3040  178.2240 O.3   266  SER266     -0.2179
    174  N         24.1360  209.1110  178.8220 N.am  267  TYR267     -0.1959
    175  CA        23.6940  207.7160  178.6820 C.3   267  TYR267      0.1771
    176  C         24.1210  206.8020  179.8250 C.2   267  TYR267      0.2619
    177  O         23.3700  205.9200  180.2270 O.2   267  TYR267     -0.2715
    178  CB        24.1690  207.1160  177.3610 C.3   267  TYR267      0.0574
    179  CG        23.3650  205.9110  176.9590 C.ar  267  TYR267     -0.0198
    180  CD1       22.0260  206.0440  176.6140 C.ar  267  TYR267     -0.0009
    181  CD2       23.9320  204.6410  176.9300 C.ar  267  TYR267     -0.0009
    182  CE1       21.2690  204.9500  176.2380 C.ar  267  TYR267      0.0417
    183  CE2       23.1850  203.5390  176.5570 C.ar  267  TYR267      0.0417
    184  CZ        21.8470  203.7040  176.2110 C.ar  267  TYR267      0.1957
    185  OH        21.0850  202.6250  175.8450 O.3   267  TYR267     -0.2866
    186  N         25.3330  206.9940  180.3360 N.am  268  HIS268     -0.1973
    187  CA        25.7520  206.2580  181.5230 C.3   268  HIS268      0.1656
    188  C         24.7370  206.4470  182.6540 C.2   268  HIS268      0.2291
    189  O         24.3920  205.4990  183.3600 O.2   268  HIS268     -0.2864
    190  CB        27.1300  206.7180  181.9840 C.3   268  HIS268      0.0771
    191  CG        28.1990  206.4930  180.9680 C.ar  268  HIS268      0.0820
    192  ND1       29.2020  207.4070  180.7240 N.ar  268  HIS268     -0.2267
    193  CD2       28.4240  205.4550  180.1280 C.ar  268  HIS268      0.1154
    194  CE1       29.9970  206.9410  179.7800 C.ar  268  HIS268      0.1986
    195  NE2       29.5470  205.7590  179.4000 N.ar  268  HIS268     -0.2212
    196  N         21.5580  207.4100  182.3330 N.3   270  LYS270     -0.1245
    197  CA        20.2850  206.8500  181.8740 C.3   270  LYS270      0.1561
    198  C         20.2670  205.3270  182.0670 C.2   270  LYS270      0.2260
    199  O         19.3080  204.7570  182.6060 O.2   270  LYS270     -0.2867
    200  CB        20.0490  207.2370  180.4020 C.3   270  LYS270      0.0271
    201  CG        18.6100  207.0860  179.8910 C.3   270  LYS270      0.0035
    202  CD        18.5440  207.5300  178.4140 C.3   270  LYS270      0.0206
    203  CE        17.1960  207.2200  177.7660 C.3   270  LYS270      0.1093
    204  NZ        17.2140  207.4930  176.2890 N.3   270  LYS270     -0.1314
    205  N         25.1240  197.4020  179.6780 N.3   313  HIS313     -0.1241
    206  CA        24.1630  197.9940  178.7490 C.3   313  HIS313      0.1621
    207  C         22.7940  197.3680  179.0470 C.2   313  HIS313      0.2264
    208  O         22.6880  196.1480  179.1910 O.2   313  HIS313     -0.2867
    209  CB        24.5870  197.7030  177.3100 C.3   313  HIS313      0.0745
    210  CG        23.8370  198.4910  176.2840 C.ar  313  HIS313      0.0817
    211  ND1       22.4860  198.3240  176.0550 N.ar  313  HIS313     -0.2268
    212  CD2       24.2560  199.4370  175.4060 C.ar  313  HIS313      0.1154
    213  CE1       22.1070  199.1420  175.0880 C.ar  313  HIS313      0.1986
    214  NE2       23.1610  199.8270  174.6760 N.ar  313  HIS313     -0.2212
    215  N         27.7710  193.7950  177.0040 N.3   319  PHE319     -0.1241
    216  CA        28.4600  195.0400  176.7060 C.3   319  PHE319      0.1605
    217  C         28.6340  195.9340  177.9460 C.2   319  PHE319      0.2264
    218  O         27.6720  196.5390  178.4390 O.2   319  PHE319     -0.2867
    219  CB        27.7120  195.7770  175.5890 C.3   319  PHE319      0.0534
    220  CG        28.4450  196.9640  175.0360 C.ar  319  PHE319     -0.0203
    221  CD1       29.8130  196.9260  174.8320 C.ar  319  PHE319     -0.0042
    222  CD2       27.7580  198.1180  174.7070 C.ar  319  PHE319     -0.0042
    223  CE1       30.4860  198.0270  174.3210 C.ar  319  PHE319     -0.0003
    224  CE2       28.4250  199.2210  174.1910 C.ar  319  PHE319     -0.0003
    225  CZ        29.7870  199.1730  174.0010 C.ar  319  PHE319     -0.0000
    226  N         29.7920  199.2190  179.5340 N.3   321  LEU321     -0.1245
    227  CA        30.0290  200.6250  179.2050 C.3   321  LEU321      0.1561
    228  C         31.1640  201.2060  180.0280 C.2   321  LEU321      0.2260
    229  O         31.6690  202.2810  179.7120 O.2   321  LEU321     -0.2867
    230  CB        28.7600  201.4570  179.4370 C.3   321  LEU321      0.0270
    231  CG        27.6990  201.5870  178.3380 C.3   321  LEU321      0.0019
    232  CD1       27.7180  200.4140  177.3930 C.3   321  LEU321      0.0001
    233  CD2       26.3080  201.7240  178.9570 C.3   321  LEU321      0.0001
@<TRIPOS>BOND
     1    78    79    2
     2    78    77    1
     3    76    77    1
     4    77    80    1
     5    84    85    1
     6    80    82    1
     7    80    81    1
     8    86    85    1
     9    86    87    2
    10    93    94    1
    11    85    88    1
    12    70    71    2
    13    70    69    1
    14    81    83    1
    15    96    95    2
    16    69    68    1
    17    69    72    1
    18    94    95    1
    19    94    97    1
    20    88    89    1
    21    95   104   am
    22    72    73    1
    23   111   109    1
    24    97    98    1
    25   104   105    1
    26    74    73   ar
    27    89    90    1
    28   105   106    1
    29   105   108    1
    30    90    91    1
    31    62    63    2
    32    62    61    1
    33   116   117    1
    34   116   113    1
    35    73    75   ar
    36   109   108    1
    37   109   110    1
    38   112   106   am
    39   112   113    1
    40   106   107    2
    41     7     5    1
    42    98    99    1
    43   115   114    2
    44    61    60    1
    45    61    64    1
    46   113   114    1
    47     6     5    1
    48     1     2    1
    49    91    92    1
    50   114   118   am
    51     5     2    1
    52    64    65    1
    53   100    99    1
    54   100   101    2
    55   103   101    1
    56   101   102    1
    57     2     3    1
    58   133   134    1
    59   133   130    1
    60    66    65   ar
    61   118   119    1
    62    65    67   ar
    63   126   128   ar
    64   126   124   ar
    65   128   127   ar
    66   129   130    1
    67   129   120   am
    68     4     3    2
    69   119   120    1
    70   119   122    1
    71   124   123   ar
    72     3     8   am
    73   130   131    1
    74   131   132    2
    75   127   125   ar
    76    59    57   ar
    77   120   121    2
    78   123   125   ar
    79   123   122    1
    80    53    52    1
    81    53    54    2
    82    57    56    1
    83    57    58   ar
    84    52    51    1
    85    52    55    1
    86     8     9    1
    87    56    55    1
    88     9    10    1
    89   225   224   ar
    90   225   223   ar
    91   224   222   ar
    92   223   221   ar
    93    10    11    2
    94    10    12   am
    95   135   136    1
    96   214   213   ar
    97   214   212   ar
    98   222   220   ar
    99   221   220   ar
   100   142   141   ar
   101   220   219    1
   102   213   211   ar
   103   143   141   ar
   104    12    13    1
   105   141   140    1
   106   212   210   ar
   107   219   216    1
   108   139   140    1
   109   139   136    1
   110    18    19    1
   111   136   137    1
   112   137   138    2
   113   185   184    1
   114    26    24   ar
   115    23    24    1
   116    23    22    1
   117   211   210   ar
   118    14    13    1
   119    14    15    2
   120   184   182   ar
   121   184   183   ar
   122    41    40    1
   123    41    42    1
   124    24    25   ar
   125   182   180   ar
   126   210   209    1
   127   204   203    1
   128    13    16    1
   129   183   181   ar
   130   180   179   ar
   131   216   215    1
   132   216   217    1
   133    19    22    1
   134    19    20    1
   135    16    17    1
   136    40    39    1
   137   181   179   ar
   138   179   178    1
   139   209   206    1
   140    39    38    1
   141   178   175    1
   142   232   231    1
   143   167   166    1
   144   166   163    1
   145   203   202    1
   146    38    35    1
   147    20    21    2
   148   217   218    2
   149   173   172    1
   150   231   233    1
   151   231   230    1
   152   202   201    1
   153   175   174    1
   154   175   176    1
   155   206   207    1
   156   206   205    1
   157   174   170   am
   158   207   208    2
   159   163   162    1
   160   163   164    1
   161    35    34    1
   162    35    36    1
   163   227   230    1
   164   227   226    1
   165   227   228    1
   166   168   164   am
   167   168   169    1
   168   195   194   ar
   169   195   193   ar
   170    34    29   am
   171   172   169    1
   172   229   228    2
   173    27    28    1
   174    33    31    1
   175   194   192   ar
   176   164   165    2
   177   176   177    2
   178   176   186   am
   179   170   169    1
   180   170   171    2
   181   201   200    1
   182   152   151    1
   183   193   191   ar
   184    36    43   am
   185    36    37    2
   186    46    45    2
   187   186   187    1
   188   200   197    1
   189    29    28    1
   190    29    30    2
   191    43    44    1
   192   192   191   ar
   193    28    31    1
   194   191   190    1
   195   161   159   ar
   196    31    32    1
   197   151   150    1
   198    45    44    1
   199   159   160   ar
   200   159   158    1
   201   187   190    1
   202   187   188    1
   203    44    47    1
   204   197   198    1
   205   197   196    1
   206   158   157    1
   207   198   199    2
   208   150   149    1
   209    48    47    1
   210    48    50    1
   211   188   189    2
   212    47    49    1
   213   157   154    1
   214   149   148    1
   215   156   155    2
   216   154   155    1
   217   154   153    1
   218   148   145    1
   219   147   146    2
   220   145   146    1
   221   145   144    1
