@<TRIPOS>MOLECULE
tmp/4k98A01.pdb
 124 116 0 0 0
SMALL
GASTEIGER

@<TRIPOS>ATOM
      1  N         99.0440  306.7280  171.9370 N.3    49  THR49      -0.1218
      2  CA        99.5300  305.8990  173.0350 C.3    49  THR49       0.1862
      3  C        100.2840  306.7320  174.0780 C.2    49  THR49       0.2287
      4  O        100.4170  307.9620  173.9000 O.2    49  THR49      -0.2866
      5  CB       100.5120  304.7870  172.4780 C.3    49  THR49       0.1770
      6  OG1      101.6310  305.4410  171.9220 O.3    49  THR49      -0.2211
      7  CG2       99.8440  304.0010  171.3780 C.3    49  THR49       0.0375
      8  N        104.2280  316.5300  175.6850 N.3    63  GLU63      -0.1245
      9  CA       104.7810  315.3830  174.9720 C.3    63  GLU63       0.1567
     10  C        103.7050  314.3730  174.6140 C.2    63  GLU63       0.2260
     11  O        103.0820  313.8780  175.4700 O.2    63  GLU63      -0.2867
     12  CB       105.8980  314.7010  175.7600 C.3    63  GLU63       0.0388
     13  CG       106.8690  313.8320  174.9210 C.3    63  GLU63       0.1160
     14  CD       106.6400  312.3060  174.9350 C.2    63  GLU63       0.3649
     15  OE1      105.8000  311.8300  175.6460 O.co2  63  GLU63      -0.2457
     16  OE2      107.3130  311.5750  174.2330 O.co2  63  GLU63      -0.2457
     17  N        102.5650  310.8890  172.2200 N.3    65  ASP65      -0.1239
     18  CA       103.1010  309.7420  171.4630 C.3    65  ASP65       0.1674
     19  C        102.0130  309.2200  170.5370 C.2    65  ASP65       0.2266
     20  O        100.8350  309.0240  170.9480 O.2    65  ASP65      -0.2867
     21  CB       103.5770  308.6150  172.4210 C.3    65  ASP65       0.1410
     22  CG       104.5460  309.1200  173.4930 C.2    65  ASP65       0.3668
     23  OD1      105.7100  309.3720  173.1760 O.co2  65  ASP65      -0.2456
     24  OD2      104.1610  309.2970  174.6610 O.co2  65  ASP65      -0.2456
     25  N        101.2730  306.2540  167.3050 N.3    67  MET67      -0.1245
     26  CA       101.7530  305.2030  166.4000 C.3    67  MET67       0.1570
     27  C        101.0640  305.2780  165.0550 C.2    67  MET67       0.2261
     28  O         99.8230  305.4290  164.9460 O.2    67  MET67      -0.2867
     29  CB       101.5030  303.7920  166.9980 C.3    67  MET67       0.0387
     30  CG       102.1260  303.6770  168.3610 C.3    67  MET67       0.0595
     31  SD       102.0920  301.9810  169.0270 S.3    67  MET67      -0.1393
     32  CE       101.6080  301.0500  167.5750 C.3    67  MET67       0.0692
     33  N        116.6650  304.6110  167.9480 N.3   139  SER139     -0.1203
     34  CA       115.2910  304.9400  168.3980 C.3   139  SER139      0.2005
     35  C        114.2770  304.6580  167.3010 C.2   139  SER139      0.2461
     36  O        114.5720  304.8320  166.1130 O.2   139  SER139     -0.2732
     37  CB       115.1920  306.4310  168.7570 C.3   139  SER139      0.2103
     38  OG       113.8570  306.7500  169.0560 O.3   139  SER139     -0.2182
     39  N        113.0630  304.2490  167.6720 N.am  140  PRO140     -0.2717
     40  CA       112.0750  304.0840  166.6160 C.3   140  PRO140      0.1535
     41  C        111.2950  305.3650  166.3080 C.2   140  PRO140      0.2598
     42  O        110.3620  305.2780  165.4900 O.2   140  PRO140     -0.2715
     43  CB       111.0770  303.0960  167.2470 C.3   140  PRO140      0.0310
     44  CG       111.0910  303.4510  168.6930 C.3   140  PRO140      0.0237
     45  CD       112.5080  303.9420  169.0010 C.3   140  PRO140      0.0939
     46  N        111.6210  306.4880  166.9600 N.am  141  ALA141     -0.1978
     47  CA       110.7580  307.6770  166.8800 C.3   141  ALA141      0.1597
     48  C        111.1870  308.6730  165.8190 C.2   141  ALA141      0.2287
     49  O        112.3980  308.8570  165.5670 O.2   141  ALA141     -0.2864
     50  CB       110.6710  308.3750  168.2620 C.3   141  ALA141      0.0319
     51  N        106.0450  312.3490  169.3580 N.3   155  ASP155     -0.1239
     52  CA       106.8380  311.2310  168.8550 C.3   155  ASP155      0.1674
     53  C        105.9370  310.4370  167.9020 C.2   155  ASP155      0.2266
     54  O        104.9340  309.8670  168.3500 O.2   155  ASP155     -0.2867
     55  CB       107.2570  310.3420  170.0370 C.3   155  ASP155      0.1410
     56  CG       108.4390  310.9510  170.8200 C.2   155  ASP155      0.3668
     57  OD1      109.1690  311.7670  170.2440 O.co2 155  ASP155     -0.2456
     58  OD2      108.5880  310.6740  172.0210 O.co2 155  ASP155     -0.2456
     59  N        105.6080  307.1850  165.8710 N.3   157  ILE157     -0.1245
     60  CA       106.2860  305.8590  165.9270 C.3   157  ILE157      0.1561
     61  C        105.7010  304.9300  164.8590 C.2   157  ILE157      0.2260
     62  O        104.5450  304.4890  164.9820 O.2   157  ILE157     -0.2867
     63  CB       105.9620  305.1690  167.2810 C.3   157  ILE157      0.0252
     64  CG1      106.2200  306.1600  168.4340 C.3   157  ILE157      0.0019
     65  CG2      106.7720  303.8730  167.4260 C.3   157  ILE157      0.0019
     66  CD1      107.6080  306.7150  168.3890 C.3   157  ILE157      0.0001
     67  N        108.0320  297.7410  166.7860 N.3   196  VAL196     -0.1245
     68  CA       108.4900  299.0910  166.4270 C.3   196  VAL196      0.1561
     69  C        109.9770  299.0250  166.0320 C.2   196  VAL196      0.2260
     70  O        110.7470  298.1630  166.5220 O.2   196  VAL196     -0.2867
     71  CB       108.2090  300.1020  167.5670 C.3   196  VAL196      0.0252
     72  CG1      106.6750  300.2680  167.7660 C.3   196  VAL196      0.0019
     73  CG2      108.9410  299.6880  168.8500 C.3   196  VAL196      0.0019
     74  N        112.7800  299.8270  166.9130 N.3   198  LYS198     -0.1245
     75  CA       113.7960  300.1910  167.8720 C.3   198  LYS198      0.1561
     76  C        114.8480  299.0900  167.7940 C.2   198  LYS198      0.2260
     77  O        114.4790  297.9400  167.9570 O.2   198  LYS198     -0.2867
     78  CB       113.1800  300.1750  169.2710 C.3   198  LYS198      0.0271
     79  CG       114.2620  299.8890  170.3460 C.3   198  LYS198      0.0035
     80  CD       114.6420  301.1200  171.0700 C.3   198  LYS198      0.0206
     81  CE       115.8720  300.8430  171.9410 C.3   198  LYS198      0.1093
     82  NZ       117.1100  300.8670  171.1110 N.3   198  LYS198     -0.1314
     83  N        111.5200  295.7370  167.9540 N.3   212  ARG212     -0.1231
     84  CA       111.1830  295.4190  169.3440 C.3   212  ARG212      0.1694
     85  C        109.6900  295.2370  169.4810 C.2   212  ARG212      0.2592
     86  O        108.9050  295.9960  168.8780 O.2   212  ARG212     -0.2718
     87  CB       111.6470  296.5130  170.3480 C.3   212  ARG212      0.0321
     88  CG       111.5230  296.0460  171.8580 C.3   212  ARG212      0.0489
     89  CD       112.1610  297.0540  172.8830 C.3   212  ARG212      0.2205
     90  NE       111.4570  298.3550  172.8200 N.pl3 212  ARG212     -0.0865
     91  CZ       111.9390  299.4880  173.3470 C.cat 212  ARG212      0.5346
     92  NH1      113.1170  299.5080  173.9770 N.pl3 212  ARG212      0.1354
     93  NH2      111.2560  300.6110  173.2170 N.pl3 212  ARG212      0.1354
     94  N        109.2710  294.2660  170.3010 N.am  213  LEU213     -0.1966
     95  CA       107.8210  294.1110  170.5310 C.3   213  LEU213      0.1728
     96  C        107.2760  295.3680  171.2310 C.2   213  LEU213      0.2617
     97  O        107.9630  295.9620  172.0340 O.2   213  LEU213     -0.2715
     98  CB       107.5520  292.8860  171.4220 C.3   213  LEU213      0.0311
     99  CG       107.8220  291.5270  170.7240 C.3   213  LEU213      0.0022
    100  CD1      107.6670  290.3740  171.7130 C.3   213  LEU213      0.0001
    101  CD2      106.8250  291.3750  169.5560 C.3   213  LEU213      0.0001
    102  N        106.0440  295.7560  170.9240 N.am  214  SER214     -0.1936
    103  CA       105.3880  296.8580  171.6460 C.3   214  SER214      0.2055
    104  C        104.0390  296.3920  172.1230 C.2   214  SER214      0.2643
    105  O        103.3070  295.7760  171.3560 O.2   214  SER214     -0.2714
    106  CB       105.1790  298.0500  170.7020 C.3   214  SER214      0.2130
    107  OG       104.3810  299.0420  171.3130 O.3   214  SER214     -0.2179
    108  N        103.6600  296.7230  173.3630 N.am  215  PHE215     -0.1959
    109  CA       102.3170  296.3830  173.7920 C.3   215  PHE215      0.1771
    110  C        101.5930  297.6660  174.2150 C.2   215  PHE215      0.2620
    111  O        100.7620  297.6310  175.1200 O.2   215  PHE215     -0.2715
    112  CB       102.3870  295.4120  174.9720 C.3   215  PHE215      0.0574
    113  CG       103.3310  294.2560  174.7100 C.ar  215  PHE215     -0.0200
    114  CD1      104.7100  294.4030  174.9040 C.ar  215  PHE215     -0.0042
    115  CD2      102.8460  293.0630  174.2020 C.ar  215  PHE215     -0.0042
    116  CE1      105.5980  293.3530  174.6300 C.ar  215  PHE215     -0.0003
    117  CE2      103.7320  292.0160  173.9270 C.ar  215  PHE215     -0.0003
    118  CZ       105.0950  292.1760  174.1500 C.ar  215  PHE215     -0.0000
    119  N        101.9050  298.7800  173.5480 N.am  216  SER216     -0.1950
    120  CA       101.2860  300.0620  173.8810 C.3   216  SER216      0.1924
    121  C         99.7790  300.0320  173.9310 C.2   216  SER216      0.2314
    122  O         99.1550  300.7530  174.7680 O.2   216  SER216     -0.2863
    123  CB       101.7030  301.1270  172.8580 C.3   216  SER216      0.2116
    124  OG       103.1220  301.2560  172.8690 O.3   216  SER216     -0.2180
@<TRIPOS>BOND
     1    61    62    2
     2    61    60    1
     3    28    27    2
     4    27    26    1
     5    42    41    2
     6    49    48    2
     7    48    47    1
     8    59    60    1
     9    60    63    1
    10    69    68    1
    11    69    70    2
    12    36    35    2
    13    41    40    1
    14    41    46   am
    15    26    29    1
    16    26    25    1
    17    68    67    1
    18    68    71    1
    19    40    43    1
    20    40    39    1
    21    47    46    1
    22    47    50    1
    23    74    75    1
    24    29    30    1
    25    43    44    1
    26    63    65    1
    27    63    64    1
    28    35    39   am
    29    35    34    1
    30    71    72    1
    31    71    73    1
    32    32    31    1
    33    39    45    1
    34    76    75    1
    35    76    77    2
    36    75    78    1
    37    53    54    2
    38    53    52    1
    39    33    34    1
    40    83    84    1
    41    30    31    1
    42    66    64    1
    43    34    37    1
    44    44    45    1
    45    37    38    1
    46    52    51    1
    47    52    55    1
    48    86    85    2
    49    78    79    1
    50    84    85    1
    51    84    87    1
    52    85    94   am
    53   101    99    1
    54    55    56    1
    55    57    56   ar
    56    94    95    1
    57    79    80    1
    58    87    88    1
    59    95    96    1
    60    95    98    1
    61    19    20    2
    62    19    18    1
    63   106   107    1
    64   106   103    1
    65    99    98    1
    66    99   100    1
    67    56    58   ar
    68   102    96   am
    69   102   103    1
    70    80    81    1
    71    82    81    1
    72    96    97    2
    73   105   104    2
    74     7     5    1
    75    18    17    1
    76    18    21    1
    77   103   104    1
    78    88    89    1
    79     6     5    1
    80     1     2    1
    81   104   108   am
    82    21    22    1
    83     5     2    1
    84    90    89    1
    85    90    91    2
    86   123   124    1
    87   123   120    1
    88     2     3    1
    89    23    22   ar
    90    93    91    1
    91    91    92    1
    92   108   109    1
    93    22    24   ar
    94   119   120    1
    95   119   110   am
    96   109   110    1
    97   109   112    1
    98   120   121    1
    99     4     3    2
   100   117   118   ar
   101   117   115   ar
   102   121   122    2
   103   118   116   ar
   104   115   113   ar
   105   110   111    2
   106    16    14   ar
   107    10     9    1
   108    10    11    2
   109   116   114   ar
   110   113   114   ar
   111   113   112    1
   112    13    14    1
   113    13    12    1
   114    14    15   ar
   115     9     8    1
   116     9    12    1
