@<TRIPOS>MOLECULE
tmp/4k99A00.pdb
 201 188 0 0 0
SMALL
GASTEIGER

@<TRIPOS>ATOM
      1  N        185.6820  402.8730  172.2880 N.3    50  GLY50      -0.1210
      2  CA       186.5080  403.5360  173.2830 C.3    50  GLY50       0.1956
      3  C        185.7360  404.3780  174.2920 C.2    50  GLY50       0.2612
      4  O        184.5020  404.3530  174.3230 O.2    50  GLY50      -0.2717
      5  N        186.4650  405.1430  175.1090 N.am   51  SER51      -0.1952
      6  CA       185.8880  405.6980  176.3320 C.3    51  SER51       0.1924
      7  C        184.7560  406.7110  176.1310 C.2    51  SER51       0.2314
      8  O        183.8270  406.7580  176.9260 O.2    51  SER51      -0.2863
      9  CB       186.9780  406.2830  177.2210 C.3    51  SER51       0.2116
     10  OG       187.6550  407.3470  176.5450 O.3    51  SER51      -0.2180
     11  N        181.6900  404.7340  175.4120 N.3    54  GLU54      -0.1245
     12  CA       181.3890  403.8630  176.5510 C.3    54  GLU54       0.1567
     13  C        181.0120  404.6790  177.7940 C.2    54  GLU54       0.2260
     14  O        180.6910  404.1160  178.8360 O.2    54  GLU54      -0.2867
     15  CB       182.5960  402.9870  176.8750 C.3    54  GLU54       0.0388
     16  CG       182.9380  401.9470  175.8050 C.3    54  GLU54       0.1160
     17  CD       184.2680  401.2540  176.0910 C.2    54  GLU54       0.3649
     18  OE1      185.0270  401.7620  176.9530 O.co2  54  GLU54      -0.2457
     19  OE2      184.5460  400.2030  175.4690 O.co2  54  GLU54      -0.2457
     20  N        183.0050  406.5020  179.6680 N.3    56  VAL56      -0.1231
     21  CA       184.0090  406.5140  180.7380 C.3    56  VAL56       0.1692
     22  C        185.1680  407.4470  180.3700 C.2    56  VAL56       0.2592
     23  O        186.2340  407.3840  180.9600 O.2    56  VAL56      -0.2718
     24  CB       184.4960  405.1060  181.1000 C.3    56  VAL56       0.0266
     25  CG1      183.3540  404.2940  181.7530 C.3    56  VAL56       0.0020
     26  CG2      184.9720  404.3760  179.8560 C.3    56  VAL56       0.0020
     27  N        184.9270  408.3190  179.3950 N.am   57  LYS57      -0.1966
     28  CA       185.8920  409.3500  179.0240 C.3    57  LYS57       0.1728
     29  C        185.9210  410.3990  180.1290 C.2    57  LYS57       0.2616
     30  O        184.8650  410.8600  180.5820 O.2    57  LYS57      -0.2715
     31  CB       185.4820  410.0130  177.7080 C.3    57  LYS57       0.0311
     32  CG       186.4160  411.1520  177.2390 C.3    57  LYS57       0.0038
     33  CD       187.7490  410.5880  176.7380 C.3    57  LYS57       0.0206
     34  CE       188.7050  411.6890  176.2780 C.3    57  LYS57       0.1093
     35  NZ       189.4070  412.3670  177.4120 N.3    57  LYS57      -0.1314
     36  N        187.1180  410.8050  180.5570 N.am   58  ILE58      -0.1977
     37  CA       187.2080  411.7000  181.7060 C.3    58  ILE58       0.1596
     38  C        187.6970  413.0980  181.3300 C.2    58  ILE58       0.2287
     39  O        188.3670  413.2720  180.3140 O.2    58  ILE58      -0.2864
     40  CB       188.1260  411.1320  182.8120 C.3    58  ILE58       0.0276
     41  CG1      189.5170  410.8530  182.2510 C.3    58  ILE58       0.0022
     42  CG2      187.4960  409.8840  183.4520 C.3    58  ILE58       0.0022
     43  CD1      190.4620  410.2640  183.2820 C.3    58  ILE58       0.0001
     44  N        189.1370  413.2740  172.9790 N.3    63  GLU63      -0.1245
     45  CA       189.7050  412.1210  172.2780 C.3    63  GLU63       0.1567
     46  C        188.6260  411.1030  171.9170 C.2    63  GLU63       0.2260
     47  O        187.9380  410.5720  172.7930 O.2    63  GLU63      -0.2867
     48  CB       190.8220  411.4750  173.1090 C.3    63  GLU63       0.0388
     49  CG       191.8310  410.6900  172.2750 C.3    63  GLU63       0.1160
     50  CD       191.3770  409.2610  171.9990 C.2    63  GLU63       0.3649
     51  OE1      190.7100  408.6830  172.8850 O.co2  63  GLU63      -0.2457
     52  OE2      191.6690  408.7240  170.9010 O.co2  63  GLU63      -0.2457
     53  N        187.4580  407.6460  169.4680 N.3    65  ASP65      -0.1239
     54  CA       187.9480  406.4760  168.7550 C.3    65  ASP65       0.1674
     55  C        186.8630  405.9290  167.8390 C.2    65  ASP65       0.2266
     56  O        185.7070  405.7640  168.2430 O.2    65  ASP65      -0.2867
     57  CB       188.4220  405.4230  169.7690 C.3    65  ASP65       0.1410
     58  CG       189.4370  405.9980  170.7540 C.2    65  ASP65       0.3668
     59  OD1      190.5600  406.3170  170.3110 O.co2  65  ASP65      -0.2456
     60  OD2      189.1080  406.1850  171.9480 O.co2  65  ASP65      -0.2456
     61  N        191.1100  408.9980  166.6350 N.3   155  ASP155     -0.1239
     62  CA       191.7990  407.8550  166.0500 C.3   155  ASP155      0.1674
     63  C        190.8720  407.1250  165.0930 C.2   155  ASP155      0.2266
     64  O        189.8580  406.5860  165.5130 O.2   155  ASP155     -0.2867
     65  CB       192.2490  406.8570  167.1280 C.3   155  ASP155      0.1410
     66  CG       193.4360  407.3530  167.9370 C.2   155  ASP155      0.3668
     67  OD1      194.0930  408.3160  167.5100 O.co2 155  ASP155     -0.2456
     68  OD2      193.7110  406.7680  169.0110 O.co2 155  ASP155     -0.2456
     69  N        197.6510  396.5790  164.0760 N.3   198  LYS198     -0.1245
     70  CA       198.6550  396.8820  165.0810 C.3   198  LYS198      0.1561
     71  C        199.6740  395.7560  165.0010 C.2   198  LYS198      0.2260
     72  O        199.3190  394.5940  165.2130 O.2   198  LYS198     -0.2867
     73  CB       198.0240  396.8910  166.4750 C.3   198  LYS198      0.0271
     74  CG       199.0000  396.5310  167.5960 C.3   198  LYS198      0.0035
     75  CD       199.4830  397.7620  168.3280 C.3   198  LYS198      0.0206
     76  CE       200.6400  397.4130  169.2510 C.3   198  LYS198      0.1093
     77  NZ       201.9600  397.5270  168.5450 N.3   198  LYS198     -0.1314
     78  N        196.3640  392.4290  165.1090 N.3   212  ARG212     -0.1231
     79  CA       196.0170  392.0940  166.4830 C.3   212  ARG212      0.1694
     80  C        194.5100  391.9970  166.6570 C.2   212  ARG212      0.2591
     81  O        193.7440  392.7870  166.0810 O.2   212  ARG212     -0.2718
     82  CB       196.5760  393.1350  167.4650 C.3   212  ARG212      0.0321
     83  CG       196.4090  392.7210  168.9320 C.3   212  ARG212      0.0489
     84  CD       197.0000  393.7370  169.8990 C.3   212  ARG212      0.2205
     85  NE       196.2770  395.0060  169.8830 N.pl3 212  ARG212     -0.0865
     86  CZ       196.7000  396.1160  170.4850 C.cat 212  ARG212      0.5346
     87  NH1      197.8540  396.1250  171.1580 N.pl3 212  ARG212      0.1354
     88  NH2      195.9720  397.2210  170.4040 N.pl3 212  ARG212      0.1354
     89  N        194.0730  391.0470  167.4770 N.am  213  LEU213     -0.1980
     90  CA       192.6540  390.9100  167.7740 C.3   213  LEU213      0.1596
     91  C        192.1380  392.1610  168.4890 C.2   213  LEU213      0.2287
     92  O        192.8450  392.7420  169.3010 O.2   213  LEU213     -0.2864
     93  CB       192.4070  389.6770  168.6480 C.3   213  LEU213      0.0297
     94  CG       192.5050  388.3330  167.9250 C.3   213  LEU213      0.0022
     95  CD1      192.3780  387.1630  168.9140 C.3   213  LEU213      0.0001
     96  CD2      191.4070  388.2380  166.8530 C.3   213  LEU213      0.0001
     97  N        186.7380  395.5860  170.7810 N.3   216  SER216     -0.1217
     98  CA       186.1300  396.8840  171.1090 C.3   216  SER216      0.1889
     99  C        184.5970  396.8660  171.1420 C.2   216  SER216      0.2288
    100  O        183.9690  397.5380  171.9700 O.2   216  SER216     -0.2866
    101  CB       186.5990  397.9630  170.1300 C.3   216  SER216      0.2089
    102  OG       188.0050  398.0130  170.0990 O.3   216  SER216     -0.2183
    103  N        183.5430  394.9690  174.2590 N.3   219  GLU219     -0.1245
    104  CA       183.8350  395.7700  175.4430 C.3   219  GLU219      0.1567
    105  C        182.7900  396.8740  175.6310 C.2   219  GLU219      0.2260
    106  O        182.3630  397.1740  176.7450 O.2   219  GLU219     -0.2867
    107  CB       185.2480  396.3600  175.3500 C.3   219  GLU219      0.0388
    108  CG       186.3440  395.2710  175.3850 C.3   219  GLU219      0.1160
    109  CD       187.7340  395.7990  175.0620 C.2   219  GLU219      0.3649
    110  OE1      188.6630  394.9670  174.8850 O.co2 219  GLU219     -0.2457
    111  OE2      187.8920  397.0420  174.9900 O.co2 219  GLU219     -0.2457
    112  N        191.5190  405.4580  185.9020 N.3   250  LYS250     -0.1245
    113  CA       192.0420  406.0520  184.6670 C.3   250  LYS250      0.1561
    114  C        192.6570  407.4120  184.9380 C.2   250  LYS250      0.2260
    115  O        193.7060  407.7630  184.3770 O.2   250  LYS250     -0.2867
    116  CB       190.9180  406.2140  183.6320 C.3   250  LYS250      0.0271
    117  CG       190.5250  404.8980  182.9350 C.3   250  LYS250      0.0035
    118  CD       189.1090  404.9390  182.3620 C.3   250  LYS250      0.0206
    119  CE       188.9510  405.9620  181.2500 C.3   250  LYS250      0.1093
    120  NZ       189.6870  405.6070  180.0100 N.3   250  LYS250     -0.1314
    121  N        196.3770  408.6160  184.3030 N.3   254  GLU254     -0.1245
    122  CA       196.6090  409.7720  183.4280 C.3   254  GLU254      0.1567
    123  C        197.4900  410.8100  184.1110 C.2   254  GLU254      0.2260
    124  O        198.4400  411.3370  183.5140 O.2   254  GLU254     -0.2867
    125  CB       195.2890  410.4150  182.9900 C.3   254  GLU254      0.0388
    126  CG       194.8600  410.0460  181.5740 C.3   254  GLU254      0.1160
    127  CD       193.5440  410.7060  181.1480 C.2   254  GLU254      0.3649
    128  OE1      193.4190  411.9480  181.2620 O.co2 254  GLU254     -0.2457
    129  OE2      192.6280  409.9740  180.7070 O.co2 254  GLU254     -0.2457
    130  N        199.1120  402.2050  179.8900 N.3   267  CYS267     -0.1221
    131  CA       198.0240  402.8080  179.1360 C.3   267  CYS267      0.1808
    132  C        196.7010  402.5060  179.8090 C.2   267  CYS267      0.2602
    133  O        196.6230  401.6540  180.7010 O.2   267  CYS267     -0.2717
    134  CB       198.0290  402.2610  177.7080 C.3   267  CYS267      0.0970
    135  SG       197.6400  400.4820  177.6410 S.3   267  CYS267     -0.0800
    136  N        195.6520  403.1980  179.3780 N.am  268  SER268     -0.1938
    137  CA       194.3340  403.0180  179.9790 C.3   268  SER268      0.2055
    138  C        193.7890  401.6110  179.7780 C.2   268  SER268      0.2643
    139  O        192.9920  401.1310  180.5870 O.2   268  SER268     -0.2714
    140  CB       193.3290  404.0570  179.4510 C.3   268  SER268      0.2130
    141  OG       193.1240  403.8980  178.0610 O.3   268  SER268     -0.2179
    142  N        194.1980  400.9430  178.7050 N.am  269  TYR269     -0.1959
    143  CA       193.6990  399.5750  178.4790 C.3   269  TYR269      0.1771
    144  C        194.1360  398.6290  179.6010 C.2   269  TYR269      0.2619
    145  O        193.4510  397.6600  179.9190 O.2   269  TYR269     -0.2715
    146  CB       194.1170  399.0050  177.1070 C.3   269  TYR269      0.0574
    147  CG       193.3010  397.7680  176.7400 C.ar  269  TYR269     -0.0198
    148  CD1      191.9760  397.8890  176.3360 C.ar  269  TYR269     -0.0009
    149  CD2      193.8500  396.4870  176.8240 C.ar  269  TYR269     -0.0009
    150  CE1      191.2070  396.7650  176.0120 C.ar  269  TYR269      0.0417
    151  CE2      193.0880  395.3500  176.5070 C.ar  269  TYR269      0.0417
    152  CZ       191.7690  395.5030  176.0970 C.ar  269  TYR269      0.1957
    153  OH       190.9980  394.3930  175.7770 O.3   269  TYR269     -0.2866
    154  N        195.2810  398.9220  180.2120 N.am  270  HIS270     -0.1973
    155  CA       195.7240  398.1580  181.3770 C.3   270  HIS270      0.1656
    156  C        194.7260  398.2760  182.5220 C.2   270  HIS270      0.2291
    157  O        194.4060  397.2900  183.1920 O.2   270  HIS270     -0.2864
    158  CB       197.0780  398.6570  181.8530 C.3   270  HIS270      0.0771
    159  CG       198.1900  398.3840  180.8940 C.ar  270  HIS270      0.0820
    160  ND1      199.2610  399.2340  180.7410 N.ar  270  HIS270     -0.2267
    161  CD2      198.4080  397.3450  180.0520 C.ar  270  HIS270      0.1154
    162  CE1      200.0950  398.7320  179.8460 C.ar  270  HIS270      0.1986
    163  NE2      199.6020  397.5840  179.4130 N.ar  270  HIS270     -0.2212
    164  N        191.5020  399.2910  182.1920 N.3   272  LYS272     -0.1245
    165  CA       190.2470  398.6840  181.7360 C.3   272  LYS272      0.1561
    166  C        190.2840  397.1500  181.8860 C.2   272  LYS272      0.2260
    167  O        189.3170  396.5220  182.3310 O.2   272  LYS272     -0.2867
    168  CB       189.9840  399.0800  180.2750 C.3   272  LYS272      0.0271
    169  CG       188.6090  398.7030  179.7470 C.3   272  LYS272      0.0035
    170  CD       188.5240  398.9800  178.2410 C.3   272  LYS272      0.0206
    171  CE       187.0650  399.1040  177.7950 C.3   272  LYS272      0.1093
    172  NZ       186.9530  399.3160  176.3180 N.3   272  LYS272     -0.1314
    173  N        195.2150  389.4920  179.4540 N.3   315  HIS315     -0.1241
    174  CA       194.1980  390.0680  178.5780 C.3   315  HIS315      0.1621
    175  C        192.8660  389.4010  178.9200 C.2   315  HIS315      0.2264
    176  O        192.8260  388.1900  179.1720 O.2   315  HIS315     -0.2867
    177  CB       194.5830  389.8110  177.1160 C.3   315  HIS315      0.0745
    178  CG       193.8010  390.6140  176.1320 C.ar  315  HIS315      0.0817
    179  ND1      192.4670  390.3830  175.8810 N.ar  315  HIS315     -0.2268
    180  CD2      194.1640  391.6530  175.3360 C.ar  315  HIS315      0.1154
    181  CE1      192.0370  391.2490  174.9750 C.ar  315  HIS315      0.1986
    182  NE2      193.0480  392.0290  174.6260 N.ar  315  HIS315     -0.2212
    183  N        197.7500  385.8400  177.0450 N.3   321  PHE321     -0.1241
    184  CA       198.4490  387.0620  176.6520 C.3   321  PHE321      0.1605
    185  C        198.6200  387.9510  177.8790 C.2   321  PHE321      0.2264
    186  O        197.6510  388.5220  178.3800 O.2   321  PHE321     -0.2867
    187  CB       197.6720  387.7950  175.5530 C.3   321  PHE321      0.0534
    188  CG       198.3650  389.0270  175.0270 C.ar  321  PHE321     -0.0203
    189  CD1      199.7030  389.0020  174.7070 C.ar  321  PHE321     -0.0042
    190  CD2      197.6590  390.2040  174.8160 C.ar  321  PHE321     -0.0042
    191  CE1      200.3460  390.1300  174.2150 C.ar  321  PHE321     -0.0003
    192  CE2      198.2990  391.3330  174.3160 C.ar  321  PHE321     -0.0003
    193  CZ       199.6440  391.2920  174.0250 C.ar  321  PHE321     -0.0000
    194  N        199.6990  391.2120  179.5310 N.3   323  LEU323     -0.1245
    195  CA       199.9550  392.6230  179.2220 C.3   323  LEU323      0.1561
    196  C        201.1380  393.1620  180.0050 C.2   323  LEU323      0.2260
    197  O        201.7620  394.1550  179.6080 O.2   323  LEU323     -0.2867
    198  CB       198.7150  393.4590  179.5580 C.3   323  LEU323      0.0270
    199  CG       197.6340  393.7150  178.5000 C.3   323  LEU323      0.0019
    200  CD1      197.7690  392.8300  177.2820 C.3   323  LEU323      0.0001
    201  CD2      196.2360  393.5990  179.0930 C.3   323  LEU323      0.0001
@<TRIPOS>BOND
     1    69    70    1
     2    71    70    1
     3    71    72    2
     4    70    73    1
     5    63    64    2
     6    63    62    1
     7    78    79    1
     8    62    61    1
     9    62    65    1
    10    81    80    2
    11    73    74    1
    12    79    80    1
    13    79    82    1
    14    80    89   am
    15    96    94    1
    16    65    66    1
    17    82    83    1
    18    89    90    1
    19    67    66   ar
    20    74    75    1
    21    90    91    1
    22    90    93    1
    23    55    56    2
    24    55    54    1
    25    94    93    1
    26    94    95    1
    27    66    68   ar
    28    75    76    1
    29    91    92    2
    30    77    76    1
    31    54    53    1
    32    54    57    1
    33    83    84    1
    34    57    58    1
    35    85    84    1
    36    85    86    2
    37   102   101    1
    38   101    98    1
    39    59    58   ar
    40    88    86    1
    41    86    87    1
    42    58    60   ar
    43    97    98    1
    44    52    50   ar
    45    98    99    1
    46    99   100    2
    47    46    45    1
    48    46    47    2
    49    50    49    1
    50    50    51   ar
    51    49    48    1
    52    45    44    1
    53    45    48    1
    54     1     2    1
    55     2     3    1
    56   193   191   ar
    57   193   192   ar
    58   191   189   ar
    59   103   104    1
    60     3     4    2
    61     3     5   am
    62   192   190   ar
    63   182   181   ar
    64   182   180   ar
    65   189   188   ar
    66   190   188   ar
    67   110   109   ar
    68   181   179   ar
    69   111   109   ar
    70   188   187    1
    71   109   108    1
    72     5     6    1
    73   180   178   ar
    74   107   108    1
    75   107   104    1
    76    11    12    1
    77   104   105    1
    78    19    17   ar
    79   187   184    1
    80   105   106    2
    81   153   152    1
    82    16    17    1
    83    16    15    1
    84   179   178   ar
    85   150   152   ar
    86   150   148   ar
    87    17    18   ar
    88   152   151   ar
    89     7     6    1
    90     7     8    2
    91   178   177    1
    92    34    33    1
    93    34    35    1
    94   172   171    1
    95     6     9    1
    96   148   147   ar
    97   151   149   ar
    98    10     9    1
    99    12    15    1
   100    12    13    1
   101   184   183    1
   102   184   185    1
   103    33    32    1
   104   147   149   ar
   105   147   146    1
   106   146   143    1
   107   177   174    1
   108    32    31    1
   109   200   199    1
   110   135   134    1
   111   134   131    1
   112    31    28    1
   113    13    14    2
   114   171   170    1
   115   185   186    2
   116   141   140    1
   117   170   169    1
   118   143   142    1
   119   143   144    1
   120   199   201    1
   121   199   198    1
   122   174   175    1
   123   174   173    1
   124   142   138   am
   125   175   176    2
   126    28    27    1
   127    28    29    1
   128   131   132    1
   129   131   130    1
   130   195   194    1
   131   195   198    1
   132   195   196    1
   133   136   132   am
   134   136   137    1
   135    27    22   am
   136   163   162   ar
   137   163   161   ar
   138   140   137    1
   139   144   145    2
   140   144   154   am
   141   197   196    2
   142    20    21    1
   143   169   168    1
   144   138   137    1
   145   138   139    2
   146   132   133    2
   147   162   160   ar
   148    26    24    1
   149   120   119    1
   150   161   159   ar
   151    29    36   am
   152    29    30    2
   153   154   155    1
   154   168   165    1
   155    39    38    2
   156    22    21    1
   157    22    23    2
   158    36    37    1
   159   129   127   ar
   160    21    24    1
   161   160   159   ar
   162   159   158    1
   163    24    25    1
   164   127   128   ar
   165   127   126    1
   166   119   118    1
   167    38    37    1
   168   155   158    1
   169   155   156    1
   170   126   125    1
   171    37    40    1
   172   165   166    1
   173   165   164    1
   174   166   167    2
   175    41    40    1
   176    41    43    1
   177   118   117    1
   178   156   157    2
   179    40    42    1
   180   117   116    1
   181   125   122    1
   182   122   123    1
   183   122   121    1
   184   124   123    2
   185   116   113    1
   186   115   114    2
   187   113   114    1
   188   113   112    1
