@<TRIPOS>MOLECULE
tmp/4k9aA00.pdb
 131 120 0 0 0
SMALL
GASTEIGER

@<TRIPOS>ATOM
      1  N        -15.4370  -12.3030  -24.8910 N.3    50  GLY50      -0.1210
      2  CA       -16.2990  -12.9620  -23.9300 C.3    50  GLY50       0.1956
      3  C        -15.5970  -13.7810  -22.8660 C.2    50  GLY50       0.2612
      4  O        -14.3680  -13.8140  -22.7840 O.2    50  GLY50      -0.2717
      5  N        -16.4130  -14.4650  -22.0660 N.am   51  SER51      -0.1952
      6  CA       -15.9860  -15.1310  -20.8350 C.3    51  SER51       0.1924
      7  C        -14.7720  -16.0470  -20.9540 C.2    51  SER51       0.2314
      8  O        -13.8490  -15.9600  -20.1420 O.2    51  SER51      -0.2863
      9  CB       -17.1540  -15.9150  -20.2290 C.3    51  SER51       0.2116
     10  OG       -18.1370  -15.0280  -19.7110 O.3    51  SER51      -0.2180
     11  N        -11.6920  -14.1530  -21.7450 N.3    54  GLU54      -0.1245
     12  CA       -11.4060  -13.2550  -20.6310 C.3    54  GLU54       0.1567
     13  C        -10.9740  -14.0610  -19.4120 C.2    54  GLU54       0.2260
     14  O        -10.7110  -13.5030  -18.3460 O.2    54  GLU54      -0.2867
     15  CB       -12.6420  -12.4210  -20.2860 C.3    54  GLU54       0.0388
     16  CG       -13.0220  -11.3850  -21.3300 C.3    54  GLU54       0.1160
     17  CD       -14.3960  -10.7910  -21.0790 C.2    54  GLU54       0.3649
     18  OE1      -15.1910  -11.4190  -20.3450 O.co2  54  GLU54      -0.2457
     19  OE2      -14.6840   -9.6950  -21.6080 O.co2  54  GLU54      -0.2457
     20  N        -18.7660  -22.6520  -24.2930 N.3    63  GLU63      -0.1245
     21  CA       -19.2530  -21.4240  -24.9150 C.3    63  GLU63       0.1567
     22  C        -18.0990  -20.5650  -25.4190 C.2    63  GLU63       0.2260
     23  O        -17.1910  -20.2190  -24.6650 O.2    63  GLU63      -0.2867
     24  CB       -20.0880  -20.6060  -23.9280 C.3    63  GLU63       0.0388
     25  CG       -21.3980  -21.2410  -23.5000 C.3    63  GLU63       0.1160
     26  CD       -22.2000  -20.3290  -22.5940 C.2    63  GLU63       0.3649
     27  OE1      -21.9010  -19.1150  -22.5610 O.co2  63  GLU63      -0.2457
     28  OE2      -23.1230  -20.8190  -21.9100 O.co2  63  GLU63      -0.2457
     29  N        -17.2390  -17.0400  -27.8270 N.3    65  ASP65      -0.1239
     30  CA       -17.6520  -15.8720  -28.5940 C.3    65  ASP65       0.1674
     31  C        -16.5270  -15.4250  -29.5010 C.2    65  ASP65       0.2266
     32  O        -15.3700  -15.3740  -29.0920 O.2    65  ASP65      -0.2867
     33  CB       -18.0030  -14.7030  -27.6800 C.3    65  ASP65       0.1410
     34  CG       -19.0820  -15.0410  -26.6900 C.2    65  ASP65       0.3668
     35  OD1      -19.8480  -16.0010  -26.9260 O.co2  65  ASP65      -0.2456
     36  OD2      -19.1610  -14.3290  -25.6720 O.co2  65  ASP65      -0.2456
     37  N        -27.3540   -6.0040  -33.2000 N.3   198  LYS198     -0.1245
     38  CA       -28.3940   -6.2460  -32.2150 C.3   198  LYS198      0.1561
     39  C        -29.4210   -5.1360  -32.3430 C.2   198  LYS198      0.2260
     40  O        -29.1040   -3.9630  -32.1670 O.2   198  LYS198     -0.2867
     41  CB       -27.8290   -6.2720  -30.7950 C.3   198  LYS198      0.0271
     42  CG       -28.8450   -6.7040  -29.7490 C.3   198  LYS198      0.0035
     43  CD       -28.3480   -6.4060  -28.3500 C.3   198  LYS198      0.0206
     44  CE       -28.6790   -7.5270  -27.3810 C.3   198  LYS198      0.1093
     45  NZ       -28.0760   -7.2670  -26.0440 N.3   198  LYS198     -0.1314
     46  N        -25.9780   -1.8400  -32.4690 N.3   212  ARG212     -0.1245
     47  CA       -25.7030   -1.6900  -31.0470 C.3   212  ARG212      0.1563
     48  C        -24.2090   -1.5040  -30.8050 C.2   212  ARG212      0.2260
     49  O        -23.3880   -2.1900  -31.4110 O.2   212  ARG212     -0.2867
     50  CB       -26.2110   -2.9290  -30.3030 C.3   212  ARG212      0.0307
     51  CG       -25.7230   -3.0830  -28.8770 C.3   212  ARG212      0.0489
     52  CD       -26.4130   -2.1230  -27.9320 C.3   212  ARG212      0.2205
     53  NE       -26.5170   -2.6990  -26.5940 N.pl3 212  ARG212     -0.0865
     54  CZ       -25.5230   -2.7310  -25.7130 C.cat 212  ARG212      0.5346
     55  NH1      -24.3420   -2.2120  -26.0200 N.pl3 212  ARG212      0.1354
     56  NH2      -25.7120   -3.2820  -24.5210 N.pl3 212  ARG212      0.1354
     57  N        -16.4400   -4.9700  -26.4900 N.3   216  SER216     -0.1217
     58  CA       -16.0030   -6.2760  -26.0960 C.3   216  SER216      0.1889
     59  C        -14.4910   -6.2910  -26.0460 C.2   216  SER216      0.2288
     60  O        -13.9480   -6.8370  -25.1760 O.2   216  SER216     -0.2866
     61  CB       -16.5100   -7.3390  -27.0500 C.3   216  SER216      0.2089
     62  OG       -17.8310   -7.6370  -26.7920 O.3   216  SER216     -0.2183
     63  N        -13.3020   -4.3390  -22.5650 N.3   219  GLU219     -0.1245
     64  CA       -13.7180   -5.2180  -21.4790 C.3   219  GLU219      0.1567
     65  C        -12.7170   -6.3550  -21.3660 C.2   219  GLU219      0.2260
     66  O        -12.3040   -6.7280  -20.2700 O.2   219  GLU219     -0.2867
     67  CB       -15.1220   -5.7730  -21.7410 C.3   219  GLU219      0.0388
     68  CG       -16.2280   -4.7340  -21.6370 C.3   219  GLU219      0.1160
     69  CD       -17.5380   -5.2020  -22.2480 C.2   219  GLU219      0.3649
     70  OE1      -18.3980   -4.3440  -22.5480 O.co2 219  GLU219     -0.2457
     71  OE2      -17.7120   -6.4280  -22.4320 O.co2 219  GLU219     -0.2457
     72  N        -21.2050  -14.9710  -11.2190 N.3   250  LYS250     -0.1245
     73  CA       -21.7340  -15.5610  -12.4460 C.3   250  LYS250      0.1561
     74  C        -22.3950  -16.9000  -12.1560 C.2   250  LYS250      0.2260
     75  O        -23.4560  -17.2130  -12.6970 O.2   250  LYS250     -0.2867
     76  CB       -20.6140  -15.7600  -13.4730 C.3   250  LYS250      0.0271
     77  CG       -20.2390  -14.5050  -14.2390 C.3   250  LYS250      0.0035
     78  CD       -18.8410  -14.5990  -14.8420 C.3   250  LYS250      0.0206
     79  CE       -18.7760  -15.6060  -15.9820 C.3   250  LYS250      0.1093
     80  NZ       -19.6390  -15.2070  -17.1310 N.3   250  LYS250     -0.1314
     81  N        -28.8030  -11.7360  -17.2760 N.3   267  CYS267     -0.1221
     82  CA       -27.6900  -12.3440  -17.9880 C.3   267  CYS267      0.1808
     83  C        -26.3750  -12.0330  -17.2890 C.2   267  CYS267      0.2602
     84  O        -26.3300  -11.2380  -16.3500 O.2   267  CYS267     -0.2717
     85  CB       -27.6430  -11.8500  -19.4360 C.3   267  CYS267      0.0970
     86  SG       -27.3380  -10.0750  -19.5950 S.3   267  CYS267     -0.0800
     87  N        -25.3040  -12.6650  -17.7540 N.am  268  SER268     -0.1938
     88  CA       -23.9950  -12.4960  -17.1390 C.3   268  SER268      0.2055
     89  C        -23.4180  -11.1010  -17.3630 C.2   268  SER268      0.2643
     90  O        -22.5290  -10.6680  -16.6290 O.2   268  SER268     -0.2714
     91  CB       -23.0180  -13.5580  -17.6480 C.3   268  SER268      0.2130
     92  OG       -22.8760  -13.4790  -19.0560 O.3   268  SER268     -0.2179
     93  N        -23.9170  -10.4000  -18.3790 N.am  269  TYR269     -0.1973
     94  CA       -23.4360   -9.0470  -18.6520 C.3   269  TYR269      0.1639
     95  C        -23.8500   -8.0720  -17.5560 C.2   269  TYR269      0.2290
     96  O        -23.1490   -7.0980  -17.2890 O.2   269  TYR269     -0.2864
     97  CB       -23.8830   -8.5300  -20.0240 C.3   269  TYR269      0.0560
     98  CG       -23.1080   -7.3010  -20.4460 C.ar  269  TYR269     -0.0198
     99  CD1      -21.7950   -7.4100  -20.8890 C.ar  269  TYR269     -0.0009
    100  CD2      -23.6770   -6.0310  -20.3790 C.ar  269  TYR269     -0.0009
    101  CE1      -21.0740   -6.2970  -21.2650 C.ar  269  TYR269      0.0417
    102  CE2      -22.9600   -4.9100  -20.7540 C.ar  269  TYR269      0.0417
    103  CZ       -21.6590   -5.0500  -21.1960 C.ar  269  TYR269      0.1957
    104  OH       -20.9350   -3.9430  -21.5730 O.3   269  TYR269     -0.2866
    105  N        -21.2040   -8.7660  -14.9110 N.3   272  LYS272     -0.1245
    106  CA       -19.9720   -8.1520  -15.3880 C.3   272  LYS272      0.1561
    107  C        -20.0060   -6.6390  -15.1760 C.2   272  LYS272      0.2260
    108  O        -19.0460   -6.0450  -14.6840 O.2   272  LYS272     -0.2867
    109  CB       -19.8190   -8.4620  -16.8760 C.3   272  LYS272      0.0271
    110  CG       -18.4530   -8.2180  -17.4700 C.3   272  LYS272      0.0035
    111  CD       -18.5050   -8.5070  -18.9590 C.3   272  LYS272      0.0206
    112  CE       -17.1270   -8.6100  -19.5770 C.3   272  LYS272      0.1093
    113  NZ       -17.2330   -8.7640  -21.0550 N.3   272  LYS272     -0.1314
    114  N        -24.8990    1.1140  -17.6970 N.3   315  HIS315     -0.1241
    115  CA       -23.9170    0.5240  -18.5880 C.3   315  HIS315      0.1621
    116  C        -22.5890    1.2080  -18.2940 C.2   315  HIS315      0.2264
    117  O        -22.5370    2.4260  -18.1220 O.2   315  HIS315     -0.2867
    118  CB       -24.3220    0.7470  -20.0460 C.3   315  HIS315      0.0745
    119  CG       -23.5440   -0.0780  -21.0230 C.ar  315  HIS315      0.0817
    120  ND1      -22.2480    0.2220  -21.3890 N.ar  315  HIS315     -0.2268
    121  CD2      -23.8830   -1.1920  -21.7170 C.ar  315  HIS315      0.1154
    122  CE1      -21.8210   -0.6730  -22.2630 C.ar  315  HIS315      0.1986
    123  NE2      -22.7940   -1.5420  -22.4790 N.ar  315  HIS315     -0.2212
    124  N        -29.4380   -0.6980  -17.6830 N.3   323  LEU323     -0.1245
    125  CA       -29.6950   -2.1220  -17.8940 C.3   323  LEU323      0.1561
    126  C        -30.8640   -2.6420  -17.0620 C.2   323  LEU323      0.2260
    127  O        -31.4560   -3.6700  -17.3880 O.2   323  LEU323     -0.2867
    128  CB       -28.4440   -2.9520  -17.5610 C.3   323  LEU323      0.0270
    129  CG       -27.3730   -3.2290  -18.6280 C.3   323  LEU323      0.0019
    130  CD1      -27.6090   -2.4280  -19.8860 C.3   323  LEU323      0.0001
    131  CD2      -25.9820   -2.9470  -18.0790 C.3   323  LEU323      0.0001
@<TRIPOS>BOND
     1    37    38    1
     2    46    47    1
     3    39    38    1
     4    39    40    2
     5    38    41    1
     6    49    48    2
     7    47    48    1
     8    47    50    1
     9    41    42    1
    10    50    51    1
    11    42    43    1
    12    31    32    2
    13    31    30    1
    14    51    52    1
    15    30    29    1
    16    30    33    1
    17    43    44    1
    18    52    53    1
    19    33    34    1
    20    44    45    1
    21    61    62    1
    22    61    58    1
    23    35    34   ar
    24    34    36   ar
    25    53    54    2
    26    57    58    1
    27    58    59    1
    28    59    60    2
    29    55    54    1
    30    54    56    1
    31    22    21    1
    32    22    23    2
    33    21    20    1
    34    21    24    1
    35     1     2    1
    36     2     3    1
    37    24    25    1
    38    25    26    1
    39     3     4    2
    40     3     5   am
    41    26    27   ar
    42    26    28   ar
    43    63    64    1
    44    70    69   ar
    45   123   122   ar
    46   123   121   ar
    47    71    69   ar
    48   122   120   ar
    49    69    68    1
    50     5     6    1
    51    11    12    1
    52    67    68    1
    53    67    64    1
    54   121   119   ar
    55    19    17   ar
    56   104   103    1
    57    64    65    1
    58   120   119   ar
    59    65    66    2
    60    16    17    1
    61    16    15    1
    62   101   103   ar
    63   101    99   ar
    64   103   102   ar
    65    17    18   ar
    66   113   112    1
    67   119   118    1
    68     7     6    1
    69     7     8    2
    70    99    98   ar
    71     6     9    1
    72   102   100   ar
    73    12    15    1
    74    12    13    1
    75    98   100   ar
    76    98    97    1
    77     9    10    1
    78   118   115    1
    79    97    94    1
    80   130   129    1
    81    86    85    1
    82   112   111    1
    83    85    82    1
    84    13    14    2
    85    92    91    1
    86   111   110    1
    87    94    93    1
    88    94    95    1
    89   129   131    1
    90   129   128    1
    91   115   116    1
    92   115   114    1
    93    93    89   am
    94   116   117    2
    95    82    83    1
    96    82    81    1
    97   125   124    1
    98   125   128    1
    99   125   126    1
   100    87    83   am
   101    87    88    1
   102    91    88    1
   103    95    96    2
   104   110   109    1
   105   127   126    2
   106    89    88    1
   107    89    90    2
   108    83    84    2
   109    80    79    1
   110   109   106    1
   111    79    78    1
   112   106   107    1
   113   106   105    1
   114   107   108    2
   115    78    77    1
   116    77    76    1
   117    76    73    1
   118    75    74    2
   119    73    74    1
   120    73    72    1
