@<TRIPOS>MOLECULE
tmp/4k9aA01.pdb
 104 95 0 0 0
SMALL
GASTEIGER

@<TRIPOS>ATOM
      1  N        -13.6830  -12.8950  -28.0630 N.3    49  THR49      -0.1218
      2  CA       -14.2480  -12.0880  -26.9890 C.3    49  THR49       0.1862
      3  C        -14.9960  -12.9370  -25.9720 C.2    49  THR49       0.2287
      4  O        -15.1730  -14.1360  -26.1580 O.2    49  THR49      -0.2866
      5  CB       -15.2410  -11.0430  -27.5420 C.3    49  THR49       0.1770
      6  OG1      -16.2580  -11.7020  -28.3060 O.3    49  THR49      -0.2211
      7  CG2      -14.5260  -10.0440  -28.4320 C.3    49  THR49       0.0375
      8  N        -17.2390  -17.0400  -27.8270 N.3    65  ASP65      -0.1239
      9  CA       -17.6520  -15.8720  -28.5940 C.3    65  ASP65       0.1674
     10  C        -16.5270  -15.4250  -29.5010 C.2    65  ASP65       0.2266
     11  O        -15.3700  -15.3740  -29.0920 O.2    65  ASP65      -0.2867
     12  CB       -18.0030  -14.7030  -27.6800 C.3    65  ASP65       0.1410
     13  CG       -19.0820  -15.0410  -26.6900 C.2    65  ASP65       0.3668
     14  OD1      -19.8480  -16.0010  -26.9260 O.co2  65  ASP65      -0.2456
     15  OD2      -19.1610  -14.3290  -25.6720 O.co2  65  ASP65      -0.2456
     16  N        -15.8960  -12.3630  -32.6810 N.3    67  MET67      -0.1245
     17  CA       -16.3590  -11.3120  -33.5690 C.3    67  MET67       0.1570
     18  C        -15.6330  -11.3490  -34.9070 C.2    67  MET67       0.2261
     19  O        -14.4120  -11.4840  -34.9620 O.2    67  MET67      -0.2867
     20  CB       -16.1790   -9.9390  -32.9120 C.3    67  MET67       0.0387
     21  CG       -17.1650   -9.6480  -31.7880 C.3    67  MET67       0.0595
     22  SD       -16.7310   -8.1690  -30.8520 S.3    67  MET67      -0.1393
     23  CE       -16.3130   -7.0430  -32.1770 C.3    67  MET67       0.0692
     24  N        -31.0620  -10.8480  -31.4910 N.3   139  SER139     -0.1203
     25  CA       -29.6910  -11.2990  -31.2720 C.3   139  SER139      0.2005
     26  C        -28.7670  -10.9900  -32.4490 C.2   139  SER139      0.2461
     27  O        -29.1170  -11.2310  -33.6010 O.2   139  SER139     -0.2732
     28  CB       -29.6710  -12.8000  -30.9800 C.3   139  SER139      0.2103
     29  OG       -28.3400  -13.2850  -30.9040 O.3   139  SER139     -0.2182
     30  N        -27.5750  -10.4590  -32.1540 N.am  140  PRO140     -0.2717
     31  CA       -26.5920  -10.1190  -33.1840 C.3   140  PRO140      0.1535
     32  C        -25.7760  -11.3350  -33.6040 C.2   140  PRO140      0.2598
     33  O        -24.9450  -11.2340  -34.5030 O.2   140  PRO140     -0.2715
     34  CB       -25.6860   -9.1270  -32.4620 C.3   140  PRO140      0.0310
     35  CG       -25.6990   -9.6010  -31.0640 C.3   140  PRO140      0.0237
     36  CD       -27.0880  -10.1260  -30.8050 C.3   140  PRO140      0.0939
     37  N        -26.0240  -12.4720  -32.9650 N.am  141  ALA141     -0.1978
     38  CA       -25.1730  -13.6430  -33.1300 C.3   141  ALA141      0.1597
     39  C        -25.7130  -14.6930  -34.1000 C.2   141  ALA141      0.2287
     40  O        -26.9170  -14.9280  -34.1760 O.2   141  ALA141     -0.2864
     41  CB       -24.9240  -14.2810  -31.7730 C.3   141  ALA141      0.0319
     42  N        -20.6910  -18.5010  -30.7460 N.3   155  ASP155     -0.1239
     43  CA       -21.3670  -17.3160  -31.2560 C.3   155  ASP155      0.1674
     44  C        -20.4610  -16.5500  -32.2130 C.2   155  ASP155      0.2266
     45  O        -19.4430  -15.9970  -31.8050 O.2   155  ASP155     -0.2867
     46  CB       -21.7940  -16.3990  -30.1060 C.3   155  ASP155      0.1410
     47  CG       -22.9940  -16.9340  -29.3470 C.2   155  ASP155      0.3668
     48  OD1      -23.7930  -17.6850  -29.9470 O.co2 155  ASP155     -0.2456
     49  OD2      -23.1430  -16.6010  -28.1530 O.co2 155  ASP155     -0.2456
     50  N        -20.1150  -13.2880  -34.1930 N.3   157  ILE157     -0.1245
     51  CA       -20.6980  -11.9540  -34.1320 C.3   157  ILE157      0.1561
     52  C        -20.1600  -11.0510  -35.2340 C.2   157  ILE157      0.2260
     53  O        -18.9890  -10.6730  -35.2170 O.2   157  ILE157     -0.2867
     54  CB       -20.3760  -11.2640  -32.7900 C.3   157  ILE157      0.0252
     55  CG1      -20.4350  -12.2620  -31.6310 C.3   157  ILE157      0.0019
     56  CG2      -21.3100  -10.0890  -32.5630 C.3   157  ILE157      0.0019
     57  CD1      -21.8110  -12.7260  -31.3160 C.3   157  ILE157      0.0001
     58  N        -22.6040   -3.9020  -33.5000 N.3   196  VAL196     -0.1245
     59  CA       -23.0830   -5.2470  -33.7790 C.3   196  VAL196      0.1561
     60  C        -24.5690   -5.1830  -34.1250 C.2   196  VAL196      0.2260
     61  O        -25.2850   -4.3050  -33.6380 O.2   196  VAL196     -0.2867
     62  CB       -22.8220   -6.1930  -32.5840 C.3   196  VAL196      0.0252
     63  CG1      -21.3260   -6.3140  -32.3330 C.3   196  VAL196      0.0019
     64  CG2      -23.5290   -5.6950  -31.3380 C.3   196  VAL196      0.0019
     65  N        -27.3540   -6.0040  -33.2000 N.3   198  LYS198     -0.1245
     66  CA       -28.3940   -6.2460  -32.2150 C.3   198  LYS198      0.1561
     67  C        -29.4210   -5.1360  -32.3430 C.2   198  LYS198      0.2260
     68  O        -29.1040   -3.9630  -32.1670 O.2   198  LYS198     -0.2867
     69  CB       -27.8290   -6.2720  -30.7950 C.3   198  LYS198      0.0271
     70  CG       -28.8450   -6.7040  -29.7490 C.3   198  LYS198      0.0035
     71  CD       -28.3480   -6.4060  -28.3500 C.3   198  LYS198      0.0206
     72  CE       -28.6790   -7.5270  -27.3810 C.3   198  LYS198      0.1093
     73  NZ       -28.0760   -7.2670  -26.0440 N.3   198  LYS198     -0.1314
     74  N        -25.9780   -1.8400  -32.4690 N.3   212  ARG212     -0.1231
     75  CA       -25.7030   -1.6900  -31.0470 C.3   212  ARG212      0.1694
     76  C        -24.2090   -1.5040  -30.8050 C.2   212  ARG212      0.2592
     77  O        -23.3880   -2.1900  -31.4110 O.2   212  ARG212     -0.2718
     78  CB       -26.2110   -2.9290  -30.3030 C.3   212  ARG212      0.0321
     79  CG       -25.7230   -3.0830  -28.8770 C.3   212  ARG212      0.0489
     80  CD       -26.4130   -2.1230  -27.9320 C.3   212  ARG212      0.2205
     81  NE       -26.5170   -2.6990  -26.5940 N.pl3 212  ARG212     -0.0865
     82  CZ       -25.5230   -2.7310  -25.7130 C.cat 212  ARG212      0.5346
     83  NH1      -24.3420   -2.2120  -26.0200 N.pl3 212  ARG212      0.1354
     84  NH2      -25.7120   -3.2820  -24.5210 N.pl3 212  ARG212      0.1354
     85  N        -23.8580   -0.5720  -29.9230 N.am  213  LEU213     -0.1966
     86  CA       -22.4580   -0.3250  -29.5950 C.3   213  LEU213      0.1728
     87  C        -21.8210   -1.5360  -28.9240 C.2   213  LEU213      0.2616
     88  O        -22.4680   -2.2400  -28.1510 O.2   213  LEU213     -0.2715
     89  CB       -22.3200    0.8970  -28.6820 C.3   213  LEU213      0.0311
     90  CG       -22.4100    2.2710  -29.3520 C.3   213  LEU213      0.0022
     91  CD1      -22.2330    3.3770  -28.3270 C.3   213  LEU213      0.0001
     92  CD2      -21.3700    2.3940  -30.4510 C.3   213  LEU213      0.0001
     93  N        -20.5480   -1.7700  -29.2220 N.am  214  SER214     -0.1950
     94  CA       -19.8210   -2.8730  -28.6180 C.3   214  SER214      0.1924
     95  C        -18.4470   -2.4530  -28.1250 C.2   214  SER214      0.2314
     96  O        -17.6920   -1.7860  -28.8310 O.2   214  SER214     -0.2863
     97  CB       -19.6810   -4.0350  -29.6000 C.3   214  SER214      0.2116
     98  OG       -18.9650   -5.1100  -29.0070 O.3   214  SER214     -0.2180
     99  N        -16.4400   -4.9700  -26.4900 N.3   216  SER216     -0.1217
    100  CA       -16.0030   -6.2760  -26.0960 C.3   216  SER216      0.1889
    101  C        -14.4910   -6.2910  -26.0460 C.2   216  SER216      0.2288
    102  O        -13.9480   -6.8370  -25.1760 O.2   216  SER216     -0.2866
    103  CB       -16.5100   -7.3390  -27.0500 C.3   216  SER216      0.2089
    104  OG       -17.8310   -7.6370  -26.7920 O.3   216  SER216     -0.2183
@<TRIPOS>BOND
     1    52    53    2
     2    52    51    1
     3    19    18    2
     4    18    17    1
     5    33    32    2
     6    50    51    1
     7    40    39    2
     8    51    54    1
     9    60    59    1
    10    60    61    2
    11    39    38    1
    12    59    58    1
    13    59    62    1
    14    32    31    1
    15    32    37   am
    16    27    26    2
    17    17    20    1
    18    17    16    1
    19    65    66    1
    20    31    34    1
    21    31    30    1
    22    38    37    1
    23    38    41    1
    24    20    21    1
    25    54    56    1
    26    54    55    1
    27    62    63    1
    28    62    64    1
    29    74    75    1
    30    34    35    1
    31    26    30   am
    32    26    25    1
    33    67    66    1
    34    67    68    2
    35    66    69    1
    36    44    45    2
    37    44    43    1
    38    23    22    1
    39    30    36    1
    40    21    22    1
    41    55    57    1
    42    24    25    1
    43    77    76    2
    44    25    28    1
    45    43    42    1
    46    43    46    1
    47    35    36    1
    48    75    76    1
    49    75    78    1
    50    28    29    1
    51    76    85   am
    52    69    70    1
    53    92    90    1
    54    78    79    1
    55    46    47    1
    56    48    47   ar
    57    85    86    1
    58    70    71    1
    59    97    98    1
    60    97    94    1
    61    86    87    1
    62    86    89    1
    63    10    11    2
    64    10     9    1
    65    90    89    1
    66    90    91    1
    67    47    49   ar
    68    93    87   am
    69    93    94    1
    70    87    88    2
    71    79    80    1
    72    96    95    2
    73    94    95    1
    74     9     8    1
    75     9    12    1
    76     7     5    1
    77    71    72    1
    78     6     5    1
    79     1     2    1
    80    80    81    1
    81    12    13    1
    82     5     2    1
    83    72    73    1
    84   103   104    1
    85   103   100    1
    86     2     3    1
    87    14    13   ar
    88    13    15   ar
    89    81    82    2
    90    99   100    1
    91     4     3    2
    92   100   101    1
    93   101   102    2
    94    83    82    1
    95    82    84    1
