@<TRIPOS>MOLECULE
tmp/4k9bA00.pdb
 112 105 0 0 0
SMALL
GASTEIGER

@<TRIPOS>ATOM
      1  N        187.9540  311.8210  167.4740 N.3    65  ASP65      -0.1239
      2  CA       188.4430  310.6330  166.7810 C.3    65  ASP65       0.1674
      3  C        187.3240  310.1140  165.8770 C.2    65  ASP65       0.2266
      4  O        186.1700  310.0140  166.3070 O.2    65  ASP65      -0.2867
      5  CB       188.8640  309.5490  167.7940 C.3    65  ASP65       0.1410
      6  CG       190.2040  309.8400  168.4640 C.2    65  ASP65       0.3668
      7  OD1      190.3170  310.8490  169.1810 O.co2  65  ASP65      -0.2456
      8  OD2      191.1480  309.0420  168.2940 O.co2  65  ASP65      -0.2456
      9  N        203.2160  310.9280  161.9230 N.3   137  LYS137     -0.1231
     10  CA       203.8510  310.3870  163.1200 C.3   137  LYS137      0.1678
     11  C        204.2730  308.9320  162.9210 C.2   137  LYS137      0.2434
     12  O        203.5480  308.1520  162.3000 O.2   137  LYS137     -0.2733
     13  CB       202.9060  310.4790  164.3150 C.3   137  LYS137      0.0284
     14  CG       202.9900  311.7760  165.0840 C.3   137  LYS137      0.0035
     15  CD       202.7670  311.5130  166.5650 C.3   137  LYS137      0.0206
     16  CE       202.6000  312.8080  167.3310 C.3   137  LYS137      0.1093
     17  NZ       201.3520  313.5070  166.9310 N.3   137  LYS137     -0.1314
     18  N        205.4390  308.5570  163.4750 N.am  138  PRO138     -0.2718
     19  CA       205.9470  307.1820  163.3840 C.3   138  PRO138      0.1535
     20  C        204.9730  306.1670  163.9860 C.2   138  PRO138      0.2599
     21  O        204.5660  306.3210  165.1400 O.2   138  PRO138     -0.2715
     22  CB       207.2290  307.2330  164.2230 C.3   138  PRO138      0.0310
     23  CG       207.0140  308.3740  165.1690 C.3   138  PRO138      0.0237
     24  CD       206.2770  309.3910  164.3570 C.3   138  PRO138      0.0939
     25  N        204.6030  305.1570  163.2030 N.am  139  GLY139     -0.1941
     26  CA       203.7270  304.1020  163.6790 C.3   139  GLY139      0.2014
     27  C        202.3610  304.5880  164.1340 C.2   139  GLY139      0.2640
     28  O        201.7520  303.9700  165.0030 O.2   139  GLY139     -0.2714
     29  N        201.8840  305.6970  163.5670 N.am  140  SER140     -0.1936
     30  CA       200.5000  306.1250  163.7950 C.3   140  SER140      0.2040
     31  C        199.5810  305.6770  162.6530 C.2   140  SER140      0.2485
     32  O        199.9370  305.7850  161.4830 O.2   140  SER140     -0.2729
     33  CB       200.4040  307.6430  163.9800 C.3   140  SER140      0.2129
     34  OG       199.0470  308.0530  164.1220 O.3   140  SER140     -0.2179
     35  N        198.3830  305.1750  162.9890 N.am  141  PRO141     -0.2715
     36  CA       197.3760  304.8660  161.9650 C.3   141  PRO141      0.1536
     37  C        196.5270  306.0840  161.5390 C.2   141  PRO141      0.2598
     38  O        195.7240  305.9680  160.6090 O.2   141  PRO141     -0.2715
     39  CB       196.4710  303.8660  162.6810 C.3   141  PRO141      0.0310
     40  CG       196.4840  304.3540  164.0960 C.3   141  PRO141      0.0237
     41  CD       197.9130  304.8200  164.3410 C.3   141  PRO141      0.0939
     42  N        196.6950  307.2180  162.2130 N.am  142  ALA142     -0.1978
     43  CA       195.8030  308.3690  162.0470 C.3   142  ALA142      0.1597
     44  C        196.3220  309.3870  161.0260 C.2   142  ALA142      0.2287
     45  O        197.5180  309.6560  160.9410 O.2   142  ALA142     -0.2864
     46  CB       195.5990  309.0630  163.3780 C.3   142  ALA142      0.0319
     47  N        191.5390  313.1270  164.5360 N.3   156  ASP156     -0.1239
     48  CA       192.2170  311.9520  163.9830 C.3   156  ASP156      0.1674
     49  C        191.2750  311.1950  163.0560 C.2   156  ASP156      0.2266
     50  O        190.2140  310.7110  163.4830 O.2   156  ASP156     -0.2867
     51  CB       192.7090  311.0070  165.0930 C.3   156  ASP156      0.1410
     52  CG       193.8880  311.5710  165.8880 C.2   156  ASP156      0.3668
     53  OD1      194.6200  312.4420  165.3760 O.co2 156  ASP156     -0.2456
     54  OD2      194.0890  311.1230  167.0390 O.co2 156  ASP156     -0.2456
     55  N        190.9620  307.8960  160.9960 N.3   158  ILE158     -0.1245
     56  CA       191.5460  306.5640  161.0840 C.3   158  ILE158      0.1561
     57  C        190.9400  305.6900  160.0020 C.2   158  ILE158      0.2260
     58  O        189.7500  305.3670  160.0550 O.2   158  ILE158     -0.2867
     59  CB       191.1770  305.9070  162.4180 C.3   158  ILE158      0.0252
     60  CG1      191.4800  306.8300  163.6000 C.3   158  ILE158      0.0019
     61  CG2      191.8610  304.5570  162.5610 C.3   158  ILE158      0.0019
     62  CD1      192.8970  306.8320  164.0020 C.3   158  ILE158      0.0001
     63  N        193.4210  298.5640  161.7020 N.3   197  VAL197     -0.1245
     64  CA       193.9080  299.9070  161.3900 C.3   197  VAL197      0.1561
     65  C        195.3900  299.8330  161.0430 C.2   197  VAL197      0.2260
     66  O        196.1300  298.9940  161.5840 O.2   197  VAL197     -0.2867
     67  CB       193.6570  300.9110  162.5400 C.3   197  VAL197      0.0252
     68  CG1      192.1530  301.0050  162.8420 C.3   197  VAL197      0.0019
     69  CG2      194.4500  300.5060  163.7940 C.3   197  VAL197      0.0019
     70  N        198.1270  300.6030  161.7610 N.3   199  LYS199     -0.1245
     71  CA       199.1650  300.8700  162.7310 C.3   199  LYS199      0.1561
     72  C        200.1880  299.7320  162.6890 C.2   199  LYS199      0.2260
     73  O        199.8430  298.5620  162.8920 O.2   199  LYS199     -0.2867
     74  CB       198.5680  301.0290  164.1220 C.3   199  LYS199      0.0271
     75  CG       199.5550  300.7310  165.1910 C.3   199  LYS199      0.0035
     76  CD       199.6650  301.8480  166.1590 C.3   199  LYS199      0.0206
     77  CE       200.6690  301.4390  167.1840 C.3   199  LYS199      0.1093
     78  NZ       201.9830  301.0860  166.5660 N.3   199  LYS199     -0.1314
     79  N        209.6620  299.9300  161.9530 N.3   207  PHE207     -0.1241
     80  CA       208.3000  299.4270  161.8000 C.3   207  PHE207      0.1605
     81  C        208.1790  298.4310  160.6370 C.2   207  PHE207      0.2264
     82  O        208.8270  298.5850  159.5960 O.2   207  PHE207     -0.2867
     83  CB       207.3110  300.5870  161.6160 C.3   207  PHE207      0.0534
     84  CG       207.2230  301.5030  162.8030 C.ar  207  PHE207     -0.0203
     85  CD1      206.3270  301.2400  163.8320 C.ar  207  PHE207     -0.0042
     86  CD2      208.0390  302.6240  162.8950 C.ar  207  PHE207     -0.0042
     87  CE1      206.2500  302.0780  164.9340 C.ar  207  PHE207     -0.0003
     88  CE2      207.9670  303.4670  163.9930 C.ar  207  PHE207     -0.0003
     89  CZ       207.0740  303.1940  165.0140 C.ar  207  PHE207     -0.0000
     90  N        196.8600  296.4220  162.8530 N.3   213  ARG213     -0.1245
     91  CA       196.5370  296.1460  164.2510 C.3   213  ARG213      0.1563
     92  C        195.0190  296.0780  164.4730 C.2   213  ARG213      0.2260
     93  O        194.2640  296.8620  163.8920 O.2   213  ARG213     -0.2867
     94  CB       197.1250  297.2210  165.1750 C.3   213  ARG213      0.0307
     95  CG       197.2020  296.7530  166.6410 C.3   213  ARG213      0.0489
     96  CD       197.2330  297.8890  167.6660 C.3   213  ARG213      0.2205
     97  NE       196.0660  298.7610  167.5380 N.pl3 213  ARG213     -0.0865
     98  CZ       196.0480  300.0490  167.8620 C.cat 213  ARG213      0.5346
     99  NH1      197.1350  300.6380  168.3470 N.pl3 213  ARG213      0.1354
    100  NH2      194.9370  300.7490  167.6880 N.pl3 213  ARG213      0.1354
    101  N        191.4690  296.7070  166.1790 N.3   215  SER215     -0.1217
    102  CA       190.8530  297.8370  166.8730 C.3   215  SER215      0.1889
    103  C        189.4460  297.4540  167.3200 C.2   215  SER215      0.2288
    104  O        188.6950  296.8420  166.5670 O.2   215  SER215     -0.2866
    105  CB       190.7690  299.0500  165.9430 C.3   215  SER215      0.2089
    106  OG       190.0280  300.0950  166.5410 O.3   215  SER215     -0.2183
    107  N        187.3410  299.9720  168.9550 N.3   217  SER217     -0.1217
    108  CA       186.8250  301.2880  169.3440 C.3   217  SER217      0.1889
    109  C        185.3010  301.2390  169.3410 C.2   217  SER217      0.2288
    110  O        184.6120  301.7400  170.2270 O.2   217  SER217     -0.2866
    111  CB       187.3410  302.3210  168.3350 C.3   217  SER217      0.2089
    112  OG       188.7460  302.2120  168.2350 O.3   217  SER217     -0.2183
@<TRIPOS>BOND
     1    82    81    2
     2    57    58    2
     3    57    56    1
     4    38    37    2
     5    81    80    1
     6    45    44    2
     7    55    56    1
     8    44    43    1
     9    65    64    1
    10    65    66    2
    11    56    59    1
    12    64    63    1
    13    64    67    1
    14    32    31    2
    15    37    36    1
    16    37    42   am
    17    83    80    1
    18    83    84    1
    19    70    71    1
    20    80    79    1
    21     9    10    1
    22    36    39    1
    23    36    35    1
    24    43    42    1
    25    43    46    1
    26    12    11    2
    27    59    61    1
    28    59    60    1
    29    67    68    1
    30    67    69    1
    31    31    35   am
    32    31    30    1
    33    39    40    1
    34    72    71    1
    35    72    73    2
    36    71    74    1
    37    84    86   ar
    38    84    85   ar
    39    90    91    1
    40    86    88   ar
    41    11    10    1
    42    11    18   am
    43    35    41    1
    44    49    50    2
    45    49    48    1
    46    10    13    1
    47    25    26    1
    48    25    20   am
    49    19    18    1
    50    19    20    1
    51    19    22    1
    52    18    24    1
    53    29    30    1
    54    29    27   am
    55    60    62    1
    56    26    27    1
    57    30    33    1
    58    85    87   ar
    59    93    92    2
    60    33    34    1
    61    48    47    1
    62    48    51    1
    63    20    21    2
    64    88    89   ar
    65    40    41    1
    66    74    75    1
    67    27    28    2
    68    22    23    1
    69    91    92    1
    70    91    94    1
    71    13    14    1
    72    24    23    1
    73    87    89   ar
    74    14    15    1
    75    51    52    1
    76    94    95    1
    77    75    76    1
    78    53    52   ar
    79     3     4    2
    80     3     2    1
    81    52    54   ar
    82   105   106    1
    83   105   102    1
    84    76    77    1
    85   101   102    1
    86    15    16    1
    87    78    77    1
    88   104   103    2
    89    95    96    1
    90     2     1    1
    91     2     5    1
    92   102   103    1
    93    17    16    1
    94    97    96    1
    95    97    98    2
    96   100    98    1
    97     5     6    1
    98    98    99    1
    99   112   111    1
   100     8     6   ar
   101   111   108    1
   102     6     7   ar
   103   107   108    1
   104   109   108    1
   105   109   110    2
