@<TRIPOS>MOLECULE
tmp/4k9bA01.pdb
 130 125 0 0 0
SMALL
GASTEIGER

@<TRIPOS>ATOM
      1  N        198.1270  300.6030  161.7610 N.3   199  LYS199     -0.1245
      2  CA       199.1650  300.8700  162.7310 C.3   199  LYS199      0.1561
      3  C        200.1880  299.7320  162.6890 C.2   199  LYS199      0.2260
      4  O        199.8430  298.5620  162.8920 O.2   199  LYS199     -0.2867
      5  CB       198.5680  301.0290  164.1220 C.3   199  LYS199      0.0271
      6  CG       199.5550  300.7310  165.1910 C.3   199  LYS199      0.0035
      7  CD       199.6650  301.8480  166.1590 C.3   199  LYS199      0.0206
      8  CE       200.6690  301.4390  167.1840 C.3   199  LYS199      0.1093
      9  NZ       201.9830  301.0860  166.5660 N.3   199  LYS199     -0.1314
     10  N        196.8600  296.4220  162.8530 N.3   213  ARG213     -0.1231
     11  CA       196.5370  296.1460  164.2510 C.3   213  ARG213      0.1694
     12  C        195.0190  296.0780  164.4730 C.2   213  ARG213      0.2592
     13  O        194.2640  296.8620  163.8920 O.2   213  ARG213     -0.2718
     14  CB       197.1250  297.2210  165.1750 C.3   213  ARG213      0.0321
     15  CG       197.2020  296.7530  166.6410 C.3   213  ARG213      0.0489
     16  CD       197.2330  297.8890  167.6660 C.3   213  ARG213      0.2205
     17  NE       196.0660  298.7610  167.5380 N.pl3 213  ARG213     -0.0865
     18  CZ       196.0480  300.0490  167.8620 C.cat 213  ARG213      0.5346
     19  NH1      197.1350  300.6380  168.3470 N.pl3 213  ARG213      0.1354
     20  NH2      194.9370  300.7490  167.6880 N.pl3 213  ARG213      0.1354
     21  N        194.5810  295.1480  165.3200 N.am  214  LEU214     -0.1966
     22  CA       193.1550  295.0600  165.6660 C.3   214  LEU214      0.1728
     23  C        192.7270  296.3320  166.3810 C.2   214  LEU214      0.2616
     24  O        193.5210  296.9470  167.0980 O.2   214  LEU214     -0.2715
     25  CB       192.8560  293.8290  166.5520 C.3   214  LEU214      0.0311
     26  CG       192.9100  292.4650  165.8530 C.3   214  LEU214      0.0022
     27  CD1      192.8490  291.2540  166.8140 C.3   214  LEU214      0.0001
     28  CD2      191.7680  292.4030  164.8600 C.3   214  LEU214      0.0001
     29  N        191.4690  296.7070  166.1790 N.am  215  SER215     -0.1950
     30  CA       190.8530  297.8370  166.8730 C.3   215  SER215      0.1924
     31  C        189.4460  297.4540  167.3200 C.2   215  SER215      0.2314
     32  O        188.6950  296.8420  166.5670 O.2   215  SER215     -0.2863
     33  CB       190.7690  299.0500  165.9430 C.3   215  SER215      0.2116
     34  OG       190.0280  300.0950  166.5410 O.3   215  SER215     -0.2180
     35  N        187.3410  299.9720  168.9550 N.3   217  SER217     -0.1217
     36  CA       186.8250  301.2880  169.3440 C.3   217  SER217      0.1889
     37  C        185.3010  301.2390  169.3410 C.2   217  SER217      0.2288
     38  O        184.6120  301.7400  170.2270 O.2   217  SER217     -0.2866
     39  CB       187.3410  302.3210  168.3350 C.3   217  SER217      0.2089
     40  OG       188.7460  302.2120  168.2350 O.3   217  SER217     -0.2183
     41  N        184.2130  299.2940  172.3950 N.3   220  GLU220     -0.1245
     42  CA       184.5430  300.0670  173.5800 C.3   220  GLU220      0.1567
     43  C        183.5150  301.1380  173.7810 C.2   220  GLU220      0.2260
     44  O        183.1310  301.4370  174.9050 O.2   220  GLU220     -0.2867
     45  CB       185.9480  300.6670  173.4530 C.3   220  GLU220      0.0388
     46  CG       187.0410  299.5850  173.4560 C.3   220  GLU220      0.1160
     47  CD       188.3780  300.0820  172.8970 C.2   220  GLU220      0.3649
     48  OE1      189.2820  299.2360  172.7500 O.co2 220  GLU220     -0.2457
     49  OE2      188.5380  301.2970  172.6140 O.co2 220  GLU220     -0.2457
     50  N        205.3510  307.6610  176.9730 N.3   266  ALA266     -0.1231
     51  CA       204.9290  306.3220  176.5590 C.3   266  ALA266      0.1694
     52  C        203.5490  305.9440  177.1090 C.2   266  ALA266      0.2592
     53  O        202.9030  305.0410  176.5790 O.2   266  ALA266     -0.2718
     54  CB       205.9780  305.2730  176.9590 C.3   266  ALA266      0.0304
     55  N        203.0970  306.6360  178.1570 N.am  267  PHE267     -0.1962
     56  CA       201.7710  306.3800  178.7320 C.3   267  PHE267      0.1771
     57  C        200.6950  307.1960  178.0440 C.2   267  PHE267      0.2619
     58  O        200.9760  308.2490  177.4650 O.2   267  PHE267     -0.2715
     59  CB       201.7540  306.6630  180.2320 C.3   267  PHE267      0.0574
     60  CG       202.7230  305.8270  181.0030 C.ar  267  PHE267     -0.0200
     61  CD1      202.4360  304.5030  181.2880 C.ar  267  PHE267     -0.0042
     62  CD2      203.9290  306.3510  181.4210 C.ar  267  PHE267     -0.0042
     63  CE1      203.3390  303.7240  181.9900 C.ar  267  PHE267     -0.0003
     64  CE2      204.8330  305.5760  182.1260 C.ar  267  PHE267     -0.0003
     65  CZ       204.5440  304.2660  182.4070 C.ar  267  PHE267     -0.0000
     66  N        199.4590  306.7060  178.1170 N.am  268  CYS268     -0.1968
     67  CA       198.3390  307.3860  177.4770 C.3   268  CYS268      0.1712
     68  C        196.9960  307.0060  178.0740 C.2   268  CYS268      0.2296
     69  O        196.8900  306.0650  178.8560 O.2   268  CYS268     -0.2864
     70  CB       198.2930  307.0050  176.0180 C.3   268  CYS268      0.0983
     71  SG       197.6980  305.3150  175.7850 S.3   268  CYS268     -0.0798
     72  N        194.6330  305.3870  176.7940 N.3   270  TYR270     -0.1227
     73  CA       194.1970  304.0230  176.4890 C.3   270  TYR270      0.1736
     74  C        194.5750  303.0390  177.6050 C.2   270  TYR270      0.2595
     75  O        193.8280  302.1040  177.8870 O.2   270  TYR270     -0.2718
     76  CB       194.6860  303.5010  175.1140 C.3   270  TYR270      0.0548
     77  CG       193.9130  302.2430  174.7010 C.ar  270  TYR270     -0.0200
     78  CD1      192.6010  302.3380  174.2520 C.ar  270  TYR270     -0.0009
     79  CD2      194.4770  300.9650  174.7960 C.ar  270  TYR270     -0.0009
     80  CE1      191.8660  301.2090  173.8900 C.ar  270  TYR270      0.0417
     81  CE2      193.7360  299.8110  174.4310 C.ar  270  TYR270      0.0417
     82  CZ       192.4310  299.9550  173.9830 C.ar  270  TYR270      0.1957
     83  OH       191.6750  298.8620  173.6150 O.3   270  TYR270     -0.2866
     84  N        195.7390  303.2530  178.2170 N.am  271  HIS271     -0.1975
     85  CA       196.1500  302.4880  179.3910 C.3   271  HIS271      0.1656
     86  C        195.1640  302.6570  180.5560 C.2   271  HIS271      0.2291
     87  O        194.8270  301.6920  181.2500 O.2   271  HIS271     -0.2864
     88  CB       197.5550  302.9060  179.8250 C.3   271  HIS271      0.0771
     89  CG       198.6060  302.6200  178.8030 C.ar  271  HIS271      0.0820
     90  ND1      199.6410  303.4920  178.5280 N.ar  271  HIS271     -0.2267
     91  CD2      198.7930  301.5460  177.9970 C.ar  271  HIS271      0.1154
     92  CE1      200.4190  302.9640  177.6010 C.ar  271  HIS271      0.1986
     93  NE2      199.9280  301.7900  177.2610 N.ar  271  HIS271     -0.2212
     94  N        195.6510  293.8690  177.4830 N.3   316  HIS316     -0.1241
     95  CA       194.6370  294.3800  176.5720 C.3   316  HIS316      0.1621
     96  C        193.3100  293.6770  176.8930 C.2   316  HIS316      0.2264
     97  O        193.2720  292.4560  177.0210 O.2   316  HIS316     -0.2867
     98  CB       195.0340  294.0530  175.1370 C.3   316  HIS316      0.0745
     99  CG       194.3130  294.8690  174.1120 C.ar  316  HIS316      0.0817
    100  ND1      192.9710  294.7100  173.8400 N.ar  316  HIS316     -0.2268
    101  CD2      194.7560  295.8500  173.2930 C.ar  316  HIS316      0.1154
    102  CE1      192.6170  295.5590  172.8960 C.ar  316  HIS316      0.1986
    103  NE2      193.6800  296.2670  172.5480 N.ar  316  HIS316     -0.2212
    104  N        198.2580  290.1710  174.9120 N.3   322  PHE322     -0.1241
    105  CA       198.9490  291.3830  174.4810 C.3   322  PHE322      0.1605
    106  C        199.1610  292.3280  175.6810 C.2   322  PHE322      0.2264
    107  O        198.2300  292.9750  176.1460 O.2   322  PHE322     -0.2867
    108  CB       198.2040  292.0600  173.3190 C.3   322  PHE322      0.0534
    109  CG       198.8590  293.3260  172.8280 C.ar  322  PHE322     -0.0203
    110  CD1      200.2040  293.3420  172.5010 C.ar  322  PHE322     -0.0042
    111  CD2      198.1330  294.4940  172.6860 C.ar  322  PHE322     -0.0042
    112  CE1      200.8160  294.5090  172.0560 C.ar  322  PHE322     -0.0003
    113  CE2      198.7470  295.6660  172.2360 C.ar  322  PHE322     -0.0003
    114  CZ       200.0860  295.6670  171.9320 C.ar  322  PHE322     -0.0000
    115  N        200.1690  295.5470  177.2290 N.3   324  LEU324     -0.1245
    116  CA       200.4060  296.9940  177.0990 C.3   324  LEU324      0.1561
    117  C        201.5580  297.5300  177.9530 C.2   324  LEU324      0.2260
    118  O        202.1100  298.5880  177.6460 O.2   324  LEU324     -0.2867
    119  CB       199.1260  297.7840  177.4320 C.3   324  LEU324      0.0270
    120  CG       198.1030  298.0690  176.3310 C.3   324  LEU324      0.0019
    121  CD1      198.0670  296.9760  175.2920 C.3   324  LEU324      0.0001
    122  CD2      196.7190  298.2530  176.9470 C.3   324  LEU324      0.0001
    123  N        207.4230  297.6110  175.2130 N.3   329  LEU329     -0.1245
    124  CA       206.6290  298.7870  174.8750 C.3   329  LEU329      0.1561
    125  C        206.9790  299.9760  175.7630 C.2   329  LEU329      0.2260
    126  O        207.0720  301.1100  175.2950 O.2   329  LEU329     -0.2867
    127  CB       205.1370  298.4750  174.9860 C.3   329  LEU329      0.0270
    128  CG       204.5750  297.4760  173.9710 C.3   329  LEU329      0.0019
    129  CD1      203.0480  297.3670  174.0820 C.3   329  LEU329      0.0001
    130  CD2      205.0010  297.8300  172.5520 C.3   329  LEU329      0.0001
@<TRIPOS>BOND
     1     1     2    1
     2     3     2    1
     3     3     4    2
     4     2     5    1
     5    10    11    1
     6    13    12    2
     7     5     6    1
     8    11    12    1
     9    11    14    1
    10    12    21   am
    11    28    26    1
    12    14    15    1
    13     6     7    1
    14    21    22    1
    15    22    23    1
    16    22    25    1
    17    26    25    1
    18    26    27    1
    19    33    34    1
    20    33    30    1
    21     7     8    1
    22    29    23   am
    23    29    30    1
    24    23    24    2
    25     9     8    1
    26    32    31    2
    27    15    16    1
    28    30    31    1
    29    17    16    1
    30    17    18    2
    31    20    18    1
    32    18    19    1
    33    40    39    1
    34    39    36    1
    35    35    36    1
    36    37    36    1
    37    37    38    2
    38   114   112   ar
    39   114   113   ar
    40   112   110   ar
    41   113   111   ar
    42    41    42    1
    43   110   109   ar
    44   103   102   ar
    45   103   101   ar
    46   130   128    1
    47    49    47   ar
    48   111   109   ar
    49    48    47   ar
    50   109   108    1
    51   102   100   ar
    52    47    46    1
    53   101    99   ar
    54   108   105    1
    55    45    46    1
    56    45    42    1
    57    42    43    1
    58    83    82    1
    59    43    44    2
    60   100    99   ar
    61    80    82   ar
    62    80    78   ar
    63   128   129    1
    64   128   127    1
    65    82    81   ar
    66    99    98    1
    67    78    77   ar
    68    81    79   ar
    69   105   104    1
    70   105   106    1
    71    77    79   ar
    72    77    76    1
    73   124   127    1
    74   124   123    1
    75   124   125    1
    76    76    73    1
    77    98    95    1
    78   121   120    1
    79   126   125    2
    80   106   107    2
    81    71    70    1
    82    70    67    1
    83   120   122    1
    84   120   119    1
    85    73    72    1
    86    73    74    1
    87    51    54    1
    88    51    50    1
    89    51    52    1
    90    95    96    1
    91    95    94    1
    92    53    52    2
    93    96    97    2
    94   116   115    1
    95   116   119    1
    96   116   117    1
    97    52    55   am
    98    93    92   ar
    99    93    91   ar
   100    58    57    2
   101    67    68    1
   102    67    66    1
   103    92    90   ar
   104    74    75    2
   105    74    84   am
   106   118   117    2
   107    91    89   ar
   108    57    66   am
   109    57    56    1
   110    68    69    2
   111    55    56    1
   112    84    85    1
   113    90    89   ar
   114    56    59    1
   115    89    88    1
   116    85    88    1
   117    85    86    1
   118    59    60    1
   119    86    87    2
   120    60    61   ar
   121    60    62   ar
   122    61    63   ar
   123    62    64   ar
   124    63    65   ar
   125    64    65   ar
