@<TRIPOS>MOLECULE
tmp/4k9gA00.pdb
 91 87 0 0 0
SMALL
GASTEIGER

@<TRIPOS>ATOM
      1  N         30.7890  -30.2910   26.8030 N.3     1  PRO1       -0.2102
      2  CA        30.3680  -31.0260   28.0040 C.3     1  PRO1        0.1504
      3  C         30.9160  -32.4370   28.0440 C.2     1  PRO1        0.2575
      4  O         31.3910  -32.9630   27.0330 O.2     1  PRO1       -0.2718
      5  CB        28.8510  -31.0840   27.8740 C.3     1  PRO1        0.0282
      6  CG        28.4940  -29.8700   27.0740 C.3     1  PRO1        0.0208
      7  CD        29.6500  -29.6470   26.1300 C.3     1  PRO1        0.0893
      8  N         30.8670  -33.0290   29.2310 N.am    2  MET2       -0.1980
      9  CA        31.3570  -34.3800   29.4390 C.3     2  MET2        0.1605
     10  C         30.2720  -35.1580   30.1800 C.2     2  MET2        0.2287
     11  O         29.7860  -34.7200   31.2120 O.2     2  MET2       -0.2864
     12  CB        32.6540  -34.3110   30.2610 C.3     2  MET2        0.0413
     13  CG        33.2620  -35.6620   30.5950 C.3     2  MET2        0.0598
     14  SD        34.7160  -35.5210   31.6750 S.3     2  MET2       -0.1393
     15  CE        35.5900  -34.2480   30.8210 C.3     2  MET2        0.0692
     16  N         24.8190  -26.9860   22.9630 N.3    32  LYS32      -0.1245
     17  CA        26.2160  -26.9490   22.5340 C.3    32  LYS32       0.1561
     18  C         26.3770  -27.7840   21.2670 C.2    32  LYS32       0.2260
     19  O         25.6900  -28.7880   21.1030 O.2    32  LYS32      -0.2867
     20  CB        27.1590  -27.4470   23.6370 C.3    32  LYS32       0.0271
     21  CG        27.0090  -26.7130   24.9690 C.3    32  LYS32       0.0035
     22  CD        28.3330  -26.1140   25.4440 C.3    32  LYS32       0.0206
     23  CE        28.1320  -25.2870   26.7140 C.3    32  LYS32       0.1093
     24  NZ        29.3710  -24.5580   27.1370 N.3    32  LYS32      -0.1314
     25  N         31.7220  -30.7090   20.6320 N.3    36  TYR36      -0.1241
     26  CA        32.2560  -30.4120   21.9620 C.3    36  TYR36       0.1605
     27  C         31.9300  -31.5010   22.9800 C.2    36  TYR36       0.2264
     28  O         32.4690  -31.5030   24.0970 O.2    36  TYR36      -0.2867
     29  CB        31.6870  -29.1050   22.5170 C.3    36  TYR36       0.0534
     30  CG        31.8740  -27.8680   21.6590 C.ar   36  TYR36      -0.0201
     31  CD1       32.9100  -27.7780   20.7120 C.ar   36  TYR36      -0.0009
     32  CD2       31.0340  -26.7840   21.8260 C.ar   36  TYR36      -0.0009
     33  CE1       33.0830  -26.6070   19.9380 C.ar   36  TYR36       0.0417
     34  CE2       31.1950  -25.6230   21.0730 C.ar   36  TYR36       0.0417
     35  CZ        32.2110  -25.5400   20.1360 C.ar   36  TYR36       0.1957
     36  OH        32.3360  -24.3620   19.4180 O.3    36  TYR36      -0.2866
     37  N         31.7310  -34.9500   24.9490 N.3    38  ALA38      -0.1245
     38  CA        32.4550  -36.1960   25.1850 C.3    38  ALA38       0.1562
     39  C         31.5990  -37.1170   26.0350 C.2    38  ALA38       0.2260
     40  O         30.9310  -36.6680   26.9650 O.2    38  ALA38      -0.2867
     41  CB        33.7820  -35.9090   25.8960 C.3    38  ALA38       0.0290
     42  N         29.1820  -32.8100   33.2510 N.3    62  HIS62      -0.1226
     43  CA        30.0230  -31.6280   33.5080 C.3    62  HIS62       0.1752
     44  C         29.8670  -30.6500   32.3520 C.2    62  HIS62       0.2597
     45  O         29.9530  -31.0410   31.1860 O.2    62  HIS62      -0.2718
     46  CB        31.5000  -32.0170   33.5690 C.3    62  HIS62       0.0759
     47  CG        31.8570  -32.9810   34.6530 C.ar   62  HIS62       0.0818
     48  ND1       31.5810  -34.3300   34.5880 N.ar   62  HIS62      -0.2268
     49  CD2       32.5680  -32.7980   35.7920 C.ar   62  HIS62       0.1154
     50  CE1       32.0570  -34.9300   35.6670 C.ar   62  HIS62       0.1986
     51  NE2       32.6550  -34.0210   36.4130 N.ar   62  HIS62      -0.2212
     52  N         29.6650  -29.3690   32.6570 N.am   63  SER63      -0.1938
     53  CA        29.5030  -28.3890   31.5870 C.3    63  SER63       0.2055
     54  C         29.9630  -27.0220   32.0610 C.2    63  SER63       0.2642
     55  O         29.8990  -26.7500   33.2450 O.2    63  SER63      -0.2714
     56  CB        28.0400  -28.3190   31.1430 C.3    63  SER63       0.2130
     57  OG        27.8840  -27.4000   30.0600 O.3    63  SER63      -0.2179
     58  N         30.4340  -26.1990   31.1240 N.am   64  ILE64      -0.1977
     59  CA        30.7380  -24.7930   31.4050 C.3    64  ILE64       0.1596
     60  C         29.4470  -24.0560   31.0910 C.2    64  ILE64       0.2287
     61  O         29.1160  -23.8260   29.9310 O.2    64  ILE64      -0.2864
     62  CB        31.9260  -24.2520   30.5500 C.3    64  ILE64       0.0276
     63  CG1       33.2170  -25.0000   30.8850 C.3    64  ILE64       0.0022
     64  CG2       32.1090  -22.7390   30.7560 C.3    64  ILE64       0.0022
     65  CD1       34.3290  -24.7670   29.8490 C.3    64  ILE64       0.0001
     66  N         31.0930  -26.0200   35.7270 N.3   101  MET101     -0.1245
     67  CA        32.5140  -25.7190   35.8590 C.3   101  MET101      0.1570
     68  C         32.9180  -24.3730   35.2990 C.2   101  MET101      0.2261
     69  O         32.3420  -23.9010   34.3180 O.2   101  MET101     -0.2867
     70  CB        33.3240  -26.8160   35.2000 C.3   101  MET101      0.0387
     71  CG        32.9810  -28.1340   35.8200 C.3   101  MET101      0.0595
     72  SD        34.2430  -29.3530   35.6370 S.3   101  MET101     -0.1393
     73  CE        35.6940  -28.6390   36.4220 C.3   101  MET101      0.0692
     74  N         38.8170  -26.1370   33.1330 N.3   106  VAL106     -0.1245
     75  CA        38.6500  -27.1680   32.1170 C.3   106  VAL106      0.1561
     76  C         39.7600  -27.0370   31.0920 C.2   106  VAL106      0.2260
     77  O         39.8420  -26.0360   30.3690 O.2   106  VAL106     -0.2867
     78  CB        37.2840  -27.0880   31.4120 C.3   106  VAL106      0.0252
     79  CG1       37.1480  -28.2310   30.4040 C.3   106  VAL106      0.0019
     80  CG2       36.1650  -27.1670   32.4330 C.3   106  VAL106      0.0019
     81  N         39.8540  -23.4010   28.7070 N.3   113  PHE113     -0.1241
     82  CA        38.8710  -22.5860   28.0100 C.3   113  PHE113      0.1605
     83  C         38.8360  -21.1270   28.4650 C.2   113  PHE113      0.2264
     84  O         38.2290  -20.2930   27.7850 O.2   113  PHE113     -0.2867
     85  CB        37.4910  -23.2370   28.0900 C.3   113  PHE113      0.0534
     86  CG        37.3420  -24.3960   27.1750 C.ar  113  PHE113     -0.0203
     87  CD1       37.3260  -25.6990   27.6680 C.ar  113  PHE113     -0.0042
     88  CD2       37.2370  -24.2050   25.8040 C.ar  113  PHE113     -0.0042
     89  CE1       37.1890  -26.8020   26.8080 C.ar  113  PHE113     -0.0003
     90  CE2       37.1170  -25.2890   24.9410 C.ar  113  PHE113     -0.0003
     91  CZ        37.0720  -26.5970   25.4430 C.ar  113  PHE113     -0.0000
@<TRIPOS>BOND
     1    36    35    1
     2    33    35   ar
     3    33    31   ar
     4    35    34   ar
     5    25    26    1
     6    31    30   ar
     7    34    32   ar
     8    19    18    2
     9    18    17    1
    10    30    32   ar
    11    30    29    1
    12    26    29    1
    13    26    27    1
    14    17    16    1
    15    17    20    1
    16    27    28    2
    17    20    21    1
    18    90    91   ar
    19    90    88   ar
    20    37    38    1
    21    21    22    1
    22    38    41    1
    23    38    39    1
    24    91    89   ar
    25    22    23    1
    26    88    86   ar
    27    39    40    2
    28     7     1    1
    29     7     6    1
    30    23    24    1
    31     1     2    1
    32    89    87   ar
    33     4     3    2
    34     6     5    1
    35    86    87   ar
    36    86    85    1
    37    84    83    2
    38     5     2    1
    39     2     3    1
    40    82    85    1
    41    82    83    1
    42    82    81    1
    43     3     8   am
    44     8     9    1
    45     9    10    1
    46     9    12    1
    47    65    63    1
    48    61    60    2
    49    57    56    1
    50    10    11    2
    51    12    13    1
    52    77    76    2
    53    79    78    1
    54    62    64    1
    55    62    63    1
    56    62    59    1
    57    13    14    1
    58    15    14    1
    59    60    59    1
    60    76    75    1
    61    58    59    1
    62    58    54   am
    63    56    53    1
    64    45    44    2
    65    78    75    1
    66    78    80    1
    67    53    54    1
    68    53    52    1
    69    54    55    2
    70    75    74    1
    71    44    52   am
    72    44    43    1
    73    42    43    1
    74    43    46    1
    75    46    47    1
    76    69    68    2
    77    48    47   ar
    78    48    50   ar
    79    47    49   ar
    80    70    71    1
    81    70    67    1
    82    68    67    1
    83    72    71    1
    84    72    73    1
    85    50    51   ar
    86    66    67    1
    87    49    51   ar
