@<TRIPOS>MOLECULE
tmp/4k9qA00.pdb
 141 138 0 0 0
SMALL
GASTEIGER

@<TRIPOS>ATOM
      1  N         19.8180   39.7850   54.7410 N.3   278  TYR278     -0.1241
      2  CA        19.4890   41.0230   55.4400 C.3   278  TYR278      0.1605
      3  C         20.6920   41.9760   55.4640 C.2   278  TYR278      0.2264
      4  O         20.7210   42.9450   54.7030 O.2   278  TYR278     -0.2867
      5  CB        18.9320   40.7290   56.8410 C.3   278  TYR278      0.0534
      6  CG        18.5200   41.9560   57.6240 C.ar  278  TYR278     -0.0201
      7  CD1       18.2450   43.1610   56.9790 C.ar  278  TYR278     -0.0009
      8  CD2       18.4080   41.9080   59.0030 C.ar  278  TYR278     -0.0009
      9  CE1       17.8750   44.2890   57.6990 C.ar  278  TYR278      0.0417
     10  CE2       18.0300   43.0250   59.7320 C.ar  278  TYR278      0.0417
     11  CZ        17.7680   44.2120   59.0730 C.ar  278  TYR278      0.1957
     12  OH        17.3940   45.3280   59.7980 O.3   278  TYR278     -0.2866
     13  N         11.7680   39.9940   69.1680 N.3   373  CYS373     -0.1221
     14  CA        12.7770   40.5580   70.0580 C.3   373  CYS373      0.1794
     15  C         14.0850   40.3390   69.3220 C.2   373  CYS373      0.2443
     16  O         14.7940   39.3570   69.5580 O.2   373  CYS373     -0.2733
     17  CB        12.7750   39.8210   71.3960 C.3   373  CYS373      0.0970
     18  SG        13.7740   40.6480   72.6470 S.3   373  CYS373     -0.0800
     19  N         14.3940   41.2390   68.3830 N.am  374  PRO374     -0.2718
     20  CA        15.4370   40.9520   67.3960 C.3   374  PRO374      0.1535
     21  C         16.8040   40.5660   67.9720 C.2   374  PRO374      0.2599
     22  O         17.4100   39.6130   67.4720 O.2   374  PRO374     -0.2715
     23  CB        15.5180   42.2580   66.5950 C.3   374  PRO374      0.0310
     24  CG        14.0970   42.7720   66.6230 C.3   374  PRO374      0.0237
     25  CD        13.6200   42.4480   68.0400 C.3   374  PRO374      0.0939
     26  N         17.2830   41.2580   68.9990 N.am  375  SER375     -0.1950
     27  CA        18.6470   40.9930   69.4600 C.3   375  SER375      0.1924
     28  C         18.8380   39.5950   70.0670 C.2   375  SER375      0.2314
     29  O         19.9650   39.1010   70.1080 O.2   375  SER375     -0.2863
     30  CB        19.1380   42.0710   70.4410 C.3   375  SER375      0.2116
     31  OG        18.4990   41.9500   71.6890 O.3   375  SER375     -0.2180
     32  N         10.0510   41.2890   58.6860 N.3   398  GLY398     -0.1210
     33  CA        10.8500   42.1510   59.5460 C.3   398  GLY398      0.1956
     34  C         10.1650   43.4340   60.0090 C.2   398  GLY398      0.2612
     35  O         10.7900   44.2580   60.6830 O.2   398  GLY398     -0.2717
     36  N          8.8920   43.6140   59.6550 N.am  399  GLY399     -0.1942
     37  CA         8.1400   44.7930   60.0570 C.3   399  GLY399      0.2014
     38  C          7.6200   44.7370   61.4860 C.2   399  GLY399      0.2638
     39  O          6.6620   44.0270   61.7910 O.2   399  GLY399     -0.2714
     40  N          8.2540   45.4970   62.3740 N.am  400  LEU400     -0.1977
     41  CA         7.8580   45.5030   63.7720 C.3   400  LEU400      0.1596
     42  C          6.4180   45.9800   63.9460 C.2   400  LEU400      0.2287
     43  O          5.9190   46.7980   63.1660 O.2   400  LEU400     -0.2864
     44  CB         8.8140   46.3780   64.5880 C.3   400  LEU400      0.0297
     45  CG        10.2820   45.9680   64.5430 C.3   400  LEU400      0.0022
     46  CD1       11.1110   46.9070   65.4340 C.3   400  LEU400      0.0001
     47  CD2       10.4260   44.5210   64.9970 C.3   400  LEU400      0.0001
     48  N         10.6960   42.4130   72.3500 N.3   428  GLY428     -0.1210
     49  CA        11.6160   43.4590   72.7570 C.3   428  GLY428      0.1956
     50  C         10.8360   44.6590   73.2760 C.2   428  GLY428      0.2612
     51  O          9.6630   44.8370   72.9270 O.2   428  GLY428     -0.2717
     52  N         11.4690   45.4920   74.1020 N.am  429  ASP429     -0.1959
     53  CA        10.7860   46.6800   74.6090 C.3   429  ASP429      0.1840
     54  C         10.4650   47.7180   73.5110 C.2   429  ASP429      0.2623
     55  O          9.4080   48.3520   73.5490 O.2   429  ASP429     -0.2715
     56  CB        11.4890   47.3070   75.8330 C.3   429  ASP429      0.1450
     57  CG        12.9580   47.6300   75.5970 C.2   429  ASP429      0.3671
     58  OD1       13.5510   47.1210   74.6390 O.co2 429  ASP429     -0.2456
     59  OD2       13.5410   48.3760   76.4170 O.co2 429  ASP429     -0.2456
     60  N         11.3660   47.8810   72.5440 N.am  430  GLY430     -0.1940
     61  CA        11.1010   48.7320   71.3910 C.3   430  GLY430      0.2014
     62  C          9.9830   48.1810   70.5160 C.2   430  GLY430      0.2639
     63  O          9.0340   48.8940   70.1690 O.2   430  GLY430     -0.2714
     64  N         10.1000   46.9020   70.1610 N.am  431  SER431     -0.1949
     65  CA         9.1050   46.2260   69.3300 C.3   431  SER431      0.1924
     66  C          7.7110   46.2980   69.9410 C.2   431  SER431      0.2314
     67  O          6.7340   46.4930   69.2330 O.2   431  SER431     -0.2863
     68  CB         9.4800   44.7540   69.1240 C.3   431  SER431      0.2116
     69  OG        10.6130   44.6210   68.2780 O.3   431  SER431     -0.2180
     70  N          5.1440   49.3240   68.9630 N.3   434  TYR434     -0.1241
     71  CA         4.5560   49.6500   67.6570 C.3   434  TYR434      0.1605
     72  C          3.0580   49.4000   67.6020 C.2   434  TYR434      0.2264
     73  O          2.3070   50.2260   67.0860 O.2   434  TYR434     -0.2867
     74  CB         5.2650   48.9120   66.5090 C.3   434  TYR434      0.0534
     75  CG         6.6720   49.4320   66.2660 C.ar  434  TYR434     -0.0201
     76  CD1        7.7360   49.0040   67.0540 C.ar  434  TYR434     -0.0009
     77  CD2        6.9320   50.3430   65.2450 C.ar  434  TYR434     -0.0009
     78  CE1        9.0140   49.4800   66.8370 C.ar  434  TYR434      0.0417
     79  CE2        8.2130   50.8230   65.0210 C.ar  434  TYR434      0.0417
     80  CZ         9.2470   50.3880   65.8250 C.ar  434  TYR434      0.1957
     81  OH        10.5280   50.8410   65.6400 O.3   434  TYR434     -0.2866
     82  N         11.5450   41.7260   77.0480 N.3   454  PHE454     -0.1241
     83  CA        12.9640   41.8320   77.3500 C.3   454  PHE454      0.1605
     84  C         13.3880   43.2930   77.3450 C.2   454  PHE454      0.2264
     85  O         13.5900   43.8940   76.2880 O.2   454  PHE454     -0.2867
     86  CB        13.7720   41.0070   76.3360 C.3   454  PHE454      0.0534
     87  CG        13.5720   39.5200   76.4840 C.ar  454  PHE454     -0.0203
     88  CD1       12.3650   38.9280   76.1460 C.ar  454  PHE454     -0.0042
     89  CD2       14.5940   38.7200   76.9630 C.ar  454  PHE454     -0.0042
     90  CE1       12.1760   37.5560   76.2960 C.ar  454  PHE454     -0.0003
     91  CE2       14.4230   37.3470   77.1040 C.ar  454  PHE454     -0.0003
     92  CZ        13.2100   36.7650   76.7730 C.ar  454  PHE454     -0.0000
     93  N         15.8400   46.0590   77.6290 N.3   456  ASN456     -0.1240
     94  CA        17.2090   46.5850   77.6490 C.3   456  ASN456      0.1653
     95  C         17.2770   48.1010   77.4410 C.2   456  ASN456      0.2266
     96  O         18.3630   48.6760   77.3370 O.2   456  ASN456     -0.2867
     97  CB        18.1320   45.8360   76.6600 C.3   456  ASN456      0.1155
     98  CG        17.6010   45.8500   75.2350 C.2   456  ASN456      0.2627
     99  OD1       16.6560   46.5640   74.9370 O.2   456  ASN456     -0.2716
    100  ND2       18.2090   45.0590   74.3540 N.am  456  ASN456     -0.0877
    101  N         16.6620   49.9400   74.9370 N.3   458  GLU458     -0.1231
    102  CA        17.3140   50.3410   73.6930 C.3   458  GLU458      0.1699
    103  C         16.7670   49.5660   72.5050 C.2   458  GLU458      0.2592
    104  O         16.1510   48.5250   72.6680 O.2   458  GLU458     -0.2718
    105  CB        18.8280   50.0990   73.7980 C.3   458  GLU458      0.0402
    106  CG        19.2040   48.6110   73.8840 C.3   458  GLU458      0.1161
    107  CD        20.6380   48.3530   74.3550 C.2   458  GLU458      0.3649
    108  OE1       21.4340   49.3130   74.4540 O.co2 458  GLU458     -0.2457
    109  OE2       20.9510   47.1710   74.6390 O.co2 458  GLU458     -0.2457
    110  N         16.9860   50.0830   71.3040 N.am  459  TYR459     -0.1962
    111  CA        16.7890   49.2960   70.1040 C.3   459  TYR459      0.1771
    112  C         18.0890   48.5080   69.8930 C.2   459  TYR459      0.2620
    113  O         18.9570   48.9020   69.1130 O.2   459  TYR459     -0.2715
    114  CB        16.5280   50.2190   68.9110 C.3   459  TYR459      0.0574
    115  CG        15.1670   50.9210   68.8510 C.ar  459  TYR459     -0.0198
    116  CD1       13.9640   50.2350   69.0700 C.ar  459  TYR459     -0.0009
    117  CD2       15.0910   52.2700   68.5090 C.ar  459  TYR459     -0.0009
    118  CE1       12.7330   50.8910   68.9690 C.ar  459  TYR459      0.0417
    119  CE2       13.8740   52.9230   68.4060 C.ar  459  TYR459      0.0417
    120  CZ        12.6960   52.2310   68.6340 C.ar  459  TYR459      0.1957
    121  OH        11.4920   52.9030   68.5240 O.3   459  TYR459     -0.2866
    122  N         18.2350   47.4130   70.6350 N.am  460  GLY460     -0.1940
    123  CA        19.5030   46.7040   70.7290 C.3   460  GLY460      0.2014
    124  C         20.0960   46.2800   69.4030 C.2   460  GLY460      0.2639
    125  O         21.2890   46.4920   69.1450 O.2   460  GLY460     -0.2714
    126  N         19.2780   45.6740   68.5580 N.am  461  ILE461     -0.1963
    127  CA        19.8150   45.1340   67.3230 C.3   461  ILE461      0.1727
    128  C         20.3070   46.2490   66.4040 C.2   461  ILE461      0.2616
    129  O         21.2060   46.0270   65.5960 O.2   461  ILE461     -0.2715
    130  CB        18.8310   44.2030   66.6050 C.3   461  ILE461      0.0290
    131  CG1       19.5870   43.3760   65.5510 C.3   461  ILE461      0.0022
    132  CG2       17.7160   44.9980   65.9750 C.3   461  ILE461      0.0023
    133  CD1       18.7900   42.2660   64.9220 C.3   461  ILE461      0.0001
    134  N         19.7450   47.4500   66.5290 N.am  462  LEU462     -0.1977
    135  CA        20.2650   48.5670   65.7270 C.3   462  LEU462      0.1596
    136  C         21.6720   48.9850   66.1660 C.2   462  LEU462      0.2287
    137  O         22.4580   49.4840   65.3570 O.2   462  LEU462     -0.2864
    138  CB        19.3230   49.7690   65.7460 C.3   462  LEU462      0.0297
    139  CG        17.9220   49.5390   65.1720 C.3   462  LEU462      0.0022
    140  CD1       17.1290   50.8350   65.1280 C.3   462  LEU462      0.0001
    141  CD2       17.9900   48.8860   63.7930 C.3   462  LEU462      0.0001
@<TRIPOS>BOND
     1     4     3    2
     2     1     2    1
     3     2     3    1
     4     2     5    1
     5     5     6    1
     6     7     6   ar
     7     7     9   ar
     8     6     8   ar
     9     9    11   ar
    10    32    33    1
    11     8    10   ar
    12    11    10   ar
    13    11    12    1
    14    33    34    1
    15    36    34   am
    16    36    37    1
    17    34    35    2
    18    37    38    1
    19    38    39    2
    20    38    40   am
    21    40    41    1
    22    43    42    2
    23    41    42    1
    24    41    44    1
    25   141   139    1
    26    45    44    1
    27    45    47    1
    28    45    46    1
    29   133   131    1
    30    79    77   ar
    31    79    80   ar
    32   140   139    1
    33   139   138    1
    34    77    75   ar
    35   137   136    2
    36   131   130    1
    37   129   128    2
    38    81    80    1
    39   135   138    1
    40   135   136    1
    41   135   134    1
    42    80    78   ar
    43   132   130    1
    44    75    74    1
    45    75    76   ar
    46   128   134   am
    47   128   127    1
    48    74    71    1
    49    23    24    1
    50    23    20    1
    51   130   127    1
    52    24    25    1
    53    78    76   ar
    54    73    72    2
    55   127   126    1
    56    20    21    1
    57    20    19    1
    58    22    21    2
    59    72    71    1
    60    71    70    1
    61    21    26   am
    62    25    19    1
    63    69    68    1
    64    19    15   am
    65   119   117   ar
    66   119   120   ar
    67   117   115   ar
    68   121   120    1
    69   126   124   am
    70   120   118   ar
    71   115   114    1
    72   115   116   ar
    73   114   111    1
    74   118   116   ar
    75    26    27    1
    76   113   112    2
    77    68    65    1
    78   125   124    2
    79    13    14    1
    80    67    66    2
    81    15    16    2
    82    15    14    1
    83    65    66    1
    84    65    64    1
    85   124   123    1
    86    27    28    1
    87    27    30    1
    88   112   111    1
    89   112   122   am
    90    14    17    1
    91    28    29    2
    92   111   110    1
    93    64    62   am
    94    63    62    2
    95    30    31    1
    96    62    61    1
    97   122   123    1
    98   110   103   am
    99    61    60    1
   100    17    18    1
   101    48    49    1
   102   103   104    2
   103   103   102    1
   104    60    54   am
   105    49    50    1
   106    51    50    2
   107    50    52   am
   108    54    55    2
   109    54    53    1
   110   102   105    1
   111   102   101    1
   112   105   106    1
   113   106   107    1
   114    52    53    1
   115   100    98   am
   116   107   108   ar
   117   107   109   ar
   118    53    56    1
   119    58    57   ar
   120    99    98    2
   121    98    97    1
   122    57    56    1
   123    57    59   ar
   124    88    90   ar
   125    88    87   ar
   126    85    84    2
   127    90    92   ar
   128    86    87    1
   129    86    83    1
   130    87    89   ar
   131    97    94    1
   132    92    91   ar
   133    89    91   ar
   134    82    83    1
   135    96    95    2
   136    84    83    1
   137    95    94    1
   138    93    94    1
