@<TRIPOS>MOLECULE
tmp/4k9tA02.pdb
 203 196 0 0 0
SMALL
GASTEIGER

@<TRIPOS>ATOM
      1  N         28.7240   14.3370  -22.9650 N.3    29  PHE29      -0.1241
      2  CA        27.3840   13.7730  -22.7870 C.3    29  PHE29       0.1605
      3  C         26.4780   14.0710  -23.9740 C.2    29  PHE29       0.2264
      4  O         25.6310   13.2520  -24.3450 O.2    29  PHE29      -0.2867
      5  CB        26.7020   14.3960  -21.5630 C.3    29  PHE29       0.0534
      6  CG        27.2270   13.9320  -20.2400 C.ar   29  PHE29      -0.0203
      7  CD1       28.5620   14.1100  -19.8840 C.ar   29  PHE29      -0.0042
      8  CD2       26.3630   13.3660  -19.3110 C.ar   29  PHE29      -0.0042
      9  CE1       29.0260   13.6970  -18.6340 C.ar   29  PHE29      -0.0003
     10  CE2       26.8250   12.9510  -18.0670 C.ar   29  PHE29      -0.0003
     11  CZ        28.1520   13.1180  -17.7270 C.ar   29  PHE29      -0.0000
     12  N         16.6220    9.4030   -7.8510 N.3    77  ARG77      -0.1231
     13  CA        17.7390    9.5980   -8.7600 C.3    77  ARG77       0.1694
     14  C         18.9070    8.7900   -8.2350 C.2    77  ARG77       0.2592
     15  O         18.8180    8.1810   -7.1680 O.2    77  ARG77      -0.2718
     16  CB        18.1230   11.0720   -8.8570 C.3    77  ARG77       0.0321
     17  CG        16.9300   12.0090   -9.0570 C.3    77  ARG77       0.0489
     18  CD        17.3030   13.3320   -9.7290 C.3    77  ARG77       0.2205
     19  NE        16.1200   14.1090  -10.1180 N.pl3  77  ARG77      -0.0865
     20  CZ        15.5050   14.9840   -9.3300 C.cat  77  ARG77       0.5346
     21  NH1       15.9600   15.2010   -8.1050 N.pl3  77  ARG77       0.1354
     22  NH2       14.4420   15.6500   -9.7660 N.pl3  77  ARG77       0.1354
     23  N         19.9900    8.7470   -8.9930 N.am   78  ARG78      -0.1966
     24  CA        21.1990    8.1100   -8.4970 C.3    78  ARG78       0.1714
     25  C         22.1570    9.1860   -7.9790 C.2    78  ARG78       0.2458
     26  O         22.3840   10.2210   -8.6520 O.2    78  ARG78      -0.2730
     27  CB        21.8500    7.2180   -9.5670 C.3    78  ARG78       0.0347
     28  CG        22.0790    7.9030  -10.8930 C.3    78  ARG78       0.0492
     29  CD        23.1760    7.2340  -11.7420 C.3    78  ARG78       0.2205
     30  NE        23.1340    7.7700  -13.1090 N.pl3  78  ARG78      -0.0865
     31  CZ        23.8550    7.3250  -14.1250 C.cat  78  ARG78       0.5346
     32  NH1       24.7250    6.3320  -13.9580 N.pl3  78  ARG78       0.1354
     33  NH2       23.7100    7.8910  -15.3160 N.pl3  78  ARG78       0.1354
     34  N         22.6980    8.9720   -6.7630 N.am   79  PRO79      -0.2716
     35  CA        23.6940    9.9070   -6.2210 C.3    79  PRO79       0.1536
     36  C         25.0190    9.6150   -6.8870 C.2    79  PRO79       0.2598
     37  O         25.1910    8.4930   -7.3770 O.2    79  PRO79      -0.2715
     38  CB        23.7460    9.5500   -4.7380 C.3    79  PRO79       0.0310
     39  CG        23.3130    8.1180   -4.6830 C.3    79  PRO79       0.0237
     40  CD        22.3270    7.9240   -5.8000 C.3    79  PRO79       0.0939
     41  N         25.9180   10.6100   -6.9270 N.am   80  PHE80      -0.1974
     42  CA        27.2840   10.4550   -7.4630 C.3    80  PHE80       0.1639
     43  C         28.3410   10.8770   -6.4560 C.2    80  PHE80       0.2290
     44  O         28.5880   12.0710   -6.2610 O.2    80  PHE80      -0.2864
     45  CB        27.4880   11.2620   -8.7470 C.3    80  PHE80       0.0560
     46  CG        27.2210   10.4860   -9.9910 C.ar   80  PHE80      -0.0200
     47  CD1       28.2110    9.6970  -10.5510 C.ar   80  PHE80      -0.0042
     48  CD2       25.9700   10.5280  -10.6000 C.ar   80  PHE80      -0.0042
     49  CE1       27.9610    8.9690  -11.7070 C.ar   80  PHE80      -0.0003
     50  CE2       25.7210    9.8030  -11.7600 C.ar   80  PHE80      -0.0003
     51  CZ        26.7160    9.0270  -12.3160 C.ar   80  PHE80      -0.0000
     52  N         27.9870   11.7670   -0.2620 N.3    83  VAL83      -0.1245
     53  CA        27.0870   12.8900   -0.1860 C.3    83  VAL83       0.1561
     54  C         26.8650   13.2750    1.2830 C.2    83  VAL83       0.2260
     55  O         26.3950   14.3660    1.5760 O.2    83  VAL83      -0.2867
     56  CB        25.8040   12.5410   -0.9770 C.3    83  VAL83       0.0252
     57  CG1       24.5990   13.3180   -0.5050 C.3    83  VAL83       0.0019
     58  CG2       26.0220   12.7590   -2.4720 C.3    83  VAL83       0.0019
     59  N         24.1100   15.5200    3.1130 N.3    86  MET86      -0.1245
     60  CA        23.3570   15.9450    1.9470 C.3    86  MET86       0.1570
     61  C         22.4970   14.8000    1.4030 C.2    86  MET86       0.2261
     62  O         21.7550   14.9650    0.4150 O.2    86  MET86      -0.2867
     63  CB        24.2860   16.5520    0.8750 C.3    86  MET86       0.0387
     64  CG        24.8120   17.9430    1.2160 C.3    86  MET86       0.0595
     65  SD        23.4970   19.1800    1.3530 S.3    86  MET86      -0.1393
     66  CE        23.1440   19.4000   -0.3970 C.3    86  MET86       0.0692
     67  N         16.6980   17.0810   -3.1610 N.3    91  SER91      -0.1202
     68  CA        17.1820   16.6020   -4.4690 C.3    91  SER91       0.2020
     69  C         17.8090   15.2040   -4.4550 C.2    91  SER91       0.2618
     70  O         17.9430   14.5660   -5.4970 O.2    91  SER91      -0.2717
     71  CB        18.2330   17.5880   -5.0080 C.3    91  SER91       0.2103
     72  OG        17.6670   18.8800   -5.1360 O.3    91  SER91      -0.2182
     73  N         18.2130   14.7520   -3.2740 N.am   92  ILE92      -0.1979
     74  CA        19.0310   13.5570   -3.1560 C.3    92  ILE92       0.1595
     75  C         18.3100   12.4790   -2.3540 C.2    92  ILE92       0.2287
     76  O         18.5430   11.3010   -2.5620 O.2    92  ILE92      -0.2864
     77  CB        20.4270   13.9090   -2.5800 C.3    92  ILE92       0.0276
     78  CG1       21.0970   14.9370   -3.5100 C.3    92  ILE92       0.0022
     79  CG2       21.3000   12.6600   -2.4410 C.3    92  ILE92       0.0022
     80  CD1       22.2570   15.7100   -2.9220 C.3    92  ILE92       0.0001
     81  N         30.8030   26.6400   -3.0210 N.3   182  LEU182     -0.1245
     82  CA        29.5650   26.0300   -3.4870 C.3   182  LEU182      0.1561
     83  C         29.3350   26.5330   -4.8970 C.2   182  LEU182      0.2260
     84  O         28.4110   27.3030   -5.1580 O.2   182  LEU182     -0.2867
     85  CB        28.3960   26.4230   -2.5840 C.3   182  LEU182      0.0270
     86  CG        27.4080   25.3080   -2.2330 C.3   182  LEU182      0.0019
     87  CD1       26.0000   25.8640   -2.0890 C.3   182  LEU182      0.0001
     88  CD2       27.4490   24.2040   -3.2780 C.3   182  LEU182      0.0001
     89  N         31.5050   24.3770   -8.0150 N.3   185  PHE185     -0.1241
     90  CA        31.3970   22.9420   -7.8280 C.3   185  PHE185      0.1605
     91  C         31.7530   22.3880   -9.1930 C.2   185  PHE185      0.2264
     92  O         31.0710   22.6690  -10.1880 O.2   185  PHE185     -0.2867
     93  CB        29.9610   22.5540   -7.4660 C.3   185  PHE185      0.0534
     94  CG        29.7980   21.1160   -7.0420 C.ar  185  PHE185     -0.0203
     95  CD1       29.6240   20.7960   -5.7040 C.ar  185  PHE185     -0.0042
     96  CD2       29.8080   20.0870   -7.9790 C.ar  185  PHE185     -0.0042
     97  CE1       29.4640   19.4800   -5.3040 C.ar  185  PHE185     -0.0003
     98  CE2       29.6520   18.7680   -7.5850 C.ar  185  PHE185     -0.0003
     99  CZ        29.4800   18.4630   -6.2450 C.ar  185  PHE185     -0.0000
    100  N         31.6960   20.0790  -11.7710 N.3   187  PHE187     -0.1241
    101  CA        30.9700   18.9380  -12.2940 C.3   187  PHE187      0.1605
    102  C         31.7950   18.1840  -13.3290 C.2   187  PHE187      0.2264
    103  O         31.3880   17.1160  -13.7720 O.2   187  PHE187     -0.2867
    104  CB        29.6310   19.3780  -12.8780 C.3   187  PHE187      0.0534
    105  CG        28.6480   19.8520  -11.8450 C.ar  187  PHE187     -0.0203
    106  CD1       28.5210   21.2080  -11.5540 C.ar  187  PHE187     -0.0042
    107  CD2       27.8500   18.9480  -11.1600 C.ar  187  PHE187     -0.0042
    108  CE1       27.6150   21.6450  -10.6040 C.ar  187  PHE187     -0.0003
    109  CE2       26.9450   19.3800  -10.2010 C.ar  187  PHE187     -0.0003
    110  CZ        26.8240   20.7290   -9.9270 C.ar  187  PHE187     -0.0000
    111  N         34.6310   12.3100  -10.6020 N.3   192  PHE192     -0.1241
    112  CA        33.3150   11.7250  -10.9170 C.3   192  PHE192      0.1605
    113  C         33.3910   10.6240  -11.9590 C.2   192  PHE192      0.2264
    114  O         32.5030    9.7590  -12.0250 O.2   192  PHE192     -0.2867
    115  CB        32.2850   12.7900  -11.3200 C.3   192  PHE192      0.0534
    116  CG        31.8730   13.6640  -10.1840 C.ar  192  PHE192     -0.0203
    117  CD1       32.3310   14.9750  -10.0970 C.ar  192  PHE192     -0.0042
    118  CD2       31.0780   13.1630   -9.1610 C.ar  192  PHE192     -0.0042
    119  CE1       31.9700   15.7810   -9.0180 C.ar  192  PHE192     -0.0003
    120  CE2       30.7100   13.9630   -8.0880 C.ar  192  PHE192     -0.0003
    121  CZ        31.1550   15.2730   -8.0190 C.ar  192  PHE192     -0.0000
    122  N         31.5000   15.3100   -1.2650 N.3   212  VAL212     -0.1231
    123  CA        31.6000   16.0890   -2.5180 C.3   212  VAL212      0.1692
    124  C         31.2190   17.5560   -2.3250 C.2   212  VAL212      0.2592
    125  O         31.5480   18.3910   -3.1610 O.2   212  VAL212     -0.2718
    126  CB        30.7630   15.5080   -3.6950 C.3   212  VAL212      0.0266
    127  CG1       31.2600   14.1280   -4.0920 C.3   212  VAL212      0.0020
    128  CG2       29.2660   15.4970   -3.3880 C.3   212  VAL212      0.0020
    129  N         30.5230   17.8530   -1.2270 N.am  213  PHE213     -0.1976
    130  CA        30.1670   19.2280   -0.8590 C.3   213  PHE213      0.1639
    131  C         31.2010   19.7760    0.0940 C.2   213  PHE213      0.2290
    132  O         31.4280   19.1940    1.1560 O.2   213  PHE213     -0.2864
    133  CB        28.7550   19.3140   -0.2640 C.3   213  PHE213      0.0560
    134  CG        27.6630   19.0190   -1.2630 C.ar  213  PHE213     -0.0200
    135  CD1       27.1550   17.7280   -1.4090 C.ar  213  PHE213     -0.0042
    136  CD2       27.1530   20.0250   -2.0750 C.ar  213  PHE213     -0.0042
    137  CE1       26.1560   17.4510   -2.3430 C.ar  213  PHE213     -0.0003
    138  CE2       26.1440   19.7570   -3.0000 C.ar  213  PHE213     -0.0003
    139  CZ        25.6450   18.4730   -3.1340 C.ar  213  PHE213     -0.0000
    140  N         21.4200   24.6130    1.0690 N.3   258  ILE258     -0.1231
    141  CA        22.5600   24.4630    0.1630 C.3   258  ILE258      0.1692
    142  C         22.0890   24.1510   -1.2490 C.2   258  ILE258      0.2591
    143  O         22.6370   24.6820   -2.2250 O.2   258  ILE258     -0.2718
    144  CB        23.5630   23.3920    0.6420 C.3   258  ILE258      0.0266
    145  CG1       24.3720   23.9200    1.8320 C.3   258  ILE258      0.0019
    146  CG2       24.4880   22.9560   -0.5010 C.3   258  ILE258      0.0020
    147  CD1       25.1830   22.8750    2.5620 C.3   258  ILE258      0.0001
    148  N         21.0890   23.2760   -1.3540 N.am  259  ILE259     -0.1980
    149  CA        20.4660   22.9710   -2.6340 C.3   259  ILE259      0.1595
    150  C         19.9780   24.2730   -3.2750 C.2   259  ILE259      0.2287
    151  O         20.2250   24.5240   -4.4620 O.2   259  ILE259     -0.2864
    152  CB        19.2920   21.9520   -2.4810 C.3   259  ILE259      0.0276
    153  CG1       19.8150   20.5240   -2.2650 C.3   259  ILE259      0.0022
    154  CG2       18.3500   21.9890   -3.6900 C.3   259  ILE259      0.0022
    155  CD1       20.7410   19.9840   -3.3530 C.3   259  ILE259      0.0001
    156  N         22.9180   26.7810   -4.2560 N.3   262  PHE262     -0.1241
    157  CA        23.4330   26.3730   -5.5300 C.3   262  PHE262      0.1605
    158  C         22.4380   26.6280   -6.6700 C.2   262  PHE262      0.2264
    159  O         22.7000   27.4500   -7.5360 O.2   262  PHE262     -0.2867
    160  CB        23.8640   24.9180   -5.5320 C.3   262  PHE262      0.0534
    161  CG        24.3870   24.4820   -6.8550 C.ar  262  PHE262     -0.0203
    162  CD1       25.6700   24.8570   -7.2600 C.ar  262  PHE262     -0.0042
    163  CD2       23.5800   23.7580   -7.7380 C.ar  262  PHE262     -0.0042
    164  CE1       26.1590   24.4700   -8.5060 C.ar  262  PHE262     -0.0003
    165  CE2       24.0730   23.3580   -8.9750 C.ar  262  PHE262     -0.0003
    166  CZ        25.3550   23.7270   -9.3650 C.ar  262  PHE262     -0.0000
    167  N         20.1100   20.9540  -17.5460 N.3   328  ALA328     -0.1245
    168  CA        20.1310   19.5980  -16.9680 C.3   328  ALA328      0.1562
    169  C         20.5670   18.4750  -17.9260 C.2   328  ALA328      0.2260
    170  O         21.0860   17.4390  -17.4730 O.2   328  ALA328     -0.2867
    171  CB        18.7950   19.2520  -16.3320 C.3   328  ALA328      0.0290
    172  N         20.1940   15.6860  -19.1610 N.3   330  ARG330     -0.1231
    173  CA        19.4880   14.4190  -19.0280 C.3   330  ARG330      0.1694
    174  C         18.4830   14.5490  -17.8940 C.2   330  ARG330      0.2592
    175  O         18.6720   15.3450  -16.9880 O.2   330  ARG330     -0.2718
    176  CB        20.4660   13.2990  -18.6760 C.3   330  ARG330      0.0321
    177  CG        21.3810   12.9140  -19.8010 C.3   330  ARG330      0.0489
    178  CD        22.5020   12.0310  -19.2910 C.3   330  ARG330      0.2205
    179  NE        23.2530   11.4520  -20.3910 N.pl3 330  ARG330     -0.0865
    180  CZ        24.1760   10.5080  -20.2620 C.cat 330  ARG330      0.5346
    181  NH1       24.4770   10.0360  -19.0620 N.pl3 330  ARG330      0.1354
    182  NH2       24.7950   10.0190  -21.3430 N.pl3 330  ARG330      0.1354
    183  N         17.4190   13.7620  -17.9520 N.am  331  LEU331     -0.1966
    184  CA        16.5820   13.4860  -16.7980 C.3   331  LEU331      0.1728
    185  C         16.8490   12.0170  -16.4660 C.2   331  LEU331      0.2616
    186  O         17.1320   11.2210  -17.3660 O.2   331  LEU331     -0.2715
    187  CB        15.1130   13.6570  -17.1630 C.3   331  LEU331      0.0311
    188  CG        14.2940   14.9630  -17.0400 C.3   331  LEU331      0.0022
    189  CD1       15.1240   16.2300  -16.9940 C.3   331  LEU331      0.0001
    190  CD2       13.2200   15.0470  -18.1390 C.3   331  LEU331      0.0001
    191  N         16.7590   11.6560  -15.1930 N.am  332  GLU332     -0.1977
    192  CA        16.9980   10.2950  -14.7610 C.3   332  GLU332      0.1602
    193  C         16.0620    9.8670  -13.6120 C.2   332  GLU332      0.2287
    194  O         15.7100   10.6870  -12.7590 O.2   332  GLU332     -0.2864
    195  CB        18.4640   10.1460  -14.3250 C.3   332  GLU332      0.0415
    196  CG        19.4640   10.1860  -15.4750 C.3   332  GLU332      0.1163
    197  CD        20.8780    9.8250  -15.0660 C.2   332  GLU332      0.3649
    198  OE1       21.1270    9.4900  -13.8660 O.co2 332  GLU332     -0.2457
    199  OE2       21.7530    9.8780  -15.9660 O.co2 332  GLU332     -0.2457
    200  N         28.3740   17.3380  -18.2370 N.3   439  GLY439     -0.1225
    201  CA        27.0130   16.9180  -17.8650 C.3   439  GLY439      0.1811
    202  C         26.0480   17.9910  -17.3900 C.2   439  GLY439      0.2280
    203  O         24.8280   17.8010  -17.4040 O.2   439  GLY439     -0.2866
@<TRIPOS>BOND
     1     4     3    2
     2     3     2    1
     3     1     2    1
     4     2     5    1
     5     5     6    1
     6   182   180    1
     7   179   180    2
     8   179   178    1
     9   180   181    1
    10     6     7   ar
    11     6     8   ar
    12     7     9   ar
    13   177   178    1
    14   177   176    1
    15     8    10   ar
    16   172   173    1
    17   173   176    1
    18   173   174    1
    19     9    11   ar
    20   200   201    1
    21   190   188    1
    22    10    11   ar
    23   183   174   am
    24   183   184    1
    25   169   170    2
    26   169   168    1
    27   174   175    2
    28   201   202    1
    29   167   168    1
    30   203   202    2
    31   186   185    2
    32   187   188    1
    33   187   184    1
    34   188   189    1
    35   168   171    1
    36   184   185    1
    37   185   191   am
    38   199   197   ar
    39   196   197    1
    40   196   195    1
    41    33    31    1
    42   191   192    1
    43   197   198   ar
    44   192   195    1
    45   192   193    1
    46    31    32    1
    47    31    30    2
    48   103   102    2
    49   193   194    2
    50   102   101    1
    51    30    29    1
    52   104   101    1
    53   104   105    1
    54    51    50   ar
    55    51    49   ar
    56   101   100    1
    57   114   113    2
    58   113   112    1
    59   105   106   ar
    60   105   107   ar
    61    50    48   ar
    62    29    28    1
    63    49    47   ar
    64   106   108   ar
    65   115   112    1
    66   115   116    1
    67   107   109   ar
    68   112   111    1
    69    28    27    1
    70   108   110   ar
    71    48    46   ar
    72    47    46   ar
    73   109   110   ar
    74    92    91    2
    75   116   117   ar
    76   116   118   ar
    77    19    18    1
    78    19    20    2
    79   117   119   ar
    80    46    45    1
    81    22    20    1
    82    18    17    1
    83    27    24    1
    84   166   165   ar
    85   166   164   ar
    86    20    21    1
    87    91    90    1
    88   118   120   ar
    89    17    16    1
    90   119   121   ar
    91    23    24    1
    92    23    14   am
    93   165   163   ar
    94    16    13    1
    95    13    14    1
    96    13    12    1
    97    45    42    1
    98    26    25    2
    99   164   162   ar
   100    24    25    1
   101    14    15    2
   102   120   121   ar
   103    89    90    1
   104    25    34   am
   105    96    98   ar
   106    96    94   ar
   107    90    93    1
   108   163   161   ar
   109    98    99   ar
   110   159   158    2
   111    93    94    1
   112    42    41    1
   113    42    43    1
   114    37    36    2
   115   162   161   ar
   116    94    95   ar
   117    41    36   am
   118    36    35    1
   119   161   160    1
   120    34    35    1
   121    34    40    1
   122   158   157    1
   123    43    44    2
   124    99    97   ar
   125    35    38    1
   126    40    39    1
   127    95    97   ar
   128   160   157    1
   129   157   156    1
   130    70    69    2
   131    84    83    2
   132    72    71    1
   133    71    68    1
   134    83    82    1
   135    38    39    1
   136    68    69    1
   137    68    67    1
   138   151   150    2
   139    69    73   am
   140   127   126    1
   141   126   128    1
   142   126   123    1
   143   154   152    1
   144    78    80    1
   145    78    77    1
   146    82    81    1
   147    82    85    1
   148   155   153    1
   149    88    86    1
   150   150   149    1
   151    73    74    1
   152   125   124    2
   153    74    77    1
   154    74    75    1
   155   139   138   ar
   156   139   137   ar
   157   138   136   ar
   158   149   152    1
   159   149   148    1
   160    85    86    1
   161    77    79    1
   162    76    75    2
   163   123   124    1
   164   123   122    1
   165   152   153    1
   166    58    56    1
   167   137   135   ar
   168   124   129   am
   169    86    87    1
   170   143   142    2
   171   136   134   ar
   172   135   134   ar
   173   148   142   am
   174   134   133    1
   175   142   141    1
   176   129   130    1
   177    56    57    1
   178    56    53    1
   179   130   133    1
   180   130   131    1
   181   146   144    1
   182    66    65    1
   183    52    53    1
   184    53    54    1
   185   131   132    2
   186   141   144    1
   187   141   140    1
   188    62    61    2
   189   144   145    1
   190    63    64    1
   191    63    60    1
   192    64    65    1
   193    54    55    2
   194    61    60    1
   195   145   147    1
   196    60    59    1
