@<TRIPOS>MOLECULE
tmp/4k9tA01.pdb
 233 222 0 0 0
SMALL
GASTEIGER

@<TRIPOS>ATOM
      1  N         32.0280    4.2870  -20.4480 N.3    22  ILE22      -0.1245
      2  CA        32.4880    5.6120  -20.0250 C.3    22  ILE22       0.1561
      3  C         33.4650    6.2970  -20.9550 C.2    22  ILE22       0.2260
      4  O         33.4580    7.5100  -21.0490 O.2    22  ILE22      -0.2867
      5  CB        32.9740    5.7010  -18.5510 C.3    22  ILE22       0.0252
      6  CG1       33.9100    4.5570  -18.1650 C.3    22  ILE22       0.0019
      7  CG2       31.7910    5.8650  -17.6010 C.3    22  ILE22       0.0019
      8  CD1       35.3680    4.9330  -18.2890 C.3    22  ILE22       0.0001
      9  N         32.2020    9.1250  -23.0070 N.3    25  TYR25      -0.1241
     10  CA        31.9510   10.4390  -22.4260 C.3    25  TYR25       0.1605
     11  C         33.0640   11.4300  -22.7540 C.2    25  TYR25       0.2264
     12  O         33.0260   12.5850  -22.3060 O.2    25  TYR25      -0.2867
     13  CB        31.7730   10.3430  -20.9110 C.3    25  TYR25       0.0534
     14  CG        30.4160    9.8410  -20.4710 C.ar   25  TYR25      -0.0201
     15  CD1       30.2990    8.6610  -19.7500 C.ar   25  TYR25      -0.0009
     16  CD2       29.2540   10.5640  -20.7440 C.ar   25  TYR25      -0.0009
     17  CE1       29.0660    8.1890  -19.3290 C.ar   25  TYR25       0.0417
     18  CE2       28.0080   10.0980  -20.3270 C.ar   25  TYR25       0.0417
     19  CZ        27.9220    8.9030  -19.6210 C.ar   25  TYR25       0.1957
     20  OH        26.6980    8.4190  -19.1870 O.3    25  TYR25      -0.2866
     21  N         28.7240   14.3370  -22.9650 N.3    29  PHE29      -0.1241
     22  CA        27.3840   13.7730  -22.7870 C.3    29  PHE29       0.1605
     23  C         26.4780   14.0710  -23.9740 C.2    29  PHE29       0.2264
     24  O         25.6310   13.2520  -24.3450 O.2    29  PHE29      -0.2867
     25  CB        26.7020   14.3960  -21.5630 C.3    29  PHE29       0.0534
     26  CG        27.2270   13.9320  -20.2400 C.ar   29  PHE29      -0.0203
     27  CD1       28.5620   14.1100  -19.8840 C.ar   29  PHE29      -0.0042
     28  CD2       26.3630   13.3660  -19.3110 C.ar   29  PHE29      -0.0042
     29  CE1       29.0260   13.6970  -18.6340 C.ar   29  PHE29      -0.0003
     30  CE2       26.8250   12.9510  -18.0670 C.ar   29  PHE29      -0.0003
     31  CZ        28.1520   13.1180  -17.7270 C.ar   29  PHE29      -0.0000
     32  N         27.3050    2.7560  -17.3150 N.3    48  ASP48      -0.1239
     33  CA        28.1370    3.7180  -16.6150 C.3    48  ASP48       0.1674
     34  C         28.9230    2.8710  -15.6310 C.2    48  ASP48       0.2266
     35  O         28.5230    2.7350  -14.4750 O.2    48  ASP48      -0.2867
     36  CB        27.2730    4.7660  -15.8730 C.3    48  ASP48       0.1410
     37  CG        26.7740    5.9030  -16.7920 C.2    48  ASP48       0.3668
     38  OD1       27.4270    6.2160  -17.8150 O.co2  48  ASP48      -0.2456
     39  OD2       25.7370    6.5250  -16.4840 O.co2  48  ASP48      -0.2456
     40  N         19.9900    8.7470   -8.9930 N.3    78  ARG78      -0.1245
     41  CA        21.1990    8.1100   -8.4970 C.3    78  ARG78       0.1563
     42  C         22.1570    9.1860   -7.9790 C.2    78  ARG78       0.2260
     43  O         22.3840   10.2210   -8.6520 O.2    78  ARG78      -0.2867
     44  CB        21.8500    7.2180   -9.5670 C.3    78  ARG78       0.0307
     45  CG        22.0790    7.9030  -10.8930 C.3    78  ARG78       0.0489
     46  CD        23.1760    7.2340  -11.7420 C.3    78  ARG78       0.2205
     47  NE        23.1340    7.7700  -13.1090 N.pl3  78  ARG78      -0.0865
     48  CZ        23.8550    7.3250  -14.1250 C.cat  78  ARG78       0.5346
     49  NH1       24.7250    6.3320  -13.9580 N.pl3  78  ARG78       0.1354
     50  NH2       23.7100    7.8910  -15.3160 N.pl3  78  ARG78       0.1354
     51  N         25.9180   10.6100   -6.9270 N.3    80  PHE80      -0.1241
     52  CA        27.2840   10.4550   -7.4630 C.3    80  PHE80       0.1605
     53  C         28.3410   10.8770   -6.4560 C.2    80  PHE80       0.2264
     54  O         28.5880   12.0710   -6.2610 O.2    80  PHE80      -0.2867
     55  CB        27.4880   11.2620   -8.7470 C.3    80  PHE80       0.0534
     56  CG        27.2210   10.4860   -9.9910 C.ar   80  PHE80      -0.0203
     57  CD1       28.2110    9.6970  -10.5510 C.ar   80  PHE80      -0.0042
     58  CD2       25.9700   10.5280  -10.6000 C.ar   80  PHE80      -0.0042
     59  CE1       27.9610    8.9690  -11.7070 C.ar   80  PHE80      -0.0003
     60  CE2       25.7210    9.8030  -11.7600 C.ar   80  PHE80      -0.0003
     61  CZ        26.7160    9.0270  -12.3160 C.ar   80  PHE80      -0.0000
     62  N         16.6980   17.0810   -3.1610 N.3    91  SER91      -0.1217
     63  CA        17.1820   16.6020   -4.4690 C.3    91  SER91       0.1889
     64  C         17.8090   15.2040   -4.4550 C.2    91  SER91       0.2288
     65  O         17.9430   14.5660   -5.4970 O.2    91  SER91      -0.2866
     66  CB        18.2330   17.5880   -5.0080 C.3    91  SER91       0.2089
     67  OG        17.6670   18.8800   -5.1360 O.3    91  SER91      -0.2183
     68  N         31.5050   24.3770   -8.0150 N.3   185  PHE185     -0.1241
     69  CA        31.3970   22.9420   -7.8280 C.3   185  PHE185      0.1605
     70  C         31.7530   22.3880   -9.1930 C.2   185  PHE185      0.2264
     71  O         31.0710   22.6690  -10.1880 O.2   185  PHE185     -0.2867
     72  CB        29.9610   22.5540   -7.4660 C.3   185  PHE185      0.0534
     73  CG        29.7980   21.1160   -7.0420 C.ar  185  PHE185     -0.0203
     74  CD1       29.6240   20.7960   -5.7040 C.ar  185  PHE185     -0.0042
     75  CD2       29.8080   20.0870   -7.9790 C.ar  185  PHE185     -0.0042
     76  CE1       29.4640   19.4800   -5.3040 C.ar  185  PHE185     -0.0003
     77  CE2       29.6520   18.7680   -7.5850 C.ar  185  PHE185     -0.0003
     78  CZ        29.4800   18.4630   -6.2450 C.ar  185  PHE185     -0.0000
     79  N         31.6960   20.0790  -11.7710 N.3   187  PHE187     -0.1227
     80  CA        30.9700   18.9380  -12.2940 C.3   187  PHE187      0.1736
     81  C         31.7950   18.1840  -13.3290 C.2   187  PHE187      0.2595
     82  O         31.3880   17.1160  -13.7720 O.2   187  PHE187     -0.2718
     83  CB        29.6310   19.3780  -12.8780 C.3   187  PHE187      0.0547
     84  CG        28.6480   19.8520  -11.8450 C.ar  187  PHE187     -0.0202
     85  CD1       28.5210   21.2080  -11.5540 C.ar  187  PHE187     -0.0042
     86  CD2       27.8500   18.9480  -11.1600 C.ar  187  PHE187     -0.0042
     87  CE1       27.6150   21.6450  -10.6040 C.ar  187  PHE187     -0.0003
     88  CE2       26.9450   19.3800  -10.2010 C.ar  187  PHE187     -0.0003
     89  CZ        26.8240   20.7290   -9.9270 C.ar  187  PHE187     -0.0000
     90  N         32.9620   18.7390  -13.6720 N.am  188  LEU188     -0.1966
     91  CA        33.8460   18.2120  -14.7160 C.3   188  LEU188      0.1728
     92  C         35.0950   17.4680  -14.2070 C.2   188  LEU188      0.2616
     93  O         35.8260   16.8760  -15.0050 O.2   188  LEU188     -0.2715
     94  CB        34.2790   19.3520  -15.6590 C.3   188  LEU188      0.0311
     95  CG        33.6020   19.5650  -17.0220 C.3   188  LEU188      0.0022
     96  CD1       32.0980   19.3070  -17.0070 C.3   188  LEU188      0.0001
     97  CD2       33.9130   20.9670  -17.5300 C.3   188  LEU188      0.0001
     98  N         35.3550   17.4890  -12.9020 N.am  189  ASP189     -0.1958
     99  CA        36.6110   16.9270  -12.4280 C.3   189  ASP189      0.1825
    100  C         36.6160   15.3940  -12.4720 C.2   189  ASP189      0.2464
    101  O         35.6140   14.7720  -12.1680 O.2   189  ASP189     -0.2730
    102  CB        37.0240   17.5060  -11.0630 C.3   189  ASP189      0.1450
    103  CG        36.7270   16.5840   -9.9180 C.2   189  ASP189      0.3671
    104  OD1       37.6860   16.1190   -9.2700 O.co2 189  ASP189     -0.2456
    105  OD2       35.5340   16.3290   -9.6750 O.co2 189  ASP189     -0.2456
    106  N         37.7560   14.7930  -12.8650 N.am  190  PRO190     -0.2727
    107  CA        37.8950   13.3390  -13.0710 C.3   190  PRO190      0.1402
    108  C         37.4560   12.4780  -11.8820 C.2   190  PRO190      0.2269
    109  O         37.1990   11.2880  -12.0490 O.2   190  PRO190     -0.2865
    110  CB        39.3970   13.1530  -13.3060 C.3   190  PRO190      0.0296
    111  CG        39.8840   14.4880  -13.7580 C.3   190  PRO190      0.0237
    112  CD        39.0420   15.4960  -13.0340 C.3   190  PRO190      0.0939
    113  N         34.6310   12.3100  -10.6020 N.3   192  PHE192     -0.1227
    114  CA        33.3150   11.7250  -10.9170 C.3   192  PHE192      0.1736
    115  C         33.3910   10.6240  -11.9590 C.2   192  PHE192      0.2595
    116  O         32.5030    9.7590  -12.0250 O.2   192  PHE192     -0.2718
    117  CB        32.2850   12.7900  -11.3200 C.3   192  PHE192      0.0547
    118  CG        31.8730   13.6640  -10.1840 C.ar  192  PHE192     -0.0202
    119  CD1       32.3310   14.9750  -10.0970 C.ar  192  PHE192     -0.0042
    120  CD2       31.0780   13.1630   -9.1610 C.ar  192  PHE192     -0.0042
    121  CE1       31.9700   15.7810   -9.0180 C.ar  192  PHE192     -0.0003
    122  CE2       30.7100   13.9630   -8.0880 C.ar  192  PHE192     -0.0003
    123  CZ        31.1550   15.2730   -8.0190 C.ar  192  PHE192     -0.0000
    124  N         34.4490   10.6750  -12.7660 N.am  193  LEU193     -0.1980
    125  CA        34.7750    9.5970  -13.6820 C.3   193  LEU193      0.1596
    126  C         35.2540    8.3860  -12.8810 C.2   193  LEU193      0.2287
    127  O         34.7290    7.2830  -13.0510 O.2   193  LEU193     -0.2864
    128  CB        35.8490   10.0230  -14.6970 C.3   193  LEU193      0.0297
    129  CG        35.7580    9.5550  -16.1690 C.3   193  LEU193      0.0022
    130  CD1       37.1460    9.4830  -16.8040 C.3   193  LEU193      0.0001
    131  CD2       35.0010    8.2460  -16.3620 C.3   193  LEU193      0.0001
    132  N         32.5990    6.4890  -10.6960 N.3   196  THR196     -0.1218
    133  CA        31.6380    5.6960  -11.5080 C.3   196  THR196      0.1862
    134  C         32.2140    4.3160  -11.8700 C.2   196  THR196      0.2287
    135  O         31.5040    3.3080  -11.8860 O.2   196  THR196     -0.2866
    136  CB        31.2770    6.4670  -12.7900 C.3   196  THR196      0.1770
    137  OG1       30.5950    7.6830  -12.4410 O.3   196  THR196     -0.2211
    138  CG2       30.4040    5.6400  -13.7180 C.3   196  THR196      0.0375
    139  N         21.0890   23.2760   -1.3540 N.3   259  ILE259     -0.1245
    140  CA        20.4660   22.9710   -2.6340 C.3   259  ILE259      0.1561
    141  C         19.9780   24.2730   -3.2750 C.2   259  ILE259      0.2260
    142  O         20.2250   24.5240   -4.4620 O.2   259  ILE259     -0.2867
    143  CB        19.2920   21.9520   -2.4810 C.3   259  ILE259      0.0252
    144  CG1       19.8150   20.5240   -2.2650 C.3   259  ILE259      0.0019
    145  CG2       18.3500   21.9890   -3.6900 C.3   259  ILE259      0.0019
    146  CD1       20.7410   19.9840   -3.3530 C.3   259  ILE259      0.0001
    147  N         22.9180   26.7810   -4.2560 N.3   262  PHE262     -0.1227
    148  CA        23.4330   26.3730   -5.5300 C.3   262  PHE262      0.1736
    149  C         22.4380   26.6280   -6.6700 C.2   262  PHE262      0.2595
    150  O         22.7000   27.4500   -7.5360 O.2   262  PHE262     -0.2718
    151  CB        23.8640   24.9180   -5.5320 C.3   262  PHE262      0.0547
    152  CG        24.3870   24.4820   -6.8550 C.ar  262  PHE262     -0.0202
    153  CD1       25.6700   24.8570   -7.2600 C.ar  262  PHE262     -0.0042
    154  CD2       23.5800   23.7580   -7.7380 C.ar  262  PHE262     -0.0042
    155  CE1       26.1590   24.4700   -8.5060 C.ar  262  PHE262     -0.0003
    156  CE2       24.0730   23.3580   -8.9750 C.ar  262  PHE262     -0.0003
    157  CZ        25.3550   23.7270   -9.3650 C.ar  262  PHE262     -0.0000
    158  N         21.3030   25.9250   -6.6570 N.am  263  ALA263     -0.1980
    159  CA        20.3470   25.9790   -7.7600 C.3   263  ALA263      0.1597
    160  C         20.0030   27.4040   -8.1280 C.2   263  ALA263      0.2287
    161  O         19.9420   27.7350   -9.2980 O.2   263  ALA263     -0.2864
    162  CB        19.0930   25.1900   -7.4400 C.3   263  ALA263      0.0319
    163  N         23.5140   29.0810   -9.9770 N.3   266  GLU266     -0.1231
    164  CA        24.0740   28.5750  -11.2410 C.3   266  GLU266      0.1699
    165  C         23.0610   28.5490  -12.3850 C.2   266  GLU266      0.2592
    166  O         23.3770   28.9630  -13.5060 O.2   266  GLU266     -0.2718
    167  CB        24.6830   27.1830  -11.0580 C.3   266  GLU266      0.0402
    168  CG        24.9160   26.3910  -12.3550 C.3   266  GLU266      0.1161
    169  CD        25.9310   27.0250  -13.3100 C.2   266  GLU266      0.3649
    170  OE1       25.8360   26.7640  -14.5370 O.co2 266  GLU266     -0.2457
    171  OE2       26.8180   27.7860  -12.8470 O.co2 266  GLU266     -0.2457
    172  N         21.8590   28.0510  -12.1010 N.am  267  THR267     -0.1953
    173  CA        20.8290   27.9400  -13.1050 C.3   267  THR267      0.1897
    174  C         20.5140   29.3130  -13.7240 C.2   267  THR267      0.2313
    175  O         20.7190   29.5160  -14.9330 O.2   267  THR267     -0.2863
    176  CB        19.5580   27.2620  -12.5540 C.3   267  THR267      0.1794
    177  OG1       18.9430   28.0950  -11.5670 O.3   267  THR267     -0.2208
    178  CG2       19.8820   25.9210  -11.9380 C.3   267  THR267      0.0378
    179  N         19.8940   23.2020  -19.2700 N.3   327  ILE327     -0.1231
    180  CA        21.0910   23.0180  -18.4490 C.3   327  ILE327      0.1692
    181  C         21.2270   21.6490  -17.7690 C.2   327  ILE327      0.2591
    182  O         22.3460   21.2250  -17.4910 O.2   327  ILE327     -0.2718
    183  CB        21.3270   24.1750  -17.4370 C.3   327  ILE327      0.0266
    184  CG1       20.0960   24.4070  -16.5680 C.3   327  ILE327      0.0019
    185  CG2       21.7300   25.4640  -18.1650 C.3   327  ILE327      0.0020
    186  CD1       20.3870   25.2430  -15.3410 C.3   327  ILE327      0.0001
    187  N         20.1100   20.9540  -17.5460 N.am  328  ALA328     -0.1980
    188  CA        20.1310   19.5980  -16.9680 C.3   328  ALA328      0.1597
    189  C         20.5670   18.4750  -17.9260 C.2   328  ALA328      0.2287
    190  O         21.0860   17.4390  -17.4730 O.2   328  ALA328     -0.2864
    191  CB        18.7950   19.2520  -16.3320 C.3   328  ALA328      0.0319
    192  N         20.1940   15.6860  -19.1610 N.3   330  ARG330     -0.1245
    193  CA        19.4880   14.4190  -19.0280 C.3   330  ARG330      0.1563
    194  C         18.4830   14.5490  -17.8940 C.2   330  ARG330      0.2260
    195  O         18.6720   15.3450  -16.9880 O.2   330  ARG330     -0.2867
    196  CB        20.4660   13.2990  -18.6760 C.3   330  ARG330      0.0307
    197  CG        21.3810   12.9140  -19.8010 C.3   330  ARG330      0.0489
    198  CD        22.5020   12.0310  -19.2910 C.3   330  ARG330      0.2205
    199  NE        23.2530   11.4520  -20.3910 N.pl3 330  ARG330     -0.0865
    200  CZ        24.1760   10.5080  -20.2620 C.cat 330  ARG330      0.5346
    201  NH1       24.4770   10.0360  -19.0620 N.pl3 330  ARG330      0.1354
    202  NH2       24.7950   10.0190  -21.3430 N.pl3 330  ARG330      0.1354
    203  N         16.7590   11.6560  -15.1930 N.3   332  GLU332     -0.1245
    204  CA        16.9980   10.2950  -14.7610 C.3   332  GLU332      0.1567
    205  C         16.0620    9.8670  -13.6120 C.2   332  GLU332      0.2260
    206  O         15.7100   10.6870  -12.7590 O.2   332  GLU332     -0.2867
    207  CB        18.4640   10.1460  -14.3250 C.3   332  GLU332      0.0388
    208  CG        19.4640   10.1860  -15.4750 C.3   332  GLU332      0.1160
    209  CD        20.8780    9.8250  -15.0660 C.2   332  GLU332      0.3649
    210  OE1       21.1270    9.4900  -13.8660 O.co2 332  GLU332     -0.2457
    211  OE2       21.7530    9.8780  -15.9660 O.co2 332  GLU332     -0.2457
    212  N         11.3440   20.2510  -11.4020 N.3   400  CYS400     -0.1235
    213  CA        12.0060   21.3890  -10.7900 C.3   400  CYS400      0.1677
    214  C         11.0210   22.1100   -9.9030 C.2   400  CYS400      0.2270
    215  O         10.0340   22.6470  -10.3850 O.2   400  CYS400     -0.2867
    216  CB        12.5130   22.3710  -11.8470 C.3   400  CYS400      0.0956
    217  SG        13.3750   23.7880  -11.1090 S.3   400  CYS400     -0.0801
    218  N         30.9570   18.4700  -20.5210 N.3   438  GLY438     -0.1210
    219  CA        30.2590   17.4180  -19.7750 C.3   438  GLY438      0.1956
    220  C         28.7550   17.5130  -19.5010 C.2   438  GLY438      0.2612
    221  O         27.9560   17.7420  -20.4070 O.2   438  GLY438     -0.2717
    222  N         28.3740   17.3380  -18.2370 N.am  439  GLY439     -0.1942
    223  CA        27.0130   16.9180  -17.8650 C.3   439  GLY439      0.2014
    224  C         26.0480   17.9910  -17.3900 C.2   439  GLY439      0.2638
    225  O         24.8280   17.8010  -17.4040 O.2   439  GLY439     -0.2714
    226  N         26.5920   19.1280  -16.9700 N.am  440  LEU440     -0.1977
    227  CA        25.7920   20.3140  -16.6850 C.3   440  LEU440      0.1596
    228  C         26.2060   21.4130  -17.6830 C.2   440  LEU440      0.2287
    229  O         27.3620   21.8650  -17.6960 O.2   440  LEU440     -0.2864
    230  CB        26.0020   20.7400  -15.2360 C.3   440  LEU440      0.0297
    231  CG        25.1750   21.8080  -14.4980 C.3   440  LEU440      0.0022
    232  CD1       25.9520   23.1090  -14.3530 C.3   440  LEU440      0.0001
    233  CD2       23.8110   22.0420  -15.1250 C.3   440  LEU440      0.0001
@<TRIPOS>BOND
     1    24    23    2
     2    23    22    1
     3     9    10    1
     4    21    22    1
     5    22    25    1
     6    11    10    1
     7    11    12    2
     8    10    13    1
     9    25    26    1
    10   202   200    1
    11     4     3    2
    12     3     2    1
    13    13    14    1
    14    16    14   ar
    15    16    18   ar
    16   218   219    1
    17    14    15   ar
    18     1     2    1
    19   221   220    2
    20   199   200    2
    21   199   198    1
    22    18    19   ar
    23   200   201    1
    24    26    27   ar
    25    26    28   ar
    26     2     5    1
    27    27    29   ar
    28   197   198    1
    29   197   196    1
    30   219   220    1
    31    15    17   ar
    32    19    17   ar
    33    19    20    1
    34   220   222   am
    35    28    30   ar
    36   179   180    1
    37   192   193    1
    38   193   196    1
    39   193   194    1
    40    29    31   ar
    41     5     6    1
    42     5     7    1
    43   180   181    1
    44   180   183    1
    45     8     6    1
    46   222   223    1
    47   185   183    1
    48    30    31   ar
    49   189   190    2
    50   189   188    1
    51   194   195    2
    52   223   224    1
    53    38    37   ar
    54   181   187   am
    55   181   182    2
    56   229   228    2
    57   228   227    1
    58   187   188    1
    59    97    95    1
    60   183   184    1
    61   225   224    2
    62   224   226   am
    63    32    33    1
    64    95    96    1
    65    95    94    1
    66   226   227    1
    67   188   191    1
    68   130   129    1
    69    37    39   ar
    70    37    36    1
    71   227   230    1
    72    33    36    1
    73    33    34    1
    74   184   186    1
    75   131   129    1
    76   129   128    1
    77   211   209   ar
    78    94    91    1
    79    34    35    2
    80   208   209    1
    81   208   207    1
    82    50    48    1
    83   230   231    1
    84   203   204    1
    85   233   231    1
    86   209   210   ar
    87    93    92    2
    88   175   174    2
    89   204   207    1
    90   204   205    1
    91    91    92    1
    92    91    90    1
    93   128   125    1
    94   170   169   ar
    95   231   232    1
    96    92    98   am
    97    48    49    1
    98    48    47    2
    99    82    81    2
   100   111   110    1
   101   111   112    1
   102   174   173    1
   103   138   136    1
   104   125   126    1
   105   125   124    1
   106    90    81   am
   107   205   206    2
   108   166   165    2
   109    81    80    1
   110   169   171   ar
   111   169   168    1
   112   110   107    1
   113    47    46    1
   114   173   176    1
   115   173   172    1
   116   107   106    1
   117   107   108    1
   118   127   126    2
   119   112   106    1
   120    98    99    1
   121    83    80    1
   122    83    84    1
   123   106   100   am
   124   136   137    1
   125   136   133    1
   126   124   115   am
   127   176   178    1
   128   176   177    1
   129   100    99    1
   130   100   101    2
   131    99   102    1
   132   165   172   am
   133   165   164    1
   134   168   167    1
   135    61    60   ar
   136    61    59   ar
   137    80    79    1
   138   109   108    2
   139   116   115    2
   140   115   114    1
   141   135   134    2
   142   134   133    1
   143   216   217    1
   144   216   213    1
   145    84    85   ar
   146    84    86   ar
   147    60    58   ar
   148    46    45    1
   149    59    57   ar
   150    85    87   ar
   151   133   132    1
   152   212   213    1
   153   117   114    1
   154   117   118    1
   155   164   167    1
   156   164   163    1
   157    86    88   ar
   158   102   103    1
   159   114   113    1
   160    45    44    1
   161   213   214    1
   162    87    89   ar
   163    58    56   ar
   164    57    56   ar
   165   215   214    2
   166    88    89   ar
   167    71    70    2
   168   118   119   ar
   169   118   120   ar
   170   119   121   ar
   171    56    55    1
   172   103   105   ar
   173   103   104   ar
   174    44    41    1
   175   157   156   ar
   176   157   155   ar
   177   161   160    2
   178    70    69    1
   179   120   122   ar
   180   121   123   ar
   181    40    41    1
   182   156   154   ar
   183    55    52    1
   184    43    42    2
   185   155   153   ar
   186    41    42    1
   187   160   159    1
   188   122   123   ar
   189    68    69    1
   190    75    77   ar
   191    75    73   ar
   192    69    72    1
   193   159   162    1
   194   159   158    1
   195   154   152   ar
   196    77    78   ar
   197   150   149    2
   198    72    73    1
   199    52    51    1
   200    52    53    1
   201   153   152   ar
   202    73    74   ar
   203   152   151    1
   204   149   158   am
   205   149   148    1
   206    53    54    2
   207    78    76   ar
   208    74    76   ar
   209   151   148    1
   210   148   147    1
   211    65    64    2
   212    67    66    1
   213    66    63    1
   214    63    64    1
   215    63    62    1
   216   142   141    2
   217   145   143    1
   218   146   144    1
   219   141   140    1
   220   140   143    1
   221   140   139    1
   222   143   144    1
