@<TRIPOS>MOLECULE
tmp/4k9uA02.pdb
 238 228 0 0 0
SMALL
GASTEIGER

@<TRIPOS>ATOM
      1  N         28.6830   35.9170   22.5020 N.3    31  PHE31      -0.1241
      2  CA        27.4390   36.6280   22.2430 C.3    31  PHE31       0.1605
      3  C         26.3270   36.2510   23.2140 C.2    31  PHE31       0.2264
      4  O         25.3170   36.9490   23.3040 O.2    31  PHE31      -0.2867
      5  CB        26.9780   36.3880   20.8030 C.3    31  PHE31       0.0534
      6  CG        28.0730   36.5270   19.7850 C.ar   31  PHE31      -0.0203
      7  CD1       28.0080   37.5040   18.8060 C.ar   31  PHE31      -0.0042
      8  CD2       29.1690   35.6790   19.8060 C.ar   31  PHE31      -0.0042
      9  CE1       29.0140   37.6350   17.8680 C.ar   31  PHE31      -0.0003
     10  CE2       30.1780   35.8040   18.8710 C.ar   31  PHE31      -0.0003
     11  CZ        30.1010   36.7840   17.9000 C.ar   31  PHE31      -0.0000
     12  N         16.4570   40.6110    7.7370 N.3    79  ARG79      -0.1245
     13  CA        17.5170   40.4100    8.7380 C.3    79  ARG79       0.1563
     14  C         18.6430   41.3400    8.3670 C.2    79  ARG79       0.2260
     15  O         18.5530   42.0500    7.3810 O.2    79  ARG79      -0.2867
     16  CB        17.9970   38.9520    8.7940 C.3    79  ARG79       0.0307
     17  CG        16.8620   37.9500    8.9400 C.3    79  ARG79       0.0489
     18  CD        17.1630   36.8100    9.9010 C.3    79  ARG79       0.2205
     19  NE        16.0110   35.9100   10.0220 N.pl3  79  ARG79      -0.0865
     20  CZ        15.5970   35.0850    9.0600 C.cat  79  ARG79       0.5346
     21  NH1       14.5410   34.3030    9.2550 N.pl3  79  ARG79       0.1354
     22  NH2       16.2510   35.0390    7.9020 N.pl3  79  ARG79       0.1354
     23  N         24.6610   40.5660    6.0280 N.3    82  PHE82      -0.1241
     24  CA        25.6750   40.0370    6.9730 C.3    82  PHE82       0.1605
     25  C         27.1400   39.8490    6.5360 C.2    82  PHE82       0.2264
     26  O         28.0110   39.6190    7.3920 O.2    82  PHE82      -0.2867
     27  CB        25.1730   38.7530    7.6400 C.3    82  PHE82       0.0534
     28  CG        25.0590   37.5680    6.7080 C.ar   82  PHE82      -0.0203
     29  CD1       26.1940   36.8780    6.2790 C.ar   82  PHE82      -0.0042
     30  CD2       23.8110   37.1100    6.3040 C.ar   82  PHE82      -0.0042
     31  CE1       26.0870   35.7760    5.4450 C.ar   82  PHE82      -0.0003
     32  CE2       23.6980   36.0090    5.4790 C.ar   82  PHE82      -0.0003
     33  CZ        24.8350   35.3410    5.0460 C.ar   82  PHE82      -0.0000
     34  N         24.3080   34.0540   -3.5810 N.3    88  MET88      -0.1245
     35  CA        23.5330   33.6530   -2.4240 C.3    88  MET88       0.1570
     36  C         22.6710   34.7940   -1.9390 C.2    88  MET88       0.2261
     37  O         21.9850   34.6640   -0.9170 O.2    88  MET88      -0.2867
     38  CB        24.4300   33.1690   -1.2870 C.3    88  MET88       0.0387
     39  CG        25.0240   31.7860   -1.4890 C.3    88  MET88       0.0595
     40  SD        23.8510   30.4180   -1.3940 S.3    88  MET88      -0.1393
     41  CE        23.2810   30.5710    0.3000 C.3    88  MET88       0.0692
     42  N         16.6590   32.7490    3.1090 N.3    93  SER93      -0.1202
     43  CA        16.9880   33.2740    4.4420 C.3    93  SER93       0.2020
     44  C         17.8330   34.5550    4.4180 C.2    93  SER93       0.2618
     45  O         18.0670   35.1550    5.4610 O.2    93  SER93      -0.2717
     46  CB        17.7190   32.2020    5.2550 C.3    93  SER93       0.2103
     47  OG        18.9920   31.9070    4.6940 O.3    93  SER93      -0.2182
     48  N         18.2800   34.9540    3.2270 N.am   94  ILE94      -0.1979
     49  CA        19.1830   36.0860    3.0410 C.3    94  ILE94       0.1595
     50  C         18.4560   37.1680    2.2580 C.2    94  ILE94       0.2287
     51  O         18.8360   38.3280    2.2960 O.2    94  ILE94      -0.2864
     52  CB        20.4870   35.6530    2.3140 C.3    94  ILE94       0.0276
     53  CG1       21.3120   34.7180    3.2160 C.3    94  ILE94       0.0022
     54  CG2       21.3470   36.8450    1.9100 C.3    94  ILE94       0.0022
     55  CD1       22.3890   33.9050    2.5040 C.3    94  ILE94       0.0001
     56  N         30.6100   20.7080    2.6150 N.3   181  THR181     -0.1203
     57  CA        29.5370   21.3000    3.4140 C.3   181  THR181      0.1994
     58  C         30.0300   22.1150    4.6070 C.2   181  THR181      0.2618
     59  O         29.8570   23.3290    4.6280 O.2   181  THR181     -0.2717
     60  CB        28.5190   20.2440    3.8900 C.3   181  THR181      0.1784
     61  OG1       28.1700   19.3820    2.7970 O.3   181  THR181     -0.2211
     62  CG2       27.2630   20.9220    4.4350 C.3   181  THR181      0.0376
     63  N         30.6510   21.4490    5.5810 N.am  182  LYS182     -0.1965
     64  CA        31.0090   22.0780    6.8700 C.3   182  LYS182      0.1728
     65  C         31.9520   23.3050    6.8430 C.2   182  LYS182      0.2616
     66  O         31.9880   24.0680    7.8170 O.2   182  LYS182     -0.2715
     67  CB        31.5020   21.0300    7.8940 C.3   182  LYS182      0.0311
     68  CG        32.0320   19.7150    7.3210 C.3   182  LYS182      0.0038
     69  CD        33.3070   19.2380    8.0230 C.3   182  LYS182      0.0206
     70  CE        33.1560   19.0750    9.5360 C.3   182  LYS182      0.1093
     71  NZ        32.7990   17.6890    9.9490 N.3   182  LYS182     -0.1314
     72  N         32.6890   23.4750    5.7500 N.am  183  LYS183     -0.1977
     73  CA        33.6130   24.5950    5.6160 C.3   183  LYS183      0.1596
     74  C         32.9170   25.8160    5.0230 C.2   183  LYS183      0.2287
     75  O         33.4270   26.4420    4.0930 O.2   183  LYS183     -0.2864
     76  CB        34.8110   24.2010    4.7500 C.3   183  LYS183      0.0298
     77  CG        35.2320   22.7480    4.8990 C.3   183  LYS183      0.0038
     78  CD        36.1810   22.3310    3.7870 C.3   183  LYS183      0.0206
     79  CE        37.1560   21.2660    4.2630 C.3   183  LYS183      0.1093
     80  NZ        38.1050   20.8620    3.1900 N.3   183  LYS183     -0.1314
     81  N         37.8840   31.7290   16.5830 N.3   184  LEU184     -0.1231
     82  CA        39.1160   32.5060   16.3530 C.3   184  LEU184      0.1693
     83  C         39.2630   32.9450   14.8950 C.2   184  LEU184      0.2592
     84  O         40.3800   33.0350   14.3680 O.2   184  LEU184     -0.2718
     85  CB        40.3640   31.7250   16.8160 C.3   184  LEU184      0.0284
     86  CG        40.7720   31.8380   18.2910 C.3   184  LEU184      0.0019
     87  CD1       39.8510   31.0090   19.1820 C.3   184  LEU184      0.0001
     88  CD2       42.2330   31.4300   18.4750 C.3   184  LEU184      0.0001
     89  N         38.1270   33.2210   14.2550 N.am  185  ASP185     -0.1974
     90  CA        38.1030   33.7410   12.8880 C.3   185  ASP185      0.1709
     91  C         38.0430   35.2760   12.8770 C.2   185  ASP185      0.2293
     92  O         36.9940   35.8640   13.1830 O.2   185  ASP185     -0.2864
     93  CB        36.9360   33.1440   12.0900 C.3   185  ASP185      0.1436
     94  CG        36.8140   33.7490   10.7040 C.2   185  ASP185      0.3671
     95  OD1       35.8800   34.5520   10.5050 O.co2 185  ASP185     -0.2456
     96  OD2       37.6620   33.4500    9.8300 O.co2 185  ASP185     -0.2456
     97  N         35.2280   37.5370   10.0990 N.3   188  PHE188     -0.1227
     98  CA        33.9180   38.1190   10.4070 C.3   188  PHE188      0.1736
     99  C         34.0350   39.2670   11.4050 C.2   188  PHE188      0.2595
    100  O         33.1850   40.1430   11.4430 O.2   188  PHE188     -0.2718
    101  CB        32.8960   37.0580   10.8340 C.3   188  PHE188      0.0547
    102  CG        32.5550   36.0980    9.7360 C.ar  188  PHE188     -0.0202
    103  CD1       31.5650   36.4060    8.8100 C.ar  188  PHE188     -0.0042
    104  CD2       33.2550   34.9020    9.5950 C.ar  188  PHE188     -0.0042
    105  CE1       31.2680   35.5290    7.7760 C.ar  188  PHE188     -0.0003
    106  CE2       32.9640   34.0220    8.5640 C.ar  188  PHE188     -0.0003
    107  CZ        31.9670   34.3360    7.6530 C.ar  188  PHE188     -0.0000
    108  N         35.1140   39.2670   12.1810 N.am  189  LEU189     -0.1980
    109  CA        35.4380   40.3950   13.0400 C.3   189  LEU189      0.1596
    110  C         35.7280   41.6520   12.2020 C.2   189  LEU189      0.2287
    111  O         35.2240   42.7260   12.4970 O.2   189  LEU189     -0.2864
    112  CB        36.6280   40.0500   13.9560 C.3   189  LEU189      0.0297
    113  CG        36.9420   40.9240   15.1840 C.3   189  LEU189      0.0022
    114  CD1       35.8120   40.8850   16.2150 C.3   189  LEU189      0.0001
    115  CD2       38.2750   40.5250   15.8100 C.3   189  LEU189      0.0001
    116  N         31.7230   33.9900    1.2800 N.3   208  VAL208     -0.1231
    117  CA        31.8700   33.3090    2.6070 C.3   208  VAL208      0.1692
    118  C         31.9590   31.7710    2.5710 C.2   208  VAL208      0.2592
    119  O         32.0360   31.1180    3.6220 O.2   208  VAL208     -0.2718
    120  CB        30.8400   33.7810    3.6900 C.3   208  VAL208      0.0266
    121  CG1       31.1330   35.2010    4.1510 C.3   208  VAL208      0.0020
    122  CG2       29.3960   33.6510    3.2220 C.3   208  VAL208      0.0020
    123  N         31.9360   31.2150    1.3570 N.am  209  PHE209     -0.1976
    124  CA        32.2590   29.8090    1.0680 C.3   209  PHE209      0.1639
    125  C         32.8360   29.7170   -0.3490 C.2   209  PHE209      0.2290
    126  O         32.1670   30.0940   -1.3170 O.2   209  PHE209     -0.2864
    127  CB        31.0500   28.8750    1.2460 C.3   209  PHE209      0.0560
    128  CG        29.7100   29.5630    1.1390 C.ar  209  PHE209     -0.0200
    129  CD1       29.0850   29.7090   -0.0950 C.ar  209  PHE209     -0.0042
    130  CD2       29.0600   30.0480    2.2820 C.ar  209  PHE209     -0.0042
    131  CE1       27.8530   30.3350   -0.1920 C.ar  209  PHE209     -0.0003
    132  CE2       27.8230   30.6750    2.1880 C.ar  209  PHE209     -0.0003
    133  CZ        27.2220   30.8200    0.9490 C.ar  209  PHE209     -0.0000
    134  N         21.4740   25.0360   -1.1830 N.3   254  ILE254     -0.1231
    135  CA        22.5710   25.1260   -0.2190 C.3   254  ILE254      0.1692
    136  C         22.0730   25.5260    1.1740 C.2   254  ILE254      0.2591
    137  O         22.5600   25.0250    2.1870 O.2   254  ILE254     -0.2718
    138  CB        23.6840   26.0710   -0.6970 C.3   254  ILE254      0.0266
    139  CG1       24.1820   25.6330   -2.0680 C.3   254  ILE254      0.0019
    140  CG2       24.8420   26.0680    0.2900 C.3   254  ILE254      0.0020
    141  CD1       24.9620   26.6880   -2.8270 C.3   254  ILE254      0.0001
    142  N         21.0850   26.4140    1.2080 N.am  255  ILE255     -0.1980
    143  CA        20.5230   26.9100    2.4650 C.3   255  ILE255      0.1595
    144  C         19.9090   25.7480    3.2080 C.2   255  ILE255      0.2287
    145  O         20.0550   25.6430    4.4130 O.2   255  ILE255     -0.2864
    146  CB        19.4700   28.0190    2.2230 C.3   255  ILE255      0.0276
    147  CG1       20.1460   29.3310    1.8280 C.3   255  ILE255      0.0022
    148  CG2       18.6100   28.2600    3.4480 C.3   255  ILE255      0.0022
    149  CD1       20.8530   30.0580    2.9460 C.3   255  ILE255      0.0001
    150  N         22.7540   23.0430    4.1970 N.3   258  PHE258     -0.1241
    151  CA        23.3780   23.4310    5.4310 C.3   258  PHE258      0.1605
    152  C         22.4400   23.2060    6.6300 C.2   258  PHE258      0.2264
    153  O         22.7240   22.3650    7.4830 O.2   258  PHE258     -0.2867
    154  CB        23.8900   24.8720    5.4090 C.3   258  PHE258      0.0534
    155  CG        24.4160   25.3150    6.7420 C.ar  258  PHE258     -0.0203
    156  CD1       25.7590   25.1150    7.0750 C.ar  258  PHE258     -0.0042
    157  CD2       23.5570   25.8560    7.7080 C.ar  258  PHE258     -0.0042
    158  CE1       26.2490   25.4920    8.3240 C.ar  258  PHE258     -0.0003
    159  CE2       24.0420   26.2320    8.9570 C.ar  258  PHE258     -0.0003
    160  CZ        25.3920   26.0560    9.2640 C.ar  258  PHE258     -0.0000
    161  N         21.8290   19.6670    7.6790 N.3   261  TYR261     -0.1227
    162  CA        23.0130   19.0450    8.2620 C.3   261  TYR261      0.1736
    163  C         23.3250   19.6540    9.6320 C.2   261  TYR261      0.2595
    164  O         23.0130   19.0580   10.6530 O.2   261  TYR261     -0.2718
    165  CB        24.2280   19.1270    7.3200 C.3   261  TYR261      0.0548
    166  CG        25.5500   18.7610    7.9790 C.ar  261  TYR261     -0.0200
    167  CD1       26.5360   19.7230    8.1940 C.ar  261  TYR261     -0.0009
    168  CD2       25.7990   17.4540    8.4070 C.ar  261  TYR261     -0.0009
    169  CE1       27.7290   19.3890    8.8060 C.ar  261  TYR261      0.0417
    170  CE2       26.9880   17.1140    9.0180 C.ar  261  TYR261      0.0417
    171  CZ        27.9450   18.0810    9.2110 C.ar  261  TYR261      0.1957
    172  OH        29.1220   17.7330    9.8160 O.3   261  TYR261     -0.2866
    173  N         23.8980   20.8490    9.6450 N.am  262  GLU262     -0.1979
    174  CA        24.4810   21.4120   10.8550 C.3   262  GLU262      0.1602
    175  C         23.5760   21.5250   12.0800 C.2   262  GLU262      0.2287
    176  O         23.9870   21.1970   13.2020 O.2   262  GLU262     -0.2864
    177  CB        25.0550   22.7860   10.5670 C.3   262  GLU262      0.0415
    178  CG        25.7080   23.4250   11.7760 C.3   262  GLU262      0.1163
    179  CD        26.6460   22.4860   12.5200 C.2   262  GLU262      0.3649
    180  OE1       27.4200   21.7360   11.8740 O.co2 262  GLU262     -0.2457
    181  OE2       26.5960   22.5090   13.7680 O.co2 262  GLU262     -0.2457
    182  N         20.2630   29.1370   17.6010 N.3   324  ALA324     -0.1245
    183  CA        20.3740   30.4930   17.1220 C.3   324  ALA324      0.1562
    184  C         20.2960   31.3890   18.3180 C.2   324  ALA324      0.2260
    185  O         19.2590   31.5300   18.8920 O.2   324  ALA324     -0.2867
    186  CB        19.2390   30.7920   16.1920 C.3   324  ALA324      0.0290
    187  N         19.9830   34.3550   18.9210 N.3   326  ARG326     -0.1231
    188  CA        19.0930   35.4940   18.9030 C.3   326  ARG326      0.1694
    189  C         18.3350   35.5530   17.6270 C.2   326  ARG326      0.2591
    190  O         18.7670   35.0260   16.6600 O.2   326  ARG326     -0.2718
    191  CB        19.8990   36.7650   19.0000 C.3   326  ARG326      0.0321
    192  CG        21.3530   36.5370   19.2870 C.3   326  ARG326      0.0489
    193  CD        22.1820   37.7370   18.9270 C.3   326  ARG326      0.2205
    194  NE        22.9280   38.2310   20.0620 N.pl3 326  ARG326     -0.0865
    195  CZ        23.7950   39.2160   19.9910 C.cat 326  ARG326      0.5346
    196  NH1       24.0230   39.8060   18.8500 N.pl3 326  ARG326      0.1354
    197  NH2       24.4180   39.6160   21.0610 N.pl3 326  ARG326      0.1354
    198  N         17.1960   36.2150   17.6250 N.am  327  LEU327     -0.1980
    199  CA        16.5000   36.5610   16.3710 C.3   327  LEU327      0.1596
    200  C         16.7500   38.0430   16.0980 C.2   327  LEU327      0.2287
    201  O         17.0750   38.7880   17.0300 O.2   327  LEU327     -0.2864
    202  CB        15.0030   36.2980   16.4790 C.3   327  LEU327      0.0297
    203  CG        14.6590   34.9980   17.2110 C.3   327  LEU327      0.0022
    204  CD1       13.2560   35.0470   17.8180 C.3   327  LEU327      0.0001
    205  CD2       14.8670   33.8010   16.2840 C.3   327  LEU327      0.0001
    206  N         32.4610   29.7470   22.0280 N.3   433  LEU433     -0.1231
    207  CA        32.2000   31.2010   21.9970 C.3   433  LEU433      0.1693
    208  C         31.5440   31.7450   20.7100 C.2   433  LEU433      0.2593
    209  O         30.7940   32.7350   20.7610 O.2   433  LEU433     -0.2718
    210  CB        33.4850   31.9880   22.3100 C.3   433  LEU433      0.0284
    211  CG        34.1820   31.7140   23.6460 C.3   433  LEU433      0.0019
    212  CD1       35.4390   32.5600   23.8130 C.3   433  LEU433      0.0001
    213  CD2       33.2400   31.9260   24.8190 C.3   433  LEU433      0.0001
    214  N         31.8060   31.0720   19.5860 N.am  434  GLY434     -0.1942
    215  CA        31.5470   31.5950   18.2420 C.3   434  GLY434      0.2014
    216  C         30.1150   31.8150   17.7870 C.2   434  GLY434      0.2639
    217  O         29.1930   31.9550   18.5980 O.2   434  GLY434     -0.2714
    218  N         29.9500   31.8510   16.4640 N.am  435  GLY435     -0.1939
    219  CA        28.6860   32.1920   15.8170 C.3   435  GLY435      0.2014
    220  C         27.5450   31.2790   16.2010 C.2   435  GLY435      0.2638
    221  O         26.6090   31.7040   16.8870 O.2   435  GLY435     -0.2714
    222  N         27.6180   30.0250   15.7530 N.am  436  LEU436     -0.1977
    223  CA        26.6020   29.0160   16.1030 C.3   436  LEU436      0.1596
    224  C         26.8430   28.4640   17.4990 C.2   436  LEU436      0.2287
    225  O         27.9700   28.4970   17.9960 O.2   436  LEU436     -0.2864
    226  CB        26.5490   27.8630   15.0790 C.3   436  LEU436      0.0297
    227  CG        25.3580   27.8480   14.1130 C.3   436  LEU436      0.0022
    228  CD1       25.5610   26.8110   13.0230 C.3   436  LEU436      0.0001
    229  CD2       24.0500   27.5960   14.8500 C.3   436  LEU436      0.0001
    230  N         27.6450   25.7310   19.7580 N.3   438  GLN438     -0.1245
    231  CA        28.2620   24.4210   19.7190 C.3   438  GLN438      0.1566
    232  C         28.8680   24.0360   21.0670 C.2   438  GLN438      0.2260
    233  O         29.0660   24.8980   21.9230 O.2   438  GLN438     -0.2867
    234  CB        29.3010   24.3730   18.6010 C.3   438  GLN438      0.0367
    235  CG        28.7090   23.9530   17.2680 C.3   438  GLN438      0.0905
    236  CD        29.4490   24.5410   16.0930 C.2   438  GLN438      0.2608
    237  OE1       30.6820   24.4760   16.0180 O.2   438  GLN438     -0.2717
    238  NE2       28.6990   25.1220   15.1610 N.am  438  GLN438     -0.0878
@<TRIPOS>BOND
     1    34    35    1
     2   141   139    1
     3    35    36    1
     4    35    38    1
     5   139   138    1
     6    36    37    2
     7    39    40    1
     8    39    38    1
     9    40    41    1
    10   126   125    2
    11   134   135    1
    12   138   135    1
    13   138   140    1
    14   125   124    1
    15   135   136    1
    16   131   129   ar
    17   131   133   ar
    18   129   128   ar
    19   133   132   ar
    20   124   127    1
    21   124   123    1
    22   128   127    1
    23   128   130   ar
    24   136   142   am
    25   136   137    2
    26   142   143    1
    27   116   117    1
    28   123   118   am
    29   147   146    1
    30   147   149    1
    31    54    52    1
    32   132   130   ar
    33   146   143    1
    34   146   148    1
    35    50    51    2
    36    50    49    1
    37    52    49    1
    38    52    53    1
    39   143   144    1
    40    55    53    1
    41   118   117    1
    42   118   119    2
    43   117   120    1
    44    56    57    1
    45    61    60    1
    46    49    48    1
    47    42    43    1
    48    80    79    1
    49   144   145    2
    50   122   120    1
    51    48    44   am
    52    57    60    1
    53    57    58    1
    54   120   121    1
    55    78    79    1
    56    78    77    1
    57    60    62    1
    58    75    74    2
    59   150   151    1
    60    44    43    1
    61    44    45    2
    62    43    46    1
    63    58    59    2
    64    58    63   am
    65    47    46    1
    66    76    77    1
    67    76    73    1
    68    74    73    1
    69    33    31   ar
    70    33    32   ar
    71   154   151    1
    72   154   155    1
    73   151   152    1
    74    31    29   ar
    75    32    30   ar
    76    63    64    1
    77    73    72    1
    78    72    65   am
    79    23    24    1
    80    29    28   ar
    81    30    28   ar
    82    25    24    1
    83    25    26    2
    84   152   153    2
    85    28    27    1
    86   155   156   ar
    87   155   157   ar
    88    65    64    1
    89    65    66    2
    90    64    67    1
    91    24    27    1
    92   156   158   ar
    93   165   166    1
    94   165   162    1
    95    68    67    1
    96    68    69    1
    97    15    14    2
    98   107   105   ar
    99   107   106   ar
   100   161   162    1
   101   157   159   ar
   102    12    13    1
   103   105   103   ar
   104    22    20    1
   105   166   167   ar
   106   166   168   ar
   107    69    70    1
   108   167   169   ar
   109   162   163    1
   110   158   160   ar
   111    14    13    1
   112   168   170   ar
   113   106   104   ar
   114    13    16    1
   115    16    17    1
   116   169   171   ar
   117   103   102   ar
   118    17    18    1
   119   159   160   ar
   120   170   171   ar
   121    20    21    1
   122    20    19    2
   123   171   172    1
   124    70    71    1
   125   104   102   ar
   126   163   173   am
   127   163   164    2
   128   173   174    1
   129   102   101    1
   130    96    94   ar
   131    18    19    1
   132    97    98    1
   133    98   101    1
   134    98    99    1
   135    95    94   ar
   136   177   174    1
   137   177   178    1
   138    94    93    1
   139   174   175    1
   140    99   100    2
   141    99   108   am
   142   178   179    1
   143   180   179   ar
   144   175   176    2
   145    93    90    1
   146   108   109    1
   147   110   111    2
   148   110   109    1
   149   179   181   ar
   150    91    90    1
   151    91    92    2
   152    90    89    1
   153   228   227    1
   154   109   112    1
   155   112   113    1
   156   227   229    1
   157   227   226    1
   158    89    83   am
   159    84    83    2
   160    83    82    1
   161   226   223    1
   162   238   236   am
   163   113   115    1
   164   113   114    1
   165   222   223    1
   166   222   220   am
   167   219   220    1
   168   219   218    1
   169   237   236    2
   170   236   235    1
   171   200   199    1
   172   200   201    2
   173   223   224    1
   174   186   183    1
   175   220   221    2
   176   205   203    1
   177    82    81    1
   178    82    85    1
   179   199   202    1
   180   199   198    1
   181   218   216   am
   182   202   203    1
   183   190   189    2
   184    85    86    1
   185   183   182    1
   186   183   184    1
   187   203   204    1
   188   235   234    1
   189   224   225    2
   190   198   189   am
   191   189   188    1
   192   216   215    1
   193   216   217    2
   194     9    11   ar
   195     9     7   ar
   196    11    10   ar
   197   215   214    1
   198    86    88    1
   199    86    87    1
   200   184   185    2
   201   234   231    1
   202     7     6   ar
   203   196   195    1
   204    10     8   ar
   205   188   187    1
   206   188   191    1
   207   193   192    1
   208   193   194    1
   209   191   192    1
   210   214   208   am
   211   231   230    1
   212   231   232    1
   213     6     8   ar
   214     6     5    1
   215   195   194    2
   216   195   197    1
   217   208   209    2
   218   208   207    1
   219     5     2    1
   220   232   233    2
   221   207   206    1
   222   207   210    1
   223     2     1    1
   224     2     3    1
   225   210   211    1
   226     3     4    2
   227   211   212    1
   228   211   213    1
