@<TRIPOS>MOLECULE
tmp/4k9uA01.pdb
 141 133 0 0 0
SMALL
GASTEIGER

@<TRIPOS>ATOM
      1  N         24.6610   40.5660    6.0280 N.3    82  PHE82      -0.1241
      2  CA        25.6750   40.0370    6.9730 C.3    82  PHE82       0.1605
      3  C         27.1400   39.8490    6.5360 C.2    82  PHE82       0.2264
      4  O         28.0110   39.6190    7.3920 O.2    82  PHE82      -0.2867
      5  CB        25.1730   38.7530    7.6400 C.3    82  PHE82       0.0534
      6  CG        25.0590   37.5680    6.7080 C.ar   82  PHE82      -0.0203
      7  CD1       26.1940   36.8780    6.2790 C.ar   82  PHE82      -0.0042
      8  CD2       23.8110   37.1100    6.3040 C.ar   82  PHE82      -0.0042
      9  CE1       26.0870   35.7760    5.4450 C.ar   82  PHE82      -0.0003
     10  CE2       23.6980   36.0090    5.4790 C.ar   82  PHE82      -0.0003
     11  CZ        24.8350   35.3410    5.0460 C.ar   82  PHE82      -0.0000
     12  N         16.6590   32.7490    3.1090 N.3    93  SER93      -0.1217
     13  CA        16.9880   33.2740    4.4420 C.3    93  SER93       0.1889
     14  C         17.8330   34.5550    4.4180 C.2    93  SER93       0.2288
     15  O         18.0670   35.1550    5.4610 O.2    93  SER93      -0.2866
     16  CB        17.7190   32.2020    5.2550 C.3    93  SER93       0.2089
     17  OG        18.9920   31.9070    4.6940 O.3    93  SER93      -0.2183
     18  N         30.6100   20.7080    2.6150 N.3   181  THR181     -0.1203
     19  CA        29.5370   21.3000    3.4140 C.3   181  THR181      0.1994
     20  C         30.0300   22.1150    4.6070 C.2   181  THR181      0.2618
     21  O         29.8570   23.3290    4.6280 O.2   181  THR181     -0.2717
     22  CB        28.5190   20.2440    3.8900 C.3   181  THR181      0.1784
     23  OG1       28.1700   19.3820    2.7970 O.3   181  THR181     -0.2211
     24  CG2       27.2630   20.9220    4.4350 C.3   181  THR181      0.0376
     25  N         30.6510   21.4490    5.5810 N.am  182  LYS182     -0.1965
     26  CA        31.0090   22.0780    6.8700 C.3   182  LYS182      0.1728
     27  C         31.9520   23.3050    6.8430 C.2   182  LYS182      0.2616
     28  O         31.9880   24.0680    7.8170 O.2   182  LYS182     -0.2715
     29  CB        31.5020   21.0300    7.8940 C.3   182  LYS182      0.0311
     30  CG        32.0320   19.7150    7.3210 C.3   182  LYS182      0.0038
     31  CD        33.3070   19.2380    8.0230 C.3   182  LYS182      0.0206
     32  CE        33.1560   19.0750    9.5360 C.3   182  LYS182      0.1093
     33  NZ        32.7990   17.6890    9.9490 N.3   182  LYS182     -0.1314
     34  N         32.6890   23.4750    5.7500 N.am  183  LYS183     -0.1977
     35  CA        33.6130   24.5950    5.6160 C.3   183  LYS183      0.1596
     36  C         32.9170   25.8160    5.0230 C.2   183  LYS183      0.2287
     37  O         33.4270   26.4420    4.0930 O.2   183  LYS183     -0.2864
     38  CB        34.8110   24.2010    4.7500 C.3   183  LYS183      0.0298
     39  CG        35.2320   22.7480    4.8990 C.3   183  LYS183      0.0038
     40  CD        36.1810   22.3310    3.7870 C.3   183  LYS183      0.0206
     41  CE        37.1560   21.2660    4.2630 C.3   183  LYS183      0.1093
     42  NZ        38.1050   20.8620    3.1900 N.3   183  LYS183     -0.1314
     43  N         38.1270   33.2210   14.2550 N.3   185  ASP185     -0.1239
     44  CA        38.1030   33.7410   12.8880 C.3   185  ASP185      0.1674
     45  C         38.0430   35.2760   12.8770 C.2   185  ASP185      0.2266
     46  O         36.9940   35.8640   13.1830 O.2   185  ASP185     -0.2867
     47  CB        36.9360   33.1440   12.0900 C.3   185  ASP185      0.1410
     48  CG        36.8140   33.7490   10.7040 C.2   185  ASP185      0.3668
     49  OD1       35.8800   34.5520   10.5050 O.co2 185  ASP185     -0.2456
     50  OD2       37.6620   33.4500    9.8300 O.co2 185  ASP185     -0.2456
     51  N         35.2280   37.5370   10.0990 N.3   188  PHE188     -0.1241
     52  CA        33.9180   38.1190   10.4070 C.3   188  PHE188      0.1605
     53  C         34.0350   39.2670   11.4050 C.2   188  PHE188      0.2264
     54  O         33.1850   40.1430   11.4430 O.2   188  PHE188     -0.2867
     55  CB        32.8960   37.0580   10.8340 C.3   188  PHE188      0.0534
     56  CG        32.5550   36.0980    9.7360 C.ar  188  PHE188     -0.0203
     57  CD1       31.5650   36.4060    8.8100 C.ar  188  PHE188     -0.0042
     58  CD2       33.2550   34.9020    9.5950 C.ar  188  PHE188     -0.0042
     59  CE1       31.2680   35.5290    7.7760 C.ar  188  PHE188     -0.0003
     60  CE2       32.9640   34.0220    8.5640 C.ar  188  PHE188     -0.0003
     61  CZ        31.9670   34.3360    7.6530 C.ar  188  PHE188     -0.0000
     62  N         31.7230   33.9900    1.2800 N.3   208  VAL208     -0.1231
     63  CA        31.8700   33.3090    2.6070 C.3   208  VAL208      0.1692
     64  C         31.9590   31.7710    2.5710 C.2   208  VAL208      0.2592
     65  O         32.0360   31.1180    3.6220 O.2   208  VAL208     -0.2718
     66  CB        30.8400   33.7810    3.6900 C.3   208  VAL208      0.0266
     67  CG1       31.1330   35.2010    4.1510 C.3   208  VAL208      0.0020
     68  CG2       29.3960   33.6510    3.2220 C.3   208  VAL208      0.0020
     69  N         31.9360   31.2150    1.3570 N.am  209  PHE209     -0.1976
     70  CA        32.2590   29.8090    1.0680 C.3   209  PHE209      0.1639
     71  C         32.8360   29.7170   -0.3490 C.2   209  PHE209      0.2290
     72  O         32.1670   30.0940   -1.3170 O.2   209  PHE209     -0.2864
     73  CB        31.0500   28.8750    1.2460 C.3   209  PHE209      0.0560
     74  CG        29.7100   29.5630    1.1390 C.ar  209  PHE209     -0.0200
     75  CD1       29.0850   29.7090   -0.0950 C.ar  209  PHE209     -0.0042
     76  CD2       29.0600   30.0480    2.2820 C.ar  209  PHE209     -0.0042
     77  CE1       27.8530   30.3350   -0.1920 C.ar  209  PHE209     -0.0003
     78  CE2       27.8230   30.6750    2.1880 C.ar  209  PHE209     -0.0003
     79  CZ        27.2220   30.8200    0.9490 C.ar  209  PHE209     -0.0000
     80  N         21.0850   26.4140    1.2080 N.3   255  ILE255     -0.1245
     81  CA        20.5230   26.9100    2.4650 C.3   255  ILE255      0.1561
     82  C         19.9090   25.7480    3.2080 C.2   255  ILE255      0.2260
     83  O         20.0550   25.6430    4.4130 O.2   255  ILE255     -0.2867
     84  CB        19.4700   28.0190    2.2230 C.3   255  ILE255      0.0252
     85  CG1       20.1460   29.3310    1.8280 C.3   255  ILE255      0.0019
     86  CG2       18.6100   28.2600    3.4480 C.3   255  ILE255      0.0019
     87  CD1       20.8530   30.0580    2.9460 C.3   255  ILE255      0.0001
     88  N         22.7540   23.0430    4.1970 N.3   258  PHE258     -0.1227
     89  CA        23.3780   23.4310    5.4310 C.3   258  PHE258      0.1736
     90  C         22.4400   23.2060    6.6300 C.2   258  PHE258      0.2595
     91  O         22.7240   22.3650    7.4830 O.2   258  PHE258     -0.2718
     92  CB        23.8900   24.8720    5.4090 C.3   258  PHE258      0.0547
     93  CG        24.4160   25.3150    6.7420 C.ar  258  PHE258     -0.0202
     94  CD1       25.7590   25.1150    7.0750 C.ar  258  PHE258     -0.0042
     95  CD2       23.5570   25.8560    7.7080 C.ar  258  PHE258     -0.0042
     96  CE1       26.2490   25.4920    8.3240 C.ar  258  PHE258     -0.0003
     97  CE2       24.0420   26.2320    8.9570 C.ar  258  PHE258     -0.0003
     98  CZ        25.3920   26.0560    9.2640 C.ar  258  PHE258     -0.0000
     99  N         21.3340   23.9510    6.7000 N.am  259  ALA259     -0.1980
    100  CA        20.4260   23.8930    7.8560 C.3   259  ALA259      0.1597
    101  C         20.1890   22.4480    8.2860 C.2   259  ALA259      0.2287
    102  O         20.4270   22.0960    9.4370 O.2   259  ALA259     -0.2864
    103  CB        19.1090   24.5850    7.5440 C.3   259  ALA259      0.0319
    104  N         22.3620   22.0160   11.8880 N.3   263  THR263     -0.1218
    105  CA        21.5150   22.2350   13.0330 C.3   263  THR263      0.1862
    106  C         21.0580   20.8880   13.5780 C.2   263  THR263      0.2287
    107  O         21.0640   20.6650   14.8000 O.2   263  THR263     -0.2866
    108  CB        20.3130   23.1290   12.6940 C.3   263  THR263      0.1770
    109  OG1       19.3430   22.3710   11.9630 O.3   263  THR263     -0.2211
    110  CG2       20.7590   24.2890   11.8430 C.3   263  THR263      0.0375
    111  N         20.0260   26.8070   19.1000 N.3   323  ILE323     -0.1231
    112  CA        21.1550   26.9870   18.2200 C.3   323  ILE323      0.1692
    113  C         21.2970   28.3330   17.5660 C.2   323  ILE323      0.2591
    114  O         22.3470   28.6510   17.0820 O.2   323  ILE323     -0.2718
    115  CB        21.2320   25.8930   17.1800 C.3   323  ILE323      0.0266
    116  CG1       21.5200   24.5640   17.8360 C.3   323  ILE323      0.0019
    117  CG2       22.3220   26.2230   16.1960 C.3   323  ILE323      0.0020
    118  CD1       21.3490   23.4000   16.8960 C.3   323  ILE323      0.0001
    119  N         20.2630   29.1370   17.6010 N.am  324  ALA324     -0.1980
    120  CA        20.3740   30.4930   17.1220 C.3   324  ALA324      0.1597
    121  C         20.2960   31.3890   18.3180 C.2   324  ALA324      0.2287
    122  O         19.2590   31.5300   18.8920 O.2   324  ALA324     -0.2864
    123  CB        19.2390   30.7920   16.1920 C.3   324  ALA324      0.0319
    124  N         11.1480   29.8180   11.2880 N.3   396  CYS396     -0.1235
    125  CA        11.8630   28.6990   10.6790 C.3   396  CYS396      0.1677
    126  C         11.0150   27.8140    9.7830 C.2   396  CYS396      0.2270
    127  O         10.2590   26.9660   10.2650 O.2   396  CYS396     -0.2867
    128  CB        12.5020   27.8350   11.7430 C.3   396  CYS396      0.0956
    129  SG        13.3220   26.4710   10.9310 S.3   396  CYS396     -0.0801
    130  N         29.9500   31.8510   16.4640 N.3   435  GLY435     -0.1210
    131  CA        28.6860   32.1920   15.8170 C.3   435  GLY435      0.1956
    132  C         27.5450   31.2790   16.2010 C.2   435  GLY435      0.2611
    133  O         26.6090   31.7040   16.8870 O.2   435  GLY435     -0.2717
    134  N         27.6180   30.0250   15.7530 N.am  436  LEU436     -0.1979
    135  CA        26.6020   29.0160   16.1030 C.3   436  LEU436      0.1596
    136  C         26.8430   28.4640   17.4990 C.2   436  LEU436      0.2287
    137  O         27.9700   28.4970   17.9960 O.2   436  LEU436     -0.2864
    138  CB        26.5490   27.8630   15.0790 C.3   436  LEU436      0.0297
    139  CG        25.3580   27.8480   14.1130 C.3   436  LEU436      0.0022
    140  CD1       25.5610   26.8110   13.0230 C.3   436  LEU436      0.0001
    141  CD2       24.0500   27.5960   14.8500 C.3   436  LEU436      0.0001
@<TRIPOS>BOND
     1    72    71    2
     2    71    70    1
     3    77    75   ar
     4    77    79   ar
     5    75    74   ar
     6    79    78   ar
     7    70    73    1
     8    70    69    1
     9    74    73    1
    10    74    76   ar
    11    80    81    1
    12    62    63    1
    13    69    64   am
    14    85    84    1
    15    85    87    1
    16    78    76   ar
    17    84    81    1
    18    84    86    1
    19    81    82    1
    20    64    63    1
    21    64    65    2
    22    63    66    1
    23    18    19    1
    24    23    22    1
    25    12    13    1
    26    42    41    1
    27    82    83    2
    28    68    66    1
    29    19    22    1
    30    19    20    1
    31    66    67    1
    32    40    41    1
    33    40    39    1
    34    22    24    1
    35    37    36    2
    36    88    89    1
    37    14    13    1
    38    14    15    2
    39    13    16    1
    40    20    21    2
    41    20    25   am
    42    17    16    1
    43    38    39    1
    44    38    35    1
    45    36    35    1
    46    11     9   ar
    47    11    10   ar
    48    92    89    1
    49    92    93    1
    50    89    90    1
    51     9     7   ar
    52    10     8   ar
    53    25    26    1
    54    35    34    1
    55    34    27   am
    56     1     2    1
    57     7     6   ar
    58     8     6   ar
    59     3     2    1
    60     3     4    2
    61    90    99   am
    62    90    91    2
    63    99   100    1
    64     6     5    1
    65    93    94   ar
    66    93    95   ar
    67    27    26    1
    68    27    28    2
    69    26    29    1
    70     2     5    1
    71    94    96   ar
    72    30    29    1
    73    30    31    1
    74   103   100    1
    75    61    59   ar
    76    61    60   ar
    77    95    97   ar
    78    59    57   ar
    79   100   101    1
    80    31    32    1
    81   101   102    2
    82    96    98   ar
    83    60    58   ar
    84    57    56   ar
    85    97    98   ar
    86    32    33    1
    87    58    56   ar
    88    56    55    1
    89   126   127    2
    90   126   125    1
    91    50    48   ar
    92    51    52    1
    93    52    55    1
    94    52    53    1
    95    49    48   ar
    96   125   124    1
    97   125   128    1
    98    48    47    1
    99   129   128    1
   100    53    54    2
   101   110   108    1
   102   104   105    1
   103   109   108    1
   104    47    44    1
   105   108   105    1
   106    45    44    1
   107    45    46    2
   108    44    43    1
   109   140   139    1
   110   105   106    1
   111   106   107    2
   112   139   141    1
   113   139   138    1
   114   138   135    1
   115   134   135    1
   116   134   132   am
   117   131   132    1
   118   131   130    1
   119   135   136    1
   120   123   120    1
   121   117   115    1
   122   132   133    2
   123   118   116    1
   124   114   113    2
   125   120   119    1
   126   120   121    1
   127   115   116    1
   128   115   112    1
   129   136   137    2
   130   113   119   am
   131   113   112    1
   132   112   111    1
   133   121   122    2
