@<TRIPOS>MOLECULE
tmp/4k9wA01.pdb
 240 228 0 0 0
SMALL
GASTEIGER

@<TRIPOS>ATOM
      1  N         36.0530   -6.3200   15.0590 N.3    25  TYR25      -0.1241
      2  CA        35.7660   -7.6950   15.4400 C.3    25  TYR25       0.1605
      3  C         34.3180   -8.1010   15.1710 C.2    25  TYR25       0.2264
      4  O         33.9830   -9.2810   15.2720 O.2    25  TYR25      -0.2867
      5  CB        36.0600   -7.8840   16.9290 C.3    25  TYR25       0.0534
      6  CG        37.5160   -8.0890   17.2900 C.ar   25  TYR25      -0.0201
      7  CD1       37.8630   -8.7990   18.4310 C.ar   25  TYR25      -0.0009
      8  CD2       38.5450   -7.5910   16.4930 C.ar   25  TYR25      -0.0009
      9  CE1       39.1860   -8.9970   18.7800 C.ar   25  TYR25       0.0417
     10  CE2       39.8710   -7.7880   16.8350 C.ar   25  TYR25       0.0417
     11  CZ        40.1870   -8.4930   17.9770 C.ar   25  TYR25       0.1957
     12  OH        41.5090   -8.7070   18.3230 O.3    25  TYR25      -0.2866
     13  N         36.6120  -12.0980   14.5590 N.3    29  PHE29      -0.1241
     14  CA        38.0170  -11.6970   14.5630 C.3    29  PHE29       0.1605
     15  C         38.8520  -12.4890   13.5550 C.2    29  PHE29       0.2264
     16  O         40.0010  -12.1340   13.2580 O.2    29  PHE29      -0.2867
     17  CB        38.6130  -11.7220   15.9860 C.3    29  PHE29       0.0534
     18  CG        38.7710  -13.1020   16.5750 C.ar   29  PHE29      -0.0203
     19  CD1       40.0040  -13.7400   16.5470 C.ar   29  PHE29      -0.0042
     20  CD2       37.6940  -13.7500   17.1830 C.ar   29  PHE29      -0.0042
     21  CE1       40.1620  -15.0010   17.1000 C.ar   29  PHE29      -0.0003
     22  CE2       37.8420  -15.0160   17.7320 C.ar   29  PHE29      -0.0003
     23  CZ        39.0800  -15.6410   17.6940 C.ar   29  PHE29      -0.0000
     24  N         44.0890   -4.2680   20.6120 N.3    48  ASP48      -0.1239
     25  CA        42.9340   -4.7220   21.3800 C.3    48  ASP48       0.1674
     26  C         42.7890   -3.7330   22.5350 C.2    48  ASP48       0.2266
     27  O         43.4260   -3.8860   23.5760 O.2    48  ASP48      -0.2867
     28  CB        43.1370   -6.1510   21.8980 C.3    48  ASP48       0.1410
     29  CG        42.8720   -7.2120   20.8380 C.2    48  ASP48       0.3668
     30  OD1       42.1590   -6.9290   19.8570 O.co2  48  ASP48      -0.2456
     31  OD2       43.3730   -8.3470   20.9900 O.co2  48  ASP48      -0.2456
     32  N         51.5520  -16.8100   27.2610 N.3    77  ARG77      -0.1231
     33  CA        50.3570  -16.4280   26.5220 C.3    77  ARG77       0.1694
     34  C         49.8510  -15.0850   27.0600 C.2    77  ARG77       0.2591
     35  O         50.3010  -14.6340   28.1220 O.2    77  ARG77      -0.2718
     36  CB        49.2910  -17.5250   26.6790 C.3    77  ARG77       0.0321
     37  CG        49.3390  -18.5470   25.5490 C.3    77  ARG77       0.0489
     38  CD        48.3780  -19.7110   25.7230 C.3    77  ARG77       0.2205
     39  NE        48.9190  -20.9120   25.0590 N.pl3  77  ARG77      -0.0865
     40  CZ        49.4270  -21.9680   25.6870 C.cat  77  ARG77       0.5346
     41  NH1       49.9080  -23.0010   24.9800 N.pl3  77  ARG77       0.1354
     42  NH2       49.4480  -22.0020   27.0140 N.pl3  77  ARG77       0.1354
     43  N         48.9430  -14.4360   26.3230 N.am   78  ARG78      -0.1980
     44  CA        48.3110  -13.1990   26.7900 C.3    78  ARG78       0.1597
     45  C         47.5720  -13.3980   28.1360 C.2    78  ARG78       0.2287
     46  O         46.8460  -14.3800   28.3060 O.2    78  ARG78      -0.2864
     47  CB        47.3410  -12.6540   25.7360 C.3    78  ARG78       0.0334
     48  CG        47.0710  -11.1640   25.8740 C.3    78  ARG78       0.0492
     49  CD        45.7640  -10.7300   25.2210 C.3    78  ARG78       0.2205
     50  NE        45.7370  -10.9580   23.7750 N.pl3  78  ARG78      -0.0865
     51  CZ        45.0610  -10.2030   22.9120 C.cat  78  ARG78       0.5346
     52  NH1       44.3630   -9.1640   23.3370 N.pl3  78  ARG78       0.1354
     53  NH2       45.0870  -10.4850   21.6230 N.pl3  78  ARG78       0.1354
     54  N         44.4780  -12.6470   30.3740 N.3    80  PHE80      -0.1241
     55  CA        43.1580  -12.5160   29.7010 C.3    80  PHE80       0.1605
     56  C         41.9360  -12.0590   30.5190 C.2    80  PHE80       0.2264
     57  O         40.9220  -11.6360   29.9350 O.2    80  PHE80      -0.2867
     58  CB        42.8310  -13.7830   28.8910 C.3    80  PHE80       0.0534
     59  CG        42.5900  -15.0140   29.7340 C.ar   80  PHE80      -0.0203
     60  CD1       41.3410  -15.6350   29.7350 C.ar   80  PHE80      -0.0042
     61  CD2       43.6100  -15.5620   30.5070 C.ar   80  PHE80      -0.0042
     62  CE1       41.1080  -16.7630   30.5010 C.ar   80  PHE80      -0.0003
     63  CE2       43.3800  -16.6860   31.2790 C.ar   80  PHE80      -0.0003
     64  CZ        42.1290  -17.2860   31.2760 C.ar   80  PHE80      -0.0000
     65  N         42.7680  -20.3620   39.3180 N.3    86  MET86      -0.1245
     66  CA        42.9470  -20.9120   37.9730 C.3    86  MET86       0.1570
     67  C         44.1390  -20.2530   37.2810 C.2    86  MET86       0.2261
     68  O         44.5210  -20.6410   36.1870 O.2    86  MET86      -0.2867
     69  CB        41.6870  -20.6950   37.1370 C.3    86  MET86       0.0387
     70  CG        40.5750  -21.6900   37.3870 C.3    86  MET86       0.0595
     71  SD        41.0790  -23.3810   37.0480 S.3    86  MET86      -0.1393
     72  CE        41.1140  -23.4230   35.2610 C.3    86  MET86       0.0692
     73  N         47.9890  -24.0130   31.1230 N.3    91  SER91      -0.1202
     74  CA        47.7890  -23.1710   29.9200 C.3    91  SER91       0.2020
     75  C         47.8020  -21.6650   30.1830 C.2    91  SER91       0.2618
     76  O         48.0290  -20.8840   29.2630 O.2    91  SER91      -0.2717
     77  CB        46.4780  -23.5260   29.2260 C.3    91  SER91       0.2103
     78  OG        45.3830  -23.4690   30.1340 O.3    91  SER91      -0.2182
     79  N         47.6050  -21.2650   31.4420 N.am   92  ILE92      -0.1979
     80  CA        47.4590  -19.8560   31.8040 C.3    92  ILE92       0.1595
     81  C         48.7100  -19.4230   32.5540 C.2    92  ILE92       0.2287
     82  O         49.0080  -18.2150   32.6690 O.2    92  ILE92      -0.2864
     83  CB        46.2060  -19.6810   32.7020 C.3    92  ILE92       0.0276
     84  CG1       44.9190  -20.0320   31.9430 C.3    92  ILE92       0.0022
     85  CG2       46.1070  -18.2890   33.2930 C.3    92  ILE92       0.0022
     86  CD1       43.7440  -20.4030   32.8590 C.3    92  ILE92       0.0001
     87  N         31.3010  -23.6510   31.8460 N.3   182  LEU182     -0.1231
     88  CA        32.5780  -23.2300   32.4160 C.3   182  LEU182      0.1693
     89  C         33.1050  -21.9530   31.7800 C.2   182  LEU182      0.2591
     90  O         33.4140  -20.9910   32.4740 O.2   182  LEU182     -0.2718
     91  CB        33.6220  -24.3410   32.3010 C.3   182  LEU182      0.0284
     92  CG        35.0540  -23.9680   32.6900 C.3   182  LEU182      0.0019
     93  CD1       35.1480  -23.6270   34.1660 C.3   182  LEU182      0.0001
     94  CD2       36.0130  -25.0980   32.3410 C.3   182  LEU182      0.0001
     95  N         33.2310  -21.9500   30.4630 N.am  183  LEU183     -0.1980
     96  CA        33.5960  -20.7310   29.7750 C.3   183  LEU183      0.1596
     97  C         32.5340  -20.4310   28.7310 C.2   183  LEU183      0.2287
     98  O         32.1660  -21.3030   27.9420 O.2   183  LEU183     -0.2864
     99  CB        34.9790  -20.8620   29.1270 C.3   183  LEU183      0.0297
    100  CG        35.9890  -19.7290   29.3780 C.3   183  LEU183      0.0022
    101  CD1       37.2560  -19.9710   28.5730 C.3   183  LEU183      0.0001
    102  CD2       35.4250  -18.3390   29.0820 C.3   183  LEU183      0.0001
    103  N         32.6650  -17.1300   26.8270 N.3   185  PHE185     -0.1241
    104  CA        33.1990  -15.8610   26.3320 C.3   185  PHE185      0.1605
    105  C         32.3680  -15.3740   25.1490 C.2   185  PHE185      0.2264
    106  O         32.0170  -16.1550   24.2580 O.2   185  PHE185     -0.2867
    107  CB        34.6700  -16.0570   25.9190 C.3   185  PHE185      0.0534
    108  CG        35.3580  -14.8060   25.4220 C.ar  185  PHE185     -0.0203
    109  CD1       36.2330  -14.1040   26.2520 C.ar  185  PHE185     -0.0042
    110  CD2       35.1600  -14.3460   24.1170 C.ar  185  PHE185     -0.0042
    111  CE1       36.8800  -12.9590   25.8020 C.ar  185  PHE185     -0.0003
    112  CE2       35.8010  -13.2030   23.6600 C.ar  185  PHE185     -0.0003
    113  CZ        36.6610  -12.5050   24.5020 C.ar  185  PHE185     -0.0000
    114  N         32.0480  -11.5740   22.7220 N.3   187  PHE187     -0.1241
    115  CA        32.2810  -10.1490   22.4280 C.3   187  PHE187      0.1605
    116  C         31.0370   -9.3010   22.6850 C.2   187  PHE187      0.2264
    117  O         31.1410   -8.0920   22.8770 O.2   187  PHE187     -0.2867
    118  CB        32.7240   -9.9310   20.9770 C.3   187  PHE187      0.0534
    119  CG        34.0510  -10.5570   20.6290 C.ar  187  PHE187     -0.0203
    120  CD1       34.2030  -11.2540   19.4290 C.ar  187  PHE187     -0.0042
    121  CD2       35.1530  -10.4280   21.4730 C.ar  187  PHE187     -0.0042
    122  CE1       35.4220  -11.8250   19.0830 C.ar  187  PHE187     -0.0003
    123  CE2       36.3750  -11.0020   21.1340 C.ar  187  PHE187     -0.0003
    124  CZ        36.5080  -11.7080   19.9420 C.ar  187  PHE187     -0.0000
    125  N         38.3970   -7.3680   27.8500 N.3   196  THR196     -0.1218
    126  CA        39.0700   -7.5020   26.5570 C.3   196  THR196      0.1862
    127  C         39.6880   -6.1530   26.1640 C.2   196  THR196      0.2287
    128  O         40.8430   -6.0880   25.7480 O.2   196  THR196     -0.2866
    129  CB        38.0780   -7.9960   25.4650 C.3   196  THR196      0.1770
    130  OG1       37.7730   -9.3830   25.6760 O.3   196  THR196     -0.2211
    131  CG2       38.6400   -7.8320   24.0640 C.3   196  THR196      0.0375
    132  N         35.3050  -17.4500   35.1340 N.3   213  PHE213     -0.1241
    133  CA        34.6410  -18.7580   35.2210 C.3   213  PHE213      0.1605
    134  C         33.6070  -18.7220   36.3490 C.2   213  PHE213      0.2264
    135  O         33.9350  -18.3040   37.4530 O.2   213  PHE213     -0.2867
    136  CB        35.6520  -19.8990   35.4900 C.3   213  PHE213      0.0534
    137  CG        36.8900  -19.8610   34.6220 C.ar  213  PHE213     -0.0203
    138  CD1       38.0950  -19.3790   35.1320 C.ar  213  PHE213     -0.0042
    139  CD2       36.8590  -20.3200   33.2990 C.ar  213  PHE213     -0.0042
    140  CE1       39.2440  -19.3420   34.3450 C.ar  213  PHE213     -0.0003
    141  CE2       38.0040  -20.2930   32.5060 C.ar  213  PHE213     -0.0003
    142  CZ        39.2010  -19.8050   33.0300 C.ar  213  PHE213     -0.0000
    143  N         40.7080  -29.1880   35.8180 N.3   262  ILE262     -0.1231
    144  CA        39.6820  -28.4230   35.0920 C.3   262  ILE262      0.1692
    145  C         40.1280  -28.1510   33.6650 C.2   262  ILE262      0.2591
    146  O         39.3010  -28.1330   32.7630 O.2   262  ILE262     -0.2718
    147  CB        39.2880  -27.0850   35.7850 C.3   262  ILE262      0.0266
    148  CG1       38.7610  -27.3190   37.1950 C.3   262  ILE262      0.0019
    149  CG2       38.1670  -26.3830   35.0210 C.3   262  ILE262      0.0020
    150  CD1       38.5410  -26.0340   37.9920 C.3   262  ILE262      0.0001
    151  N         41.4250  -27.9120   33.4610 N.am  263  ILE263     -0.1980
    152  CA        41.9560  -27.6930   32.1040 C.3   263  ILE263      0.1595
    153  C         41.8030  -28.9740   31.3050 C.2   263  ILE263      0.2287
    154  O         41.3320  -28.9400   30.1770 O.2   263  ILE263     -0.2864
    155  CB        43.4520  -27.2370   32.0810 C.3   263  ILE263      0.0276
    156  CG1       43.6080  -25.8610   32.7110 C.3   263  ILE263      0.0022
    157  CG2       43.9830  -27.1370   30.6530 C.3   263  ILE263      0.0022
    158  CD1       42.8250  -24.7800   31.9830 C.3   263  ILE263      0.0001
    159  N         38.1460  -29.7660   30.4930 N.3   266  PHE266     -0.1227
    160  CA        37.6600  -28.8710   29.4470 C.3   266  PHE266      0.1736
    161  C         38.1630  -29.2180   28.0380 C.2   266  PHE266      0.2595
    162  O         37.4060  -29.1930   27.0860 O.2   266  PHE266     -0.2718
    163  CB        37.9930  -27.4050   29.7920 C.3   266  PHE266      0.0547
    164  CG        37.5940  -26.4250   28.7210 C.ar  266  PHE266     -0.0202
    165  CD1       36.3660  -25.7950   28.7650 C.ar  266  PHE266     -0.0042
    166  CD2       38.4430  -26.1530   27.6510 C.ar  266  PHE266     -0.0042
    167  CE1       35.9850  -24.9020   27.7700 C.ar  266  PHE266     -0.0003
    168  CE2       38.0770  -25.2640   26.6470 C.ar  266  PHE266     -0.0003
    169  CZ        36.8430  -24.6370   26.7100 C.ar  266  PHE266     -0.0000
    170  N         39.4430  -29.5240   27.8930 N.am  267  ALA267     -0.1980
    171  CA        39.9760  -29.8690   26.5750 C.3   267  ALA267      0.1597
    172  C         39.4290  -31.1990   26.1010 C.2   267  ALA267      0.2287
    173  O         38.9840  -31.3240   24.9390 O.2   267  ALA267     -0.2864
    174  CB        41.4830  -29.9040   26.5970 C.3   267  ALA267      0.0319
    175  N         36.9530  -29.4880   23.2900 N.3   271  THR271     -0.1218
    176  CA        37.7090  -29.4320   22.0520 C.3   271  THR271      0.1862
    177  C         37.5030  -30.7100   21.2660 C.2   271  THR271      0.2287
    178  O         37.1920  -30.6640   20.0910 O.2   271  THR271     -0.2866
    179  CB        39.2030  -29.2340   22.3150 C.3   271  THR271      0.1770
    180  OG1       39.3710  -28.4090   23.4680 O.3   271  THR271     -0.2211
    181  CG2       39.8530  -28.5460   21.1420 C.3   271  THR271      0.0375
    182  N         40.6950  -24.9620   16.3060 N.3   331  ILE331     -0.1231
    183  CA        40.1190  -24.5950   17.5960 C.3   331  ILE331      0.1692
    184  C         40.7600  -23.3420   18.1930 C.2   331  ILE331      0.2592
    185  O         40.0600  -22.5010   18.7670 O.2   331  ILE331     -0.2718
    186  CB        40.1600  -25.7580   18.6110 C.3   331  ILE331      0.0266
    187  CG1       41.6000  -26.1490   18.9790 C.3   331  ILE331      0.0019
    188  CG2       39.3560  -26.9250   18.0900 C.3   331  ILE331      0.0020
    189  CD1       42.0640  -25.6220   20.3280 C.3   331  ILE331      0.0001
    190  N         42.0800  -23.2200   18.0730 N.am  332  ALA332     -0.1966
    191  CA        42.7400  -21.9690   18.4160 C.3   332  ALA332      0.1728
    192  C         42.9090  -21.1840   17.1270 C.2   332  ALA332      0.2616
    193  O         43.7300  -21.5290   16.2600 O.2   332  ALA332     -0.2715
    194  CB        44.0810  -22.2060   19.1060 C.3   332  ALA332      0.0334
    195  N         42.1150  -20.1320   17.0180 N.am  333  MET333     -0.1963
    196  CA        42.0540  -19.2760   15.8390 C.3   333  MET333      0.1736
    197  C         43.3110  -18.4160   15.6990 C.2   333  MET333      0.2616
    198  O         43.6990  -18.0260   14.6010 O.2   333  MET333     -0.2715
    199  CB        40.7840  -18.4320   15.9320 C.3   333  MET333      0.0427
    200  CG        39.6160  -19.2690   16.4430 C.3   333  MET333      0.0599
    201  SD        37.9840  -18.5140   16.5260 S.3   333  MET333     -0.1393
    202  CE        37.2770  -19.1120   14.9860 C.3   333  MET333      0.0692
    203  N         43.9540  -18.1450   16.8260 N.am  334  ARG334     -0.1977
    204  CA        45.2000  -17.3970   16.8810 C.3   334  ARG334      0.1597
    205  C         46.0800  -18.0880   17.9040 C.2   334  ARG334      0.2287
    206  O         45.5540  -18.6270   18.8800 O.2   334  ARG334     -0.2864
    207  CB        44.9400  -15.9760   17.3840 C.3   334  ARG334      0.0334
    208  CG        44.1050  -15.1100   16.4660 C.3   334  ARG334      0.0492
    209  CD        43.7300  -13.8260   17.1880 C.3   334  ARG334      0.2205
    210  NE        43.2390  -12.8230   16.2490 N.pl3 334  ARG334     -0.0865
    211  CZ        42.7710  -11.6280   16.5860 C.cat 334  ARG334      0.5346
    212  NH1       42.6990  -11.2540   17.8570 N.pl3 334  ARG334      0.1354
    213  NH2       42.3650  -10.8080   15.6360 N.pl3 334  ARG334      0.1354
    214  N         49.2570  -17.0020   20.5160 N.3   336  GLU336     -0.1245
    215  CA        49.7810  -15.7650   21.0580 C.3   336  GLU336      0.1567
    216  C         50.9370  -15.9840   22.0270 C.2   336  GLU336      0.2260
    217  O         50.9160  -16.9260   22.8240 O.2   336  GLU336     -0.2867
    218  CB        48.6520  -14.9320   21.7070 C.3   336  GLU336      0.0388
    219  CG        47.5830  -14.4490   20.7120 C.3   336  GLU336      0.1160
    220  CD        46.3570  -13.8360   21.3670 C.2   336  GLU336      0.3649
    221  OE1       45.6400  -13.0540   20.6980 O.co2 336  GLU336     -0.2457
    222  OE2       46.0940  -14.1180   22.5540 O.co2 336  GLU336     -0.2457
    223  N         50.4240  -28.0500   22.3340 N.3   404  CYS404     -0.1235
    224  CA        49.4580  -28.9260   22.9790 C.3   404  CYS404      0.1677
    225  C         50.0670  -30.2100   23.5580 C.2   404  CYS404      0.2270
    226  O         50.5690  -31.0670   22.8240 O.2   404  CYS404     -0.2867
    227  CB        48.3450  -29.2680   21.9760 C.3   404  CYS404      0.0956
    228  SG        46.9640  -30.1750   22.7120 S.3   404  CYS404     -0.0801
    229  N         32.9050  -16.3080   20.4300 N.3   443  GLY443     -0.1210
    230  CA        34.0860  -16.5990   21.2350 C.3   443  GLY443      0.1956
    231  C         35.0180  -17.6180   20.6280 C.2   443  GLY443      0.2611
    232  O         35.8170  -17.2840   19.7440 O.2   443  GLY443     -0.2717
    233  N         34.9180  -18.8530   21.1300 N.am  444  LEU444     -0.1979
    234  CA        35.6690  -19.9920   20.6090 C.3   444  LEU444      0.1596
    235  C         35.1720  -20.3960   19.2190 C.2   444  LEU444      0.2287
    236  O         34.2210  -19.8180   18.6920 O.2   444  LEU444     -0.2864
    237  CB        35.5590  -21.1930   21.5620 C.3   444  LEU444      0.0297
    238  CG        36.7000  -21.5180   22.5290 C.3   444  LEU444      0.0022
    239  CD1       36.7950  -20.5000   23.6630 C.3   444  LEU444      0.0001
    240  CD2       36.5100  -22.9250   23.0800 C.3   444  LEU444      0.0001
@<TRIPOS>BOND
     1    16    15    2
     2    15    14    1
     3    13    14    1
     4    14    17    1
     5   198   197    2
     6   202   201    1
     7     1     2    1
     8     3     4    2
     9     3     2    1
    10     2     5    1
    11   213   211    1
    12   197   196    1
    13   197   203   am
    14   196   199    1
    15   196   195    1
    16   199   200    1
    17    17    18    1
    18   210   211    2
    19   210   209    1
    20   193   192    2
    21   182   183    1
    22   200   201    1
    23   208   209    1
    24   208   207    1
    25     8    10   ar
    26     8     6   ar
    27    19    18   ar
    28    19    21   ar
    29    18    20   ar
    30   211   212    1
    31   203   204    1
    32    10    11   ar
    33   204   207    1
    34   204   205    1
    35     5     6    1
    36   195   192   am
    37    21    23   ar
    38   192   191    1
    39    20    22   ar
    40     6     7   ar
    41   183   184    1
    42   183   186    1
    43    23    22   ar
    44   205   206    2
    45    11    12    1
    46    11     9   ar
    47   190   184   am
    48   190   191    1
    49   188   186    1
    50   184   185    2
    51   191   194    1
    52     7     9   ar
    53   186   187    1
    54   236   235    2
    55   187   189    1
    56   122   120   ar
    57   122   124   ar
    58   235   234    1
    59   120   119   ar
    60   232   231    2
    61    30    29   ar
    62   124   123   ar
    63   178   177    2
    64   229   230    1
    65   214   215    1
    66   234   233    1
    67   234   237    1
    68    24    25    1
    69   231   233   am
    70   231   230    1
    71   119   118    1
    72   119   121   ar
    73   221   220   ar
    74   219   220    1
    75   219   218    1
    76    29    31   ar
    77    29    28    1
    78   118   115    1
    79   215   218    1
    80   215   216    1
    81   123   121   ar
    82   181   179    1
    83   177   176    1
    84   220   222   ar
    85    25    28    1
    86    25    26    1
    87   237   238    1
    88    53    51    1
    89   227   228    1
    90   227   224    1
    91   216   217    2
    92   176   179    1
    93   176   175    1
    94   179   180    1
    95   223   224    1
    96   115   116    1
    97   115   114    1
    98   238   240    1
    99   238   239    1
   100    26    27    2
   101   116   117    2
   102   226   225    2
   103    51    52    1
   104    51    50    2
   105   224   225    1
   106   112   110   ar
   107   112   113   ar
   108    50    49    1
   109   131   129    1
   110   110   108   ar
   111   106   105    2
   112   113   111   ar
   113   173   172    2
   114    41    40    1
   115    39    40    2
   116    39    38    1
   117   105   104    1
   118    49    48    1
   119   108   107    1
   120   108   109   ar
   121   129   130    1
   122   129   126    1
   123    37    38    1
   124    37    36    1
   125    40    42    1
   126    47    48    1
   127    47    44    1
   128   128   127    2
   129   111   109   ar
   130   107   104    1
   131   172   171    1
   132   127   126    1
   133    43    44    1
   134    43    34   am
   135   104   103    1
   136    33    36    1
   137    33    34    1
   138    33    32    1
   139   126   125    1
   140   171   174    1
   141   171   170    1
   142   168   169   ar
   143   168   166   ar
   144   169   167   ar
   145    44    45    1
   146    34    35    2
   147   162   161    2
   148   166   164   ar
   149   167   165   ar
   150   170   161   am
   151    98    97    2
   152   161   160    1
   153    45    46    2
   154   101   100    1
   155   164   165   ar
   156   164   163    1
   157    97    96    1
   158    58    55    1
   159    58    59    1
   160   102   100    1
   161    99   100    1
   162    99    96    1
   163    77    74    1
   164    77    78    1
   165    76    75    2
   166   160   163    1
   167   160   159    1
   168    55    54    1
   169    55    56    1
   170    59    60   ar
   171    59    61   ar
   172    60    62   ar
   173    96    95    1
   174    74    75    1
   175    74    73    1
   176    57    56    2
   177   154   153    2
   178    75    79   am
   179    95    89   am
   180    62    64   ar
   181    61    63   ar
   182   157   155    1
   183    64    63   ar
   184   153   152    1
   185    79    80    1
   186    89    88    1
   187    89    90    2
   188    80    81    1
   189    80    83    1
   190    87    88    1
   191    84    83    1
   192    84    86    1
   193   158   156    1
   194   155   152    1
   195   155   156    1
   196   152   151    1
   197    91    88    1
   198    91    92    1
   199    94    92    1
   200   141   142   ar
   201   141   139   ar
   202    81    82    2
   203    92    93    1
   204    83    85    1
   205   146   145    2
   206   142   140   ar
   207   139   137   ar
   208   151   145   am
   209   145   144    1
   210   140   138   ar
   211   137   138   ar
   212   137   136    1
   213   149   147    1
   214   144   147    1
   215   144   143    1
   216   132   133    1
   217   133   136    1
   218   133   134    1
   219    72    71    1
   220   147   148    1
   221    68    67    2
   222   134   135    2
   223    71    70    1
   224    69    70    1
   225    69    66    1
   226   148   150    1
   227    67    66    1
   228    66    65    1
