@<TRIPOS>MOLECULE
tmp/4k9xA01.pdb
 213 202 0 0 0
SMALL
GASTEIGER

@<TRIPOS>ATOM
      1  N          9.8960   14.1590   22.4320 N.3    29  PHE29      -0.1241
      2  CA        10.9920   13.2100   22.5040 C.3    29  PHE29       0.1605
      3  C         12.3190   13.7340   23.0030 C.2    29  PHE29       0.2264
      4  O         13.3540   13.0570   22.9180 O.2    29  PHE29      -0.2867
      5  CB        11.1270   12.3500   21.2430 C.3    29  PHE29       0.0534
      6  CG        11.6440   13.0570   20.0190 C.ar   29  PHE29      -0.0203
      7  CD1       12.7520   13.8900   20.0680 C.ar   29  PHE29      -0.0042
      8  CD2       11.0630   12.7840   18.7760 C.ar   29  PHE29      -0.0042
      9  CE1       13.2310   14.4950   18.9160 C.ar   29  PHE29      -0.0003
     10  CE2       11.5380   13.3770   17.6210 C.ar   29  PHE29      -0.0003
     11  CZ        12.6240   14.2400   17.6920 C.ar   29  PHE29      -0.0000
     12  N         22.2280    9.6330    7.1570 N.3    77  ARG77      -0.1231
     13  CA        21.2280    9.8760    8.1830 C.3    77  ARG77       0.1694
     14  C         20.1050    8.9240    7.8890 C.2    77  ARG77       0.2591
     15  O         20.1430    8.2300    6.8780 O.2    77  ARG77      -0.2718
     16  CB        20.7580   11.3170    8.1450 C.3    77  ARG77       0.0321
     17  CG        21.8820   12.2980    8.3920 C.3    77  ARG77       0.0489
     18  CD        21.4140   13.6930    8.7850 C.3    77  ARG77       0.2205
     19  NE        22.5640   14.5230    9.1650 N.pl3  77  ARG77      -0.0865
     20  CZ        23.2690   15.2450    8.3050 C.cat  77  ARG77       0.5346
     21  NH1       24.2910   15.9720    8.7190 N.pl3  77  ARG77       0.1354
     22  NH2       22.9270   15.2480    7.0230 N.pl3  77  ARG77       0.1354
     23  N         19.1060    8.8870    8.7640 N.am   78  ARG78      -0.1980
     24  CA        17.9600    8.0040    8.5810 C.3    78  ARG78       0.1597
     25  C         17.4270    8.0820    7.1540 C.2    78  ARG78       0.2287
     26  O         17.7270    9.0230    6.4200 O.2    78  ARG78      -0.2864
     27  CB        16.8510    8.3520    9.5760 C.3    78  ARG78       0.0334
     28  CG        15.9880    7.1680    9.9820 C.3    78  ARG78       0.0492
     29  CD        14.8730    7.5940   10.9230 C.3    78  ARG78       0.2205
     30  NE        15.3660    7.8550   12.2730 N.pl3  78  ARG78      -0.0865
     31  CZ        14.8560    7.3100   13.3720 C.cat  78  ARG78       0.5346
     32  NH1       13.8330    6.4710   13.2860 N.pl3  78  ARG78       0.1354
     33  NH2       15.3680    7.6050   14.5600 N.pl3  78  ARG78       0.1354
     34  N         14.7930    8.9670    6.1910 N.3    80  PHE80      -0.1241
     35  CA        13.7270    9.9610    6.1500 C.3    80  PHE80       0.1605
     36  C         12.4560    9.3810    5.5380 C.2    80  PHE80       0.2264
     37  O         12.2240    8.1740    5.5930 O.2    80  PHE80      -0.2867
     38  CB        14.1750   11.1940    5.3630 C.3    80  PHE80       0.0534
     39  CG        13.3520   12.4200    5.6400 C.ar   80  PHE80      -0.0203
     40  CD1       13.7240   13.3110    6.6330 C.ar   80  PHE80      -0.0042
     41  CD2       12.2070   12.6820    4.9060 C.ar   80  PHE80      -0.0042
     42  CE1       12.9700   14.4400    6.8900 C.ar   80  PHE80      -0.0003
     43  CE2       11.4480   13.8090    5.1570 C.ar   80  PHE80      -0.0003
     44  CZ        11.8300   14.6900    6.1510 C.ar   80  PHE80      -0.0000
     45  N         14.0560   16.0490   -3.9040 N.3    86  MET86      -0.1245
     46  CA        14.9230   16.4260   -2.7890 C.3    86  MET86       0.1570
     47  C         15.8260   15.2750   -2.3990 C.2    86  MET86       0.2261
     48  O         16.6120   15.3930   -1.4640 O.2    86  MET86      -0.2867
     49  CB        14.1290   16.8770   -1.5600 C.3    86  MET86       0.0387
     50  CG        13.3630   18.1710   -1.7290 C.3    86  MET86       0.0595
     51  SD        14.3710   19.6390   -2.0100 S.3    86  MET86      -0.1393
     52  CE        15.1340   19.8740   -0.4020 C.3    86  MET86       0.0692
     53  N         21.8640   17.2200    2.6640 N.3    91  SER91      -0.1202
     54  CA        21.6000   16.6710    3.9970 C.3    91  SER91       0.2020
     55  C         20.8480   15.3370    3.9380 C.2    91  SER91       0.2618
     56  O         20.7800   14.6200    4.9300 O.2    91  SER91      -0.2717
     57  CB        20.8340   17.6770    4.8700 C.3    91  SER91       0.2103
     58  OG        19.6100   18.0940    4.2780 O.3    91  SER91      -0.2182
     59  N         20.3150   15.0060    2.7640 N.am   92  ILE92      -0.1979
     60  CA        19.4820   13.8360    2.5840 C.3    92  ILE92       0.1595
     61  C         20.2550   12.8120    1.7910 C.2    92  ILE92       0.2287
     62  O         20.0410   11.6280    1.9500 O.2    92  ILE92      -0.2864
     63  CB        18.1670   14.2060    1.8520 C.3    92  ILE92       0.0276
     64  CG1       17.2770   15.0660    2.7640 C.3    92  ILE92       0.0022
     65  CG2       17.4060   12.9680    1.3890 C.3    92  ILE92       0.0022
     66  CD1       16.1700   15.8190    2.0400 C.3    92  ILE92       0.0001
     67  N          6.6030   24.8020    4.7650 N.3   176  LEU176     -0.1231
     68  CA         7.3990   23.7550    4.1100 C.3   176  LEU176      0.1693
     69  C          7.1380   22.3550    4.6900 C.2   176  LEU176      0.2591
     70  O          6.2790   21.6290    4.1850 O.2   176  LEU176     -0.2718
     71  CB         8.9040   24.0950    4.1440 C.3   176  LEU176      0.0284
     72  CG         9.7950   23.8390    2.9150 C.3   176  LEU176      0.0019
     73  CD1       10.0220   25.1330    2.1500 C.3   176  LEU176      0.0001
     74  CD2       11.1420   23.2550    3.3030 C.3   176  LEU176      0.0001
     75  N          7.8570   21.9850    5.7500 N.am  177  LEU177     -0.1980
     76  CA         7.8060   20.6120    6.2520 C.3   177  LEU177      0.1596
     77  C          6.4720   20.2450    6.9270 C.2   177  LEU177      0.2287
     78  O          6.2210   20.5770    8.0900 O.2   177  LEU177     -0.2864
     79  CB         9.0090   20.3270    7.1610 C.3   177  LEU177      0.0297
     80  CG         9.4470   18.8730    7.3950 C.3   177  LEU177      0.0022
     81  CD1        8.7200   18.2520    8.5840 C.3   177  LEU177      0.0001
     82  CD2        9.3010   18.0160    6.1420 C.3   177  LEU177      0.0001
     83  N          3.4580   11.9000    9.9310 N.3   184  PHE184     -0.1241
     84  CA         4.8250   11.5080   10.1790 C.3   184  PHE184      0.1605
     85  C          4.7260   10.3130   11.1040 C.2   184  PHE184      0.2264
     86  O          5.5200    9.3920   11.0340 O.2   184  PHE184     -0.2867
     87  CB         5.7410   12.5970   10.7150 C.3   184  PHE184      0.0534
     88  CG         6.0660   13.6380    9.6910 C.ar  184  PHE184     -0.0203
     89  CD1        7.1340   13.4620    8.8190 C.ar  184  PHE184     -0.0042
     90  CD2        5.2680   14.7740    9.5580 C.ar  184  PHE184     -0.0042
     91  CE1        7.4210   14.4150    7.8550 C.ar  184  PHE184     -0.0003
     92  CE2        5.5480   15.7330    8.5970 C.ar  184  PHE184     -0.0003
     93  CZ         6.6250   15.5510    7.7430 C.ar  184  PHE184     -0.0000
     94  N          4.4370    7.3930    9.1230 N.3   187  ILE187     -0.1231
     95  CA         5.7120    7.0290    8.4780 C.3   187  ILE187      0.1692
     96  C          6.8720    6.7810    9.4370 C.2   187  ILE187      0.2592
     97  O          7.5210    5.7390    9.3200 O.2   187  ILE187     -0.2718
     98  CB         6.1840    7.9880    7.3540 C.3   187  ILE187      0.0266
     99  CG1        6.2870    9.4340    7.8410 C.3   187  ILE187      0.0019
    100  CG2        5.2900    7.8690    6.1320 C.3   187  ILE187      0.0020
    101  CD1        7.6520   10.0620    7.6180 C.3   187  ILE187      0.0001
    102  N          7.1500    7.7260   10.3540 N.am  188  THR188     -0.1953
    103  CA         8.1710    7.5380   11.4110 C.3   188  THR188      0.1897
    104  C          7.9470    6.1570   11.9960 C.2   188  THR188      0.2313
    105  O          8.8630    5.3420   12.0620 O.2   188  THR188     -0.2863
    106  CB         8.0770    8.5780   12.5610 C.3   188  THR188      0.1794
    107  OG1        7.7930    9.8850   12.0410 O.3   188  THR188     -0.2208
    108  CG2        9.3760    8.6220   13.3670 C.3   188  THR188      0.0378
    109  N          7.0240   18.0350    1.6940 N.3   205  PHE205     -0.1241
    110  CA         6.8550   19.4460    1.3290 C.3   205  PHE205      0.1605
    111  C          5.6890   19.5930    0.3520 C.2   205  PHE205      0.2264
    112  O          5.6910   18.9540   -0.7040 O.2   205  PHE205     -0.2867
    113  CB         8.1290   20.0070    0.6680 C.3   205  PHE205      0.0534
    114  CG         9.4120   19.4650    1.2400 C.ar  205  PHE205     -0.0203
    115  CD1       10.2160   18.6170    0.4880 C.ar  205  PHE205     -0.0042
    116  CD2        9.8190   19.8030    2.5300 C.ar  205  PHE205     -0.0042
    117  CE1       11.3980   18.1100    1.0110 C.ar  205  PHE205     -0.0003
    118  CE2       10.9990   19.2980    3.0580 C.ar  205  PHE205     -0.0003
    119  CZ        11.7920   18.4530    2.2980 C.ar  205  PHE205     -0.0000
    120  N         16.9870   24.9220   -1.9980 N.3   253  ILE253     -0.1231
    121  CA        15.9110   24.7720   -1.0150 C.3   253  ILE253      0.1692
    122  C         16.3970   24.4290    0.4040 C.2   253  ILE253      0.2591
    123  O         15.9100   25.0060    1.3780 O.2   253  ILE253     -0.2718
    124  CB        14.8190   23.8000   -1.4920 C.3   253  ILE253      0.0266
    125  CG1       14.1300   24.3660   -2.7350 C.3   253  ILE253      0.0019
    126  CG2       13.7850   23.6010   -0.4020 C.3   253  ILE253      0.0020
    127  CD1       13.1390   23.4280   -3.4020 C.3   253  ILE253      0.0001
    128  N         17.3580   23.5210    0.5380 N.am  254  ILE254     -0.1980
    129  CA        17.8910   23.2210    1.8760 C.3   254  ILE254      0.1595
    130  C         18.5510   24.4560    2.4800 C.2   254  ILE254      0.2287
    131  O         18.3730   24.7570    3.6550 O.2   254  ILE254     -0.2864
    132  CB        18.9220   22.0730    1.8770 C.3   254  ILE254      0.0276
    133  CG1       18.2440   20.7280    1.6110 C.3   254  ILE254      0.0022
    134  CG2       19.6520   22.0150    3.2130 C.3   254  ILE254      0.0022
    135  CD1       17.5670   20.0790    2.8080 C.3   254  ILE254      0.0001
    136  N         15.9320   27.0480    3.3750 N.3   257  PHE257     -0.1227
    137  CA        15.3110   26.6120    4.5790 C.3   257  PHE257      0.1736
    138  C         16.2620   26.7940    5.7710 C.2   257  PHE257      0.2595
    139  O         15.9920   27.6200    6.6360 O.2   257  PHE257     -0.2718
    140  CB        14.8650   25.1770    4.4520 C.3   257  PHE257      0.0547
    141  CG        14.2630   24.6490    5.6960 C.ar  257  PHE257     -0.0202
    142  CD1       12.9850   25.0550    6.0900 C.ar  257  PHE257     -0.0042
    143  CD2       14.9680   23.7710    6.4980 C.ar  257  PHE257     -0.0042
    144  CE1       12.4050   24.5730    7.2620 C.ar  257  PHE257     -0.0003
    145  CE2       14.3960   23.2750    7.6710 C.ar  257  PHE257     -0.0003
    146  CZ        13.1140   23.6780    8.0550 C.ar  257  PHE257     -0.0000
    147  N         17.3650   26.0410    5.8220 N.am  258  ALA258     -0.1980
    148  CA        18.3300   26.1640    6.9180 C.3   258  ALA258      0.1597
    149  C         18.4880   27.6140    7.3890 C.2   258  ALA258      0.2287
    150  O         18.1390   27.9550    8.5170 O.2   258  ALA258     -0.2864
    151  CB        19.6820   25.5960    6.5140 C.3   258  ALA258      0.0319
    152  N         16.2250   28.0540   11.0340 N.3   262  THR262     -0.1218
    153  CA        17.0600   27.8440   12.2080 C.3   262  THR262      0.1862
    154  C         17.5480   29.1780   12.7640 C.2   262  THR262      0.2287
    155  O         17.3560   29.4660   13.9420 O.2   262  THR262     -0.2866
    156  CB        18.2490   26.9170   11.8960 C.3   262  THR262      0.1770
    157  OG1       19.0450   27.4870   10.8470 O.3   262  THR262     -0.2211
    158  CG2       17.7510   25.5560   11.4630 C.3   262  THR262      0.0375
    159  N         18.6900   23.1420   18.2840 N.3   322  ILE322     -0.1231
    160  CA        17.5000   22.9730   17.4620 C.3   322  ILE322      0.1692
    161  C         17.4000   21.6230   16.7270 C.2   322  ILE322      0.2591
    162  O         16.3760   21.3220   16.1350 O.2   322  ILE322     -0.2718
    163  CB        17.2590   24.2090   16.5440 C.3   322  ILE322      0.0266
    164  CG1       18.5330   24.6170   15.8040 C.3   322  ILE322      0.0019
    165  CG2       16.7360   25.4020   17.3600 C.3   322  ILE322      0.0020
    166  CD1       18.8450   23.7260   14.6220 C.3   322  ILE322      0.0001
    167  N         18.4410   20.7990   16.8220 N.am  323  ALA323     -0.1980
    168  CA        18.4390   19.4690   16.2140 C.3   323  ALA323      0.1597
    169  C         17.9260   18.3110   17.1090 C.2   323  ALA323      0.2287
    170  O         17.4840   17.2790   16.5640 O.2   323  ALA323     -0.2864
    171  CB        19.8120   19.1390   15.6470 C.3   323  ALA323      0.0319
    172  N         18.6300   15.6190   18.3030 N.3   325  ARG325     -0.1231
    173  CA        19.2880   14.3340   18.1120 C.3   325  ARG325      0.1694
    174  C         20.1440   14.4220   16.8590 C.2   325  ARG325      0.2592
    175  O         19.6770   14.9730   15.8630 O.2   325  ARG325     -0.2718
    176  CB        18.2120   13.2890   17.8120 C.3   325  ARG325      0.0321
    177  CG        17.3240   12.9200   18.9580 C.3   325  ARG325      0.0489
    178  CD        16.3020   11.8950   18.5290 C.3   325  ARG325      0.2205
    179  NE        15.6070   11.3730   19.6950 N.pl3 325  ARG325     -0.0865
    180  CZ        14.6540   10.4540   19.6560 C.cat 325  ARG325      0.5346
    181  NH1       14.2780    9.9600   18.4760 N.pl3 325  ARG325      0.1354
    182  NH2       14.0810   10.0240   20.7930 N.pl3 325  ARG325      0.1354
    183  N         21.3730   13.9040   16.9110 N.am  326  LEU326     -0.1966
    184  CA        22.1200   13.5020   15.7070 C.3   326  LEU326      0.1728
    185  C         21.8990   11.9980   15.4180 C.2   326  LEU326      0.2616
    186  O         21.7740   11.1960   16.3370 O.2   326  LEU326     -0.2715
    187  CB        23.6180   13.7990   15.8480 C.3   326  LEU326      0.0311
    188  CG        23.9920   15.1400   16.4970 C.3   326  LEU326      0.0022
    189  CD1       25.4400   15.1500   16.9960 C.3   326  LEU326      0.0001
    190  CD2       23.7470   16.3280   15.5760 C.3   326  LEU326      0.0001
    191  N         21.8600   11.6300   14.1460 N.am  327  GLU327     -0.1977
    192  CA        21.6310   10.2580   13.7340 C.3   327  GLU327      0.1602
    193  C         22.6180    9.8030   12.6470 C.2   327  GLU327      0.2287
    194  O         23.0240   10.5990   11.7940 O.2   327  GLU327     -0.2864
    195  CB        20.1790   10.0770   13.2820 C.3   327  GLU327      0.0415
    196  CG        19.2100   10.0770   14.4680 C.3   327  GLU327      0.1163
    197  CD        17.7520    9.8090   14.1210 C.2   327  GLU327      0.3649
    198  OE1       16.9440    9.7170   15.0710 O.co2 327  GLU327     -0.2457
    199  OE2       17.3890    9.6980   12.9220 O.co2 327  GLU327     -0.2457
    200  N         27.6040   20.4210   10.5950 N.3   395  CYS395     -0.1235
    201  CA        26.8360   21.4870    9.9620 C.3   395  CYS395      0.1677
    202  C         27.7100   22.3420    9.0770 C.2   395  CYS395      0.2270
    203  O         28.5520   23.0950    9.5610 O.2   395  CYS395     -0.2867
    204  CB        26.1030   22.3860   10.9660 C.3   395  CYS395      0.0956
    205  SG        25.3050   23.8190   10.1530 S.3   395  CYS395     -0.0801
    206  N         11.7000   19.5040   15.3430 N.3   435  LEU435     -0.1245
    207  CA        12.7390   20.4800   15.7280 C.3   435  LEU435      0.1561
    208  C         12.2160   21.4810   16.7740 C.2   435  LEU435      0.2260
    209  O         11.0090   21.7730   16.8460 O.2   435  LEU435     -0.2867
    210  CB        13.3330   21.2200   14.5020 C.3   435  LEU435      0.0270
    211  CG        14.5400   20.6700   13.7060 C.3   435  LEU435      0.0019
    212  CD1       14.1360   19.6820   12.6170 C.3   435  LEU435      0.0001
    213  CD2       15.3580   21.8010   13.0900 C.3   435  LEU435      0.0001
@<TRIPOS>BOND
     1    45    46    1
     2   127   125    1
     3    46    47    1
     4    46    49    1
     5   125   124    1
     6    47    48    2
     7    51    50    1
     8    51    52    1
     9   120   121    1
    10    50    49    1
    11   124   121    1
    12   124   126    1
    13   121   122    1
    14   112   111    2
    15   111   110    1
    16   122   128   am
    17   122   123    2
    18   115   117   ar
    19   115   114   ar
    20   128   129    1
    21   113   114    1
    22   113   110    1
    23   117   119   ar
    24   114   116   ar
    25   110   109    1
    26    65    63    1
    27   133   132    1
    28   133   135    1
    29    61    62    2
    30    61    60    1
    31    63    60    1
    32    63    64    1
    33   129   132    1
    34   129   130    1
    35   132   134    1
    36    66    64    1
    37    73    72    1
    38   119   118   ar
    39   130   131    2
    40   116   118   ar
    41    60    59    1
    42    53    54    1
    43    59    55   am
    44    72    74    1
    45    72    71    1
    46   136   137    1
    47    55    54    1
    48    55    56    2
    49    54    57    1
    50    68    71    1
    51    68    69    1
    52    68    67    1
    53    70    69    2
    54    58    57    1
    55   140   137    1
    56   140   141    1
    57   137   138    1
    58    69    75   am
    59    41    43   ar
    60    41    39   ar
    61    43    44   ar
    62    38    39    1
    63    38    35    1
    64    36    37    2
    65    36    35    1
    66    39    40   ar
    67   141   142   ar
    68   141   143   ar
    69    75    76    1
    70   138   147   am
    71   138   139    2
    72   147   148    1
    73   142   144   ar
    74   100    98    1
    75    82    80    1
    76    35    34    1
    77    44    42   ar
    78    76    77    1
    79    76    79    1
    80    26    25    2
    81   143   145   ar
    82   151   148    1
    83    40    42   ar
    84    15    14    2
    85   148   149    1
    86    77    78    2
    87    22    20    1
    88    25    24    1
    89    12    13    1
    90    79    80    1
    91   144   146   ar
    92    98    99    1
    93    98    95    1
    94   149   150    2
    95    80    81    1
    96   101    99    1
    97   145   146   ar
    98    93    91   ar
    99    93    92   ar
   100    91    89   ar
   101    14    13    1
   102    14    23   am
   103    16    13    1
   104    16    17    1
   105    20    21    1
   106    20    19    2
   107    17    18    1
   108    95    94    1
   109    95    96    1
   110    24    23    1
   111    24    27    1
   112    92    90   ar
   113    18    19    1
   114    89    88   ar
   115   202   203    2
   116   202   201    1
   117    97    96    2
   118    96   102   am
   119    90    88   ar
   120    27    28    1
   121    88    87    1
   122    83    84    1
   123   201   200    1
   124   201   204    1
   125    28    29    1
   126   205   204    1
   127    84    87    1
   128    84    85    1
   129   102   103    1
   130   157   156    1
   131    29    30    1
   132    86    85    2
   133   152   153    1
   134   103   104    1
   135   103   106    1
   136   158   156    1
   137   194   193    2
   138   156   153    1
   139   104   105    2
   140   107   106    1
   141   153   154    1
   142    30    31    2
   143   106   108    1
   144   212   211    1
   145   193   192    1
   146   154   155    2
   147   199   197   ar
   148   213   211    1
   149   195   192    1
   150   195   196    1
   151    32    31    1
   152    31    33    1
   153   211   210    1
   154   192   191    1
   155   197   196    1
   156   197   198   ar
   157   191   185   am
   158   210   207    1
   159   166   164    1
   160   206   207    1
   161   185   184    1
   162   185   186    2
   163   190   188    1
   164   171   168    1
   165   184   187    1
   166   184   183    1
   167   207   208    1
   168   164   163    1
   169   187   188    1
   170   175   174    2
   171   162   161    2
   172   168   167    1
   173   168   169    1
   174   188   189    1
   175   163   165    1
   176   163   160    1
   177   170   169    2
   178   161   167   am
   179   161   160    1
   180   208   209    2
   181   174   183   am
   182   174   173    1
   183   160   159    1
   184    10    11   ar
   185    10     8   ar
   186    11     9   ar
   187   176   173    1
   188   176   177    1
   189   173   172    1
   190   181   180    1
   191   178   177    1
   192   178   179    1
   193     8     6   ar
   194     9     7   ar
   195   180   179    2
   196   180   182    1
   197     6     7   ar
   198     6     5    1
   199     5     2    1
   200     1     2    1
   201     2     3    1
   202     4     3    2
