@<TRIPOS>MOLECULE
tmp/4ka3A00.pdb
 150 145 0 0 0
SMALL
GASTEIGER

@<TRIPOS>ATOM
      1  N         23.0040  -35.0220   -1.3840 N.3   106  MET106     -0.1230
      2  CA        23.5490  -36.2510   -0.7030 C.3   106  MET106      0.1702
      3  C         23.4480  -36.2610    0.8790 C.2   106  MET106      0.2593
      4  O         24.1390  -37.0820    1.5380 O.2   106  MET106     -0.2718
      5  CB        25.0340  -36.5980   -1.1070 C.3   106  MET106      0.0401
      6  CG        25.5430  -36.5330   -2.5810 C.3   106  MET106      0.0596
      7  SD        26.3450  -38.1480   -2.8710 S.3   106  MET106     -0.1393
      8  CE        27.8880  -37.8230   -3.8400 C.3   106  MET106      0.0692
      9  N         22.6450  -35.3560    1.4710 N.am  107  GLY107     -0.1942
     10  CA        22.4240  -35.3980    2.9160 C.3   107  GLY107      0.2014
     11  C         23.6040  -35.0140    3.8530 C.2   107  GLY107      0.2638
     12  O         23.3480  -34.4400    4.9570 O.2   107  GLY107     -0.2714
     13  N         24.8650  -35.2700    3.4790 N.am  108  ALA108     -0.1977
     14  CA        25.9390  -35.0340    4.4440 C.3   108  ALA108      0.1597
     15  C         27.2170  -34.5740    3.8110 C.2   108  ALA108      0.2287
     16  O         27.5780  -35.0160    2.7320 O.2   108  ALA108     -0.2864
     17  CB        26.1890  -36.2740    5.2900 C.3   108  ALA108      0.0319
     18  N         30.6140  -33.1690    8.7640 N.3   112  ASN112     -0.1225
     19  CA        29.5660  -33.8300    9.5210 C.3   112  ASN112      0.1785
     20  C         29.7730  -35.3150    9.6230 C.2   112  ASN112      0.2597
     21  O         29.3340  -35.9290   10.5840 O.2   112  ASN112     -0.2718
     22  CB        28.2190  -33.6180    8.8590 C.3   112  ASN112      0.1169
     23  CG        27.8510  -32.1680    8.7460 C.2   112  ASN112      0.2627
     24  OD1       28.2400  -31.3400    9.5910 O.2   112  ASN112     -0.2716
     25  ND2       27.0910  -31.8360    7.6850 N.am  112  ASN112     -0.0877
     26  N         30.4030  -35.9040    8.6170 N.am  113  ILE113     -0.1980
     27  CA        30.6250  -37.3410    8.6170 C.3   113  ILE113      0.1595
     28  C         31.6380  -37.7110    9.6840 C.2   113  ILE113      0.2287
     29  O         31.3820  -38.5680   10.5280 O.2   113  ILE113     -0.2864
     30  CB        31.0590  -37.8460    7.2350 C.3   113  ILE113      0.0276
     31  CG1       29.8440  -37.9360    6.3300 C.3   113  ILE113      0.0022
     32  CG2       31.6810  -39.2280    7.3240 C.3   113  ILE113      0.0022
     33  CD1       28.7370  -38.7410    6.9560 C.3   113  ILE113      0.0001
     34  N         30.4830  -37.6940   13.4920 N.3   116  CYS116     -0.1221
     35  CA        29.7650  -38.7490   14.2020 C.3   116  CYS116      0.1808
     36  C         30.2160  -40.1960   13.9370 C.2   116  CYS116      0.2601
     37  O         29.5280  -41.1400   14.3150 O.2   116  CYS116     -0.2717
     38  CB        28.2600  -38.6090   13.9940 C.3   116  CYS116      0.0970
     39  SG        27.7310  -38.7140   12.2830 S.3   116  CYS116     -0.0800
     40  N         31.3610  -40.3820   13.3000 N.am  117  GLN117     -0.1979
     41  CA        31.9640  -41.6950   13.2870 C.3   117  GLN117      0.1601
     42  C         33.4170  -41.5800   12.9590 C.2   117  GLN117      0.2287
     43  O         33.8780  -40.5470   12.4880 O.2   117  GLN117     -0.2864
     44  CB        31.2960  -42.6200   12.2800 C.3   117  GLN117      0.0394
     45  CG        31.5740  -42.2940   10.8260 C.3   117  GLN117      0.0908
     46  CD        30.3000  -42.0760   10.0580 C.2   117  GLN117      0.2608
     47  OE1       29.8740  -42.9340    9.2920 O.2   117  GLN117     -0.2717
     48  NE2       29.7070  -40.9140   10.2260 N.am  117  GLN117     -0.0878
     49  N         36.5220  -43.0100   10.6100 N.3   119  LEU119     -0.1231
     50  CA        36.6670  -43.6110    9.2950 C.3   119  LEU119      0.1693
     51  C         37.7650  -44.6700    9.2680 C.2   119  LEU119      0.2592
     52  O         38.8740  -44.4240    9.7270 O.2   119  LEU119     -0.2718
     53  CB        36.9250  -42.5260    8.2410 C.3   119  LEU119      0.0284
     54  CG        35.7330  -41.6670    7.7810 C.3   119  LEU119      0.0019
     55  CD1       35.1260  -40.8610    8.9160 C.3   119  LEU119      0.0001
     56  CD2       36.1960  -40.7250    6.7250 C.3   119  LEU119      0.0001
     57  N         37.4410  -45.8500    8.7380 N.am  120  THR120     -0.1953
     58  CA        38.4210  -46.9160    8.5300 C.3   120  THR120      0.1897
     59  C         39.3570  -46.4880    7.4290 C.2   120  THR120      0.2313
     60  O         39.0150  -45.6040    6.6550 O.2   120  THR120     -0.2863
     61  CB        37.7470  -48.2500    8.1140 C.3   120  THR120      0.1794
     62  OG1       37.2120  -48.1520    6.7780 O.3   120  THR120     -0.2208
     63  CG2       36.6460  -48.6130    9.1130 C.3   120  THR120      0.0378
     64  N         39.9040  -48.0120    4.9220 N.3   122  ASP122     -0.1225
     65  CA        39.1350  -48.3020    3.7170 C.3   122  ASP122      0.1805
     66  C         38.2860  -47.1180    3.2700 C.2   122  ASP122      0.2597
     67  O         38.2450  -46.8040    2.0910 O.2   122  ASP122     -0.2718
     68  CB        38.2610  -49.5320    3.9230 C.3   122  ASP122      0.1424
     69  CG        39.0520  -50.8220    3.8700 C.2   122  ASP122      0.3668
     70  OD1       40.1550  -50.8320    3.2800 O.co2 122  ASP122     -0.2456
     71  OD2       38.5640  -51.8330    4.4070 O.co2 122  ASP122     -0.2456
     72  N         37.6160  -46.4720    4.2240 N.am  123  HIS123     -0.1975
     73  CA        36.7940  -45.3040    3.9400 C.3   123  HIS123      0.1656
     74  C         37.6400  -44.1870    3.3910 C.2   123  HIS123      0.2291
     75  O         37.2070  -43.4600    2.5140 O.2   123  HIS123     -0.2864
     76  CB        36.0910  -44.7920    5.2000 C.3   123  HIS123      0.0771
     77  CG        35.0290  -45.7070    5.7230 C.ar  123  HIS123      0.0820
     78  ND1       34.9650  -46.0860    7.0450 N.ar  123  HIS123     -0.2267
     79  CD2       33.9840  -46.3070    5.1100 C.ar  123  HIS123      0.1154
     80  CE1       33.9290  -46.8860    7.2230 C.ar  123  HIS123      0.1986
     81  NE2       33.3170  -47.0380    6.0630 N.ar  123  HIS123     -0.2212
     82  N         38.7500  -44.7230   -0.2740 N.3   126  PHE126     -0.1227
     83  CA        37.6580  -44.5910   -1.2030 C.3   126  PHE126      0.1736
     84  C         37.2800  -43.1250   -1.3880 C.2   126  PHE126      0.2595
     85  O         37.0070  -42.6650   -2.5140 O.2   126  PHE126     -0.2718
     86  CB        36.4690  -45.4170   -0.7330 C.3   126  PHE126      0.0547
     87  CG        35.3580  -45.4590   -1.7100 C.ar  126  PHE126     -0.0202
     88  CD1       35.6200  -45.6070   -3.0690 C.ar  126  PHE126     -0.0042
     89  CD2       34.0460  -45.3460   -1.2880 C.ar  126  PHE126     -0.0042
     90  CE1       34.5800  -45.6370   -3.9980 C.ar  126  PHE126     -0.0003
     91  CE2       32.9950  -45.3840   -2.2010 C.ar  126  PHE126     -0.0003
     92  CZ        33.2660  -45.5240   -3.5690 C.ar  126  PHE126     -0.0000
     93  N         37.2970  -42.3830   -0.2880 N.am  127  LEU127     -0.1980
     94  CA        36.9450  -40.9810   -0.3510 C.3   127  LEU127      0.1596
     95  C         37.9430  -40.2060   -1.1910 C.2   127  LEU127      0.2287
     96  O         37.5600  -39.5380   -2.1360 O.2   127  LEU127     -0.2864
     97  CB        36.8070  -40.3920    1.0460 C.3   127  LEU127      0.0297
     98  CG        35.5730  -40.9060    1.7910 C.3   127  LEU127      0.0022
     99  CD1       35.6090  -40.4740    3.2300 C.3   127  LEU127      0.0001
    100  CD2       34.3080  -40.4240    1.1560 C.3   127  LEU127      0.0001
    101  N         28.9380  -36.5210    0.9570 N.3   155  VAL155     -0.1231
    102  CA        29.1260  -37.9580    1.0300 C.3   155  VAL155      0.1692
    103  C         27.8040  -38.6210    1.4250 C.2   155  VAL155      0.2592
    104  O         27.0220  -38.0430    2.1900 O.2   155  VAL155     -0.2718
    105  CB        30.2140  -38.3210    2.0730 C.3   155  VAL155      0.0266
    106  CG1       30.4810  -39.7990    2.0520 C.3   155  VAL155      0.0020
    107  CG2       31.5080  -37.5590    1.8160 C.3   155  VAL155      0.0020
    108  N         27.5500  -39.8230    0.9050 N.am  156  ASN156     -0.1960
    109  CA        26.3160  -40.5230    1.2410 C.3   156  ASN156      0.1819
    110  C         26.4780  -41.8020    2.0900 C.2   156  ASN156      0.2621
    111  O         27.5390  -42.0450    2.6570 O.2   156  ASN156     -0.2715
    112  CB        25.4450  -40.7450   -0.0060 C.3   156  ASN156      0.1195
    113  CG        26.0090  -41.7730   -0.9420 C.2   156  ASN156      0.2630
    114  OD1       26.9330  -42.5090   -0.6070 O.2   156  ASN156     -0.2716
    115  ND2       25.4380  -41.8450   -2.1300 N.am  156  ASN156     -0.0877
    116  N         25.4070  -42.5870    2.1800 N.am  157  GLU157     -0.1963
    117  CA        25.3550  -43.7810    3.0190 C.3   157  GLU157      0.1733
    118  C         26.3590  -44.7970    2.5750 C.2   157  GLU157      0.2616
    119  O         26.8030  -45.6280    3.3560 O.2   157  GLU157     -0.2715
    120  CB        23.9850  -44.4420    2.9070 C.3   157  GLU157      0.0429
    121  CG        23.1060  -44.2890    4.1180 C.3   157  GLU157      0.1163
    122  CD        21.9360  -43.3720    3.8480 C.2   157  GLU157      0.3649
    123  OE1       21.1630  -43.0970    4.7940 O.co2 157  GLU157     -0.2457
    124  OE2       21.7970  -42.9270    2.6860 O.co2 157  GLU157     -0.2457
    125  N         26.6740  -44.7420    1.2900 N.am  158  ASP158     -0.1957
    126  CA        27.5170  -45.7400    0.6600 C.3   158  ASP158      0.1840
    127  C         28.9010  -45.1720    0.4620 C.2   158  ASP158      0.2622
    128  O         29.6980  -45.7210   -0.2980 O.2   158  ASP158     -0.2715
    129  CB        26.9380  -46.1540   -0.6940 C.3   158  ASP158      0.1450
    130  CG        25.4950  -46.6140   -0.5930 C.2   158  ASP158      0.3671
    131  OD1       25.1840  -47.4510    0.2940 O.co2 158  ASP158     -0.2456
    132  OD2       24.6680  -46.1340   -1.4030 O.co2 158  ASP158     -0.2456
    133  N         29.1670  -44.0450    1.1190 N.am  159  CYS159     -0.1968
    134  CA        30.4900  -43.4320    1.1000 C.3   159  CYS159      0.1712
    135  C         30.8430  -42.9420   -0.3270 C.2   159  CYS159      0.2296
    136  O         32.0080  -42.8280   -0.7070 O.2   159  CYS159     -0.2864
    137  CB        31.5090  -44.4400    1.6750 C.3   159  CYS159      0.0983
    138  SG        33.2000  -43.8640    1.9410 S.3   159  CYS159     -0.0798
    139  N         40.6540  -49.7080   -6.1460 N.3   297  TYR297     -0.1241
    140  CA        39.5860  -48.9170   -6.7640 C.3   297  TYR297      0.1605
    141  C         39.9730  -48.4510   -8.1530 C.2   297  TYR297      0.2264
    142  O         39.1170  -48.2120   -9.0010 O.2   297  TYR297     -0.2867
    143  CB        39.2070  -47.7060   -5.9090 C.3   297  TYR297      0.0534
    144  CG        38.6840  -48.0890   -4.5600 C.ar  297  TYR297     -0.0201
    145  CD1       37.4060  -48.6180   -4.4130 C.ar  297  TYR297     -0.0009
    146  CD2       39.4710  -47.9430   -3.4310 C.ar  297  TYR297     -0.0009
    147  CE1       36.9340  -48.9850   -3.1750 C.ar  297  TYR297      0.0417
    148  CE2       39.0080  -48.3080   -2.1960 C.ar  297  TYR297      0.0417
    149  CZ        37.7430  -48.8280   -2.0710 C.ar  297  TYR297      0.1957
    150  OH        37.3070  -49.1800   -0.8160 O.3   297  TYR297     -0.2866
@<TRIPOS>BOND
     1   142   141    2
     2   141   140    1
     3   140   139    1
     4   140   143    1
     5   143   144    1
     6   144   145   ar
     7   144   146   ar
     8   145   147   ar
     9    90    92   ar
    10    90    88   ar
    11     8     7    1
    12    92    91   ar
    13   146   148   ar
    14   147   149   ar
    15    88    87   ar
    16     7     6    1
    17     6     5    1
    18    85    84    2
    19    91    89   ar
    20   148   149   ar
    21    96    95    2
    22   115   113   am
    23   149   150    1
    24    87    89   ar
    25    87    86    1
    26   132   130   ar
    27    84    83    1
    28    84    93   am
    29     1     2    1
    30    83    86    1
    31    83    82    1
    32    95    94    1
    33     5     2    1
    34   113   114    2
    35   113   112    1
    36   136   135    2
    37     2     3    1
    38   129   130    1
    39   129   126    1
    40   130   131   ar
    41    94    93    1
    42    94    97    1
    43   135   134    1
    44   128   127    2
    45   112   109    1
    46   127   126    1
    47   127   133   am
    48   126   125    1
    49     3     9   am
    50     3     4    2
    51   108   109    1
    52   108   103   am
    53   101   102    1
    54   102   103    1
    55   102   105    1
    56    97    98    1
    57   134   133    1
    58   134   137    1
    59   100    98    1
    60   109   110    1
    61   125   118   am
    62   103   104    2
    63     9    10    1
    64   137   138    1
    65    98    99    1
    66   107   105    1
    67   106   105    1
    68   110   116   am
    69   110   111    2
    70    67    66    2
    71   116   117    1
    72    75    74    2
    73   118   117    1
    74   118   119    2
    75   124   122   ar
    76    16    15    2
    77   120   117    1
    78   120   121    1
    79    10    11    1
    80    66    65    1
    81    66    72   am
    82    70    69   ar
    83    74    73    1
    84    13    11   am
    85    13    14    1
    86    65    68    1
    87    65    64    1
    88    15    14    1
    89   122   121    1
    90   122   123   ar
    91    11    12    2
    92    69    68    1
    93    69    71   ar
    94    73    72    1
    95    73    76    1
    96    14    17    1
    97    79    77   ar
    98    79    81   ar
    99    76    77    1
   100    77    78   ar
   101    81    80   ar
   102    31    33    1
   103    31    30    1
   104    60    59    2
   105    56    54    1
   106    62    61    1
   107    78    80   ar
   108    30    32    1
   109    30    27    1
   110    59    58    1
   111    25    23   am
   112    54    53    1
   113    54    55    1
   114    61    58    1
   115    61    63    1
   116    53    50    1
   117    58    57    1
   118    26    27    1
   119    26    20   am
   120    27    28    1
   121    57    51   am
   122    23    22    1
   123    23    24    2
   124    18    19    1
   125    22    19    1
   126    51    50    1
   127    51    52    2
   128    47    46    2
   129    50    49    1
   130    19    20    1
   131    20    21    2
   132    28    29    2
   133    46    48   am
   134    46    45    1
   135    45    44    1
   136    44    41    1
   137    39    38    1
   138    43    42    2
   139    42    41    1
   140    41    40    1
   141    40    36   am
   142    34    35    1
   143    36    35    1
   144    36    37    2
   145    38    35    1
