@<TRIPOS>MOLECULE
tmp/4kabA00.pdb
 83 74 0 0 0
SMALL
GASTEIGER

@<TRIPOS>ATOM
      1  N        -11.2800   31.8360  -48.0960 N.3    17  ILE17      -0.1245
      2  CA       -11.6910   30.4270  -48.0990 C.3    17  ILE17       0.1561
      3  C        -12.8100   30.1340  -47.0830 C.2    17  ILE17       0.2260
      4  O        -13.0510   28.9720  -46.7400 O.2    17  ILE17      -0.2867
      5  CB       -10.4640   29.5010  -47.8650 C.3    17  ILE17       0.0252
      6  CG1       -9.7920   29.7910  -46.4870 C.3    17  ILE17       0.0019
      7  CG2       -9.4790   29.5580  -49.0480 C.3    17  ILE17       0.0019
      8  CD1       -9.0670   28.6970  -45.8860 C.3    17  ILE17       0.0001
      9  N        -11.3610   34.0750  -43.1350 N.3    25  VAL25      -0.1245
     10  CA       -10.2840   33.1020  -43.1660 C.3    25  VAL25       0.1561
     11  C         -9.7740   33.0750  -44.6260 C.2    25  VAL25       0.2260
     12  O        -10.5620   33.0730  -45.5820 O.2    25  VAL25      -0.2867
     13  CB       -10.7110   31.7390  -42.6000 C.3    25  VAL25       0.0252
     14  CG1       -9.5410   30.7640  -42.5560 C.3    25  VAL25       0.0019
     15  CG2      -11.3010   31.9150  -41.2040 C.3    25  VAL25       0.0019
     16  N         -3.5230   28.7580  -43.7070 N.3    39  ALA39      -0.1245
     17  CA        -4.7970   29.4270  -43.4710 C.3    39  ALA39       0.1562
     18  C         -4.5150   30.6360  -42.5390 C.2    39  ALA39       0.2260
     19  O         -3.8560   30.4900  -41.5020 O.2    39  ALA39      -0.2867
     20  CB        -5.7920   28.4750  -42.8320 C.3    39  ALA39       0.0290
     21  N         -6.2310   33.3840  -40.2910 N.3    41  LYS41      -0.1245
     22  CA        -7.4650   33.8290  -39.6440 C.3    41  LYS41       0.1561
     23  C         -7.3230   35.3230  -39.3580 C.2    41  LYS41       0.2260
     24  O         -6.3340   35.7630  -38.7430 O.2    41  LYS41      -0.2867
     25  CB        -7.7720   33.0570  -38.3650 C.3    41  LYS41       0.0271
     26  CG        -8.0610   31.5880  -38.6020 C.3    41  LYS41       0.0035
     27  CD        -8.5680   30.8920  -37.3380 C.3    41  LYS41       0.0206
     28  CE       -10.0760   30.9340  -37.2210 C.3    41  LYS41       0.1093
     29  NZ       -10.6140   29.7730  -36.4690 N.3    41  LYS41      -0.1314
     30  N         -5.8950   20.4560  -36.0770 N.3    71  VAL71      -0.1245
     31  CA        -5.3150   21.4940  -36.9350 C.3    71  VAL71       0.1561
     32  C         -4.1000   22.1450  -36.2230 C.2    71  VAL71       0.2260
     33  O         -4.1920   22.5200  -35.0590 O.2    71  VAL71      -0.2867
     34  CB        -6.3960   22.5100  -37.4550 C.3    71  VAL71       0.0252
     35  CG1       -6.9570   23.3740  -36.3370 C.3    71  VAL71       0.0019
     36  CG2       -5.8720   23.3730  -38.6020 C.3    71  VAL71       0.0019
     37  N         -2.3670   29.1620  -39.4870 N.3    86  MET86      -0.1230
     38  CA        -2.6460   27.7510  -39.2640 C.3    86  MET86       0.1702
     39  C         -2.4280   26.8990  -40.4670 C.2    86  MET86       0.2592
     40  O         -2.4390   27.4020  -41.5820 O.2    86  MET86      -0.2718
     41  CB        -4.0820   27.5900  -38.8380 C.3    86  MET86       0.0401
     42  CG        -4.2620   27.8540  -37.4120 C.3    86  MET86       0.0596
     43  SD        -6.0040   28.0170  -37.1430 S.3    86  MET86      -0.1393
     44  CE        -5.9900   28.7700  -35.5620 C.3    86  MET86       0.0692
     45  N         -2.2800   25.5870  -40.2340 N.am   87  GLU87      -0.1966
     46  CA        -2.1760   24.5450  -41.2470 C.3    87  GLU87       0.1733
     47  C         -3.4510   24.6040  -42.0970 C.2    87  GLU87       0.2616
     48  O         -4.5550   24.7380  -41.5580 O.2    87  GLU87      -0.2715
     49  CB        -1.9990   23.1710  -40.5470 C.3    87  GLU87       0.0429
     50  CG        -2.8080   22.0120  -41.1170 C.3    87  GLU87       0.1163
     51  CD        -2.5850   20.6850  -40.4290 C.2    87  GLU87       0.3649
     52  OE1       -2.8300   20.5870  -39.2030 O.co2  87  GLU87      -0.2457
     53  OE2       -2.1810   19.7330  -41.1330 O.co2  87  GLU87      -0.2457
     54  N         -3.2780   24.5800  -43.4220 N.am   88  LEU88      -0.1963
     55  CA        -4.4010   24.6370  -44.3550 C.3    88  LEU88       0.1728
     56  C         -4.9880   23.2430  -44.6040 C.2    88  LEU88       0.2616
     57  O         -4.2470   22.2940  -44.8260 O.2    88  LEU88      -0.2715
     58  CB        -3.9790   25.3000  -45.6800 C.3    88  LEU88       0.0311
     59  CG        -5.0970   25.5450  -46.6960 C.3    88  LEU88       0.0022
     60  CD1       -5.9940   26.6960  -46.2500 C.3    88  LEU88       0.0001
     61  CD2       -4.5270   25.8070  -48.0630 C.3    88  LEU88       0.0001
     62  N         -6.3200   23.1200  -44.5220 N.am   89  CYS89      -0.1968
     63  CA        -7.0680   21.8900  -44.8180 C.3    89  CYS89       0.1712
     64  C         -7.8800   22.2600  -46.0370 C.2    89  CYS89       0.2296
     65  O         -8.9610   22.8530  -45.9170 O.2    89  CYS89      -0.2864
     66  CB        -7.9500   21.4850  -43.6460 C.3    89  CYS89       0.0983
     67  SG        -7.0400   21.2130  -42.1100 S.3    89  CYS89      -0.0798
     68  N        -11.8660   22.0960  -46.9210 N.3    92  GLY92      -0.1225
     69  CA       -12.8100   22.8510  -46.1030 C.3    92  GLY92       0.1811
     70  C        -13.6040   22.1060  -45.0420 C.2    92  GLY92       0.2280
     71  O        -13.1750   21.0560  -44.5360 O.2    92  GLY92      -0.2866
     72  N        -12.4980   19.8600  -40.1320 N.3   140  LEU140     -0.1245
     73  CA       -11.9670   20.2560  -41.4400 C.3   140  LEU140      0.1561
     74  C        -11.4060   19.0570  -42.2120 C.2   140  LEU140      0.2260
     75  O        -11.0210   18.0620  -41.6130 O.2   140  LEU140     -0.2867
     76  CB       -10.8790   21.3200  -41.2580 C.3   140  LEU140      0.0270
     77  CG       -11.3330   22.6600  -40.6970 C.3   140  LEU140      0.0019
     78  CD1      -10.1350   23.4300  -40.1350 C.3   140  LEU140      0.0001
     79  CD2      -12.0790   23.4590  -41.7400 C.3   140  LEU140      0.0001
     80  N        -10.8380   21.2370  -35.8580 N.3   150  GLY150     -0.1225
     81  CA       -10.3790   22.6020  -36.0550 C.3   150  GLY150      0.1811
     82  C        -10.7440   23.7600  -35.1460 C.2   150  GLY150      0.2280
     83  O        -10.1100   24.8230  -35.2760 O.2   150  GLY150     -0.2866
@<TRIPOS>BOND
     1     7     5    1
     2     2     1    1
     3     2     5    1
     4     2     3    1
     5    61    59    1
     6     5     6    1
     7     3     4    2
     8    68    69    1
     9    59    60    1
    10    59    58    1
    11     6     8    1
    12    69    70    1
    13    64    65    2
    14    64    63    1
    15    58    55    1
    16    12    11    2
    17    70    71    2
    18    57    56    2
    19    63    62    1
    20    63    66    1
    21    11    10    1
    22    56    62   am
    23    56    55    1
    24    55    54    1
    25    16    17    1
    26    66    67    1
    27    17    20    1
    28    17    18    1
    29    54    47   am
    30    10     9    1
    31    10    13    1
    32    13    14    1
    33    13    15    1
    34    18    19    2
    35    74    75    2
    36    74    73    1
    37    47    48    2
    38    47    46    1
    39    79    77    1
    40    40    39    2
    41    73    76    1
    42    73    72    1
    43    76    77    1
    44    46    49    1
    45    46    45    1
    46    53    51   ar
    47    50    49    1
    48    50    51    1
    49    77    78    1
    50    39    45   am
    51    39    38    1
    52    51    52   ar
    53    21    22    1
    54    22    23    1
    55    22    25    1
    56    37    38    1
    57    23    24    2
    58    38    41    1
    59    41    42    1
    60    36    34    1
    61    26    25    1
    62    26    27    1
    63    34    31    1
    64    34    35    1
    65    42    43    1
    66    27    28    1
    67    28    29    1
    68    43    44    1
    69    31    32    1
    70    31    30    1
    71    32    33    2
    72    81    80    1
    73    81    82    1
    74    83    82    2
