@<TRIPOS>MOLECULE
tmp/4kadA01.pdb
 104 93 0 0 0
SMALL
GASTEIGER

@<TRIPOS>ATOM
      1  N         59.1120   10.2030   47.4540 N.3   237  THR237     -0.1218
      2  CA        57.8600   10.4590   46.7530 C.3   237  THR237      0.1862
      3  C         57.1180    9.1500   46.4870 C.2   237  THR237      0.2287
      4  O         57.7330    8.0860   46.3440 O.2   237  THR237     -0.2866
      5  CB        58.0820   11.2400   45.4400 C.3   237  THR237      0.1770
      6  OG1       58.8820   10.4600   44.5470 O.3   237  THR237     -0.2211
      7  CG2       58.7930   12.5700   45.7170 C.3   237  THR237      0.0375
      8  N         54.1760    9.0750   44.1420 N.3   238  SER238     -0.1202
      9  CA        53.2210    9.3570   43.0620 C.3   238  SER238      0.2020
     10  C         51.9250   10.0100   43.5790 C.2   238  SER238      0.2618
     11  O         51.9810   11.0260   44.2940 O.2   238  SER238     -0.2717
     12  CB        52.9390    8.0860   42.2520 C.3   238  SER238      0.2103
     13  OG        54.1450    7.5230   41.7590 O.3   238  SER238     -0.2182
     14  N         50.7790    9.4150   43.2350 N.am  239  GLU239     -0.1979
     15  CA        49.4590    9.9210   43.6270 C.3   239  GLU239      0.1602
     16  C         49.2350    9.8360   45.1380 C.2   239  GLU239      0.2287
     17  O         48.2780   10.4120   45.6670 O.2   239  GLU239     -0.2864
     18  CB        48.3410    9.1790   42.8760 C.3   239  GLU239      0.0415
     19  CG        48.0590    7.7560   43.3490 C.3   239  GLU239      0.1163
     20  CD        48.8530    6.6920   42.6130 C.2   239  GLU239      0.3649
     21  OE1       49.8380    7.0220   41.9160 O.co2 239  GLU239     -0.2457
     22  OE2       48.4820    5.5060   42.7400 O.co2 239  GLU239     -0.2457
     23  N         51.3770   11.0070   47.2550 N.3   241  GLY241     -0.1225
     24  CA        52.0610   12.1590   47.8230 C.3   241  GLY241      0.1811
     25  C         53.5180   11.8760   48.1200 C.2   241  GLY241      0.2280
     26  O         54.2370   11.3440   47.2740 O.2   241  GLY241     -0.2866
     27  N         49.3690   14.4310   47.6640 N.3   255  ALA255     -0.1231
     28  CA        49.4400   14.8870   46.2770 C.3   255  ALA255      0.1694
     29  C         48.3590   15.9330   46.0770 C.2   255  ALA255      0.2591
     30  O         47.2980   15.8590   46.7040 O.2   255  ALA255     -0.2718
     31  CB        49.1910   13.7160   45.3500 C.3   255  ALA255      0.0304
     32  N         48.6220   16.9130   45.2200 N.am  256  ILE256     -0.1980
     33  CA        47.5900   17.8950   44.8760 C.3   256  ILE256      0.1595
     34  C         46.5720   17.2460   43.9450 C.2   256  ILE256      0.2287
     35  O         46.8730   16.2370   43.2900 O.2   256  ILE256     -0.2864
     36  CB        48.1630   19.1870   44.2370 C.3   256  ILE256      0.0276
     37  CG1       48.7280   18.9160   42.8290 C.3   256  ILE256      0.0022
     38  CG2       49.1970   19.8260   45.1590 C.3   256  ILE256      0.0022
     39  CD1       48.8850   20.1590   41.9810 C.3   256  ILE256      0.0001
     40  N         44.5680   16.8730   40.6530 N.3   258  ILE258     -0.1245
     41  CA        45.0530   16.9530   39.2790 C.3   258  ILE258      0.1561
     42  C         43.8550   16.8700   38.3360 C.2   258  ILE258      0.2260
     43  O         42.8670   16.1960   38.6370 O.2   258  ILE258     -0.2867
     44  CB        46.0230   15.7710   39.0120 C.3   258  ILE258      0.0252
     45  CG1       47.2800   15.8940   39.8810 C.3   258  ILE258      0.0019
     46  CG2       46.3880   15.6320   37.5390 C.3   258  ILE258      0.0019
     47  CD1       48.2940   16.9120   39.4080 C.3   258  ILE258      0.0001
     48  N         46.6480   13.3030   34.2250 N.3   261  VAL261     -0.1245
     49  CA        48.0730   13.0500   34.0120 C.3   261  VAL261      0.1561
     50  C         48.2980   13.0890   32.5090 C.2   261  VAL261      0.2260
     51  O         47.8750   12.1840   31.7830 O.2   261  VAL261     -0.2867
     52  CB        48.5110   11.6740   34.5640 C.3   261  VAL261      0.0252
     53  CG1       50.0070   11.4640   34.3650 C.3   261  VAL261      0.0019
     54  CG2       48.1440   11.5350   36.0350 C.3   261  VAL261      0.0019
     55  N         54.0710   12.4210   32.8060 N.3   264  THR264     -0.1218
     56  CA        54.8040   12.3990   34.0870 C.3   264  THR264      0.1862
     57  C         56.2560   12.8930   34.0250 C.2   264  THR264      0.2287
     58  O         56.9210   12.9610   35.0670 O.2   264  THR264     -0.2866
     59  CB        54.8160   10.9970   34.7380 C.3   264  THR264      0.1770
     60  OG1       55.4260   10.0490   33.8500 O.3   264  THR264     -0.2211
     61  CG2       53.4010   10.5290   35.0970 C.3   264  THR264      0.0375
     62  N         58.2810   14.9400   36.9420 N.3   267  ALA267     -0.1231
     63  CA        57.5610   14.9640   38.2490 C.3   267  ALA267      0.1694
     64  C         58.5260   14.9880   39.4300 C.2   267  ALA267      0.2592
     65  O         58.4550   15.8840   40.2740 O.2   267  ALA267     -0.2718
     66  CB        56.5900   13.8050   38.3930 C.3   267  ALA267      0.0304
     67  N         59.4230   14.0090   39.4750 N.am  268  GLY268     -0.1957
     68  CA        60.4410   13.9400   40.5160 C.3   268  GLY268      0.1869
     69  C         61.3850   15.1280   40.5220 C.2   268  GLY268      0.2309
     70  O         61.7250   15.6530   41.5800 O.2   268  GLY268     -0.2863
     71  N         59.3950   18.0210   41.9990 N.3   271  PHE271     -0.1241
     72  CA        59.3030   17.7680   43.4480 C.3   271  PHE271      0.1605
     73  C         60.5610   18.2800   44.1770 C.2   271  PHE271      0.2264
     74  O         60.4710   19.0200   45.1560 O.2   271  PHE271     -0.2867
     75  CB        59.0670   16.2990   43.7840 C.3   271  PHE271      0.0534
     76  CG        59.0130   16.0420   45.2680 C.ar  271  PHE271     -0.0203
     77  CD1       57.8120   16.1770   45.9630 C.ar  271  PHE271     -0.0042
     78  CD2       60.1690   15.7360   45.9850 C.ar  271  PHE271     -0.0042
     79  CE1       57.7630   15.9900   47.3310 C.ar  271  PHE271     -0.0003
     80  CE2       60.1200   15.5480   47.3620 C.ar  271  PHE271     -0.0003
     81  CZ        58.9170   15.6740   48.0260 C.ar  271  PHE271     -0.0000
     82  N         55.1610   18.7210   46.2210 N.3   293  CYS293     -0.1235
     83  CA        53.9720   18.1240   45.6080 C.3   293  CYS293      0.1677
     84  C         53.2540   19.0940   44.6650 C.2   293  CYS293      0.2270
     85  O         52.6790   18.6770   43.6630 O.2   293  CYS293     -0.2867
     86  CB        53.0220   17.5700   46.6710 C.3   293  CYS293      0.0956
     87  SG        53.7400   16.1690   47.5480 S.3   293  CYS293     -0.0801
     88  N         55.4880   19.3430   41.4400 N.3   296  ALA296     -0.1231
     89  CA        55.2870   18.0540   40.7590 C.3   296  ALA296      0.1694
     90  C         53.9030   17.9200   40.1010 C.2   296  ALA296      0.2592
     91  O         53.7910   17.5330   38.9340 O.2   296  ALA296     -0.2718
     92  CB        55.5470   16.8960   41.7030 C.3   296  ALA296      0.0304
     93  N         52.8610   18.2370   40.8640 N.am  297  GLY297     -0.1957
     94  CA        51.4890   18.2300   40.3750 C.3   297  GLY297      0.1869
     95  C         51.2620   19.0750   39.1360 C.2   297  GLY297      0.2309
     96  O         50.5240   18.6700   38.2390 O.2   297  GLY297     -0.2863
     97  N         53.1410   17.5820   35.7650 N.3   300  ILE300     -0.1245
     98  CA        52.5750   16.3580   35.1480 C.3   300  ILE300      0.1561
     99  C         51.2970   16.5930   34.3340 C.2   300  ILE300      0.2260
    100  O         50.8270   15.6950   33.6230 O.2   300  ILE300     -0.2867
    101  CB        52.3620   15.2020   36.1500 C.3   300  ILE300      0.0252
    102  CG1       51.1750   15.4830   37.0840 C.3   300  ILE300      0.0019
    103  CG2       53.6540   14.8830   36.8840 C.3   300  ILE300      0.0019
    104  CD1       50.8850   14.3500   38.0520 C.3   300  ILE300      0.0001
@<TRIPOS>BOND
     1    51    50    2
     2    50    49    1
     3    55    56    1
     4   100    99    2
     5    60    59    1
     6    49    48    1
     7    49    52    1
     8    57    56    1
     9    57    58    2
    10    56    59    1
    11    99    98    1
    12    53    52    1
    13    52    54    1
    14    59    61    1
    15    98    97    1
    16    98   101    1
    17   101   103    1
    18   101   102    1
    19    62    63    1
    20   102   104    1
    21    46    44    1
    22    96    95    2
    23    63    66    1
    24    63    64    1
    25    42    43    2
    26    42    41    1
    27    91    90    2
    28    44    41    1
    29    44    45    1
    30    95    94    1
    31    41    40    1
    32    47    45    1
    33    64    67   am
    34    64    65    2
    35    67    68    1
    36    90    89    1
    37    90    93   am
    38    94    93    1
    39    68    69    1
    40    69    70    2
    41    89    88    1
    42    89    92    1
    43    13    12    1
    44    21    20   ar
    45    39    37    1
    46    71    72    1
    47    12     9    1
    48    20    22   ar
    49    20    19    1
    50    37    36    1
    51    18    19    1
    52    18    15    1
    53     9    10    1
    54     9     8    1
    55    14    10   am
    56    14    15    1
    57    35    34    2
    58    72    75    1
    59    72    73    1
    60    10    11    2
    61    15    16    1
    62    85    84    2
    63    75    76    1
    64    34    33    1
    65    73    74    2
    66    36    33    1
    67    36    38    1
    68     6     5    1
    69    84    83    1
    70    33    32    1
    71    16    17    2
    72    32    29   am
    73    76    77   ar
    74    76    78   ar
    75    31    28    1
    76     5     7    1
    77     5     2    1
    78    83    82    1
    79    83    86    1
    80    77    79   ar
    81    78    80   ar
    82    29    28    1
    83    29    30    2
    84    28    27    1
    85     4     3    2
    86     3     2    1
    87    86    87    1
    88     2     1    1
    89    23    24    1
    90    26    25    2
    91    79    81   ar
    92    80    81   ar
    93    24    25    1
