@<TRIPOS>MOLECULE
tmp/4kaiB01.pdb
 156 151 0 0 0
SMALL
GASTEIGER

@<TRIPOS>ATOM
      1  N         -9.3040   38.1510  -26.5800 N.3   415  LEU415     -0.1245
      2  CA       -10.0990   37.6850  -27.7030 C.3   415  LEU415      0.1561
      3  C        -11.5710   38.0620  -27.5530 C.2   415  LEU415      0.2260
      4  O        -12.2040   38.5380  -28.4990 O.2   415  LEU415     -0.2867
      5  CB        -9.9720   36.1660  -27.7770 C.3   415  LEU415      0.0270
      6  CG       -10.8160   35.3930  -28.7730 C.3   415  LEU415      0.0019
      7  CD1      -10.4780   35.8390  -30.1760 C.3   415  LEU415      0.0001
      8  CD2      -10.5520   33.9070  -28.5970 C.3   415  LEU415      0.0001
      9  N        -12.4740   42.0070  -27.5170 N.3   418  ARG418     -0.1231
     10  CA       -12.3290   42.6020  -28.8480 C.3   418  ARG418      0.1694
     11  C        -13.4160   42.1410  -29.8120 C.2   418  ARG418      0.2591
     12  O        -14.0540   42.9600  -30.4700 O.2   418  ARG418     -0.2718
     13  CB       -10.9540   42.2810  -29.4390 C.3   418  ARG418      0.0321
     14  CG        -9.7960   42.9090  -28.6810 C.3   418  ARG418      0.0489
     15  CD        -8.4530   42.3480  -29.1280 C.3   418  ARG418      0.2205
     16  NE        -7.9880   42.9440  -30.3800 N.pl3 418  ARG418     -0.0865
     17  CZ        -7.0720   42.4130  -31.1900 C.cat 418  ARG418      0.5346
     18  NH1       -6.5070   41.2400  -30.9120 N.pl3 418  ARG418      0.1354
     19  NH2       -6.7220   43.0570  -32.2990 N.pl3 418  ARG418      0.1354
     20  N        -13.6260   40.8310  -29.9040 N.am  419  MET419     -0.1979
     21  CA       -14.5550   40.2950  -30.9060 C.3   419  MET419      0.1605
     22  C        -16.0220   40.5170  -30.5220 C.2   419  MET419      0.2287
     23  O        -16.8310   40.8460  -31.3830 O.2   419  MET419     -0.2864
     24  CB       -14.2770   38.8150  -31.1870 C.3   419  MET419      0.0413
     25  CG       -12.9320   38.5730  -31.8580 C.3   419  MET419      0.0598
     26  SD       -12.7020   36.9300  -32.5880 S.3   419  MET419     -0.1393
     27  CE       -14.0090   36.9110  -33.8150 C.3   419  MET419      0.0692
     28  N         -2.9660   41.7670  -31.6380 N.3   470  LEU470     -0.1231
     29  CA        -2.7920   40.4120  -31.1110 C.3   470  LEU470      0.1693
     30  C         -3.5340   39.3800  -31.9570 C.2   470  LEU470      0.2592
     31  O         -4.6620   39.6120  -32.4000 O.2   470  LEU470     -0.2718
     32  CB        -3.2600   40.3040  -29.6570 C.3   470  LEU470      0.0284
     33  CG        -2.4450   41.0430  -28.5960 C.3   470  LEU470      0.0019
     34  CD1       -2.8830   40.6300  -27.1990 C.3   470  LEU470      0.0001
     35  CD2       -0.9500   40.8010  -28.7850 C.3   470  LEU470      0.0001
     36  N         -2.8800   38.2450  -32.1760 N.am  471  HIS471     -0.1962
     37  CA        -3.4770   37.1180  -32.8820 C.3   471  HIS471      0.1787
     38  C         -2.7810   35.8340  -32.4230 C.2   471  HIS471      0.2621
     39  O         -1.8780   35.8830  -31.5770 O.2   471  HIS471     -0.2715
     40  CB        -3.3370   37.3090  -34.3960 C.3   471  HIS471      0.0785
     41  CG        -1.9220   37.2640  -34.8760 C.ar  471  HIS471      0.0821
     42  ND1       -1.3780   36.1530  -35.4810 N.ar  471  HIS471     -0.2267
     43  CD2       -0.9320   38.1860  -34.8220 C.ar  471  HIS471      0.1154
     44  CE1       -0.1150   36.3940  -35.7850 C.ar  471  HIS471      0.1986
     45  NE2        0.1800   37.6210  -35.3960 N.ar  471  HIS471     -0.2212
     46  N         -3.1950   34.6980  -32.9820 N.am  472  SER472     -0.1936
     47  CA        -2.6850   33.3920  -32.5690 C.3   472  SER472      0.2055
     48  C         -2.7960   33.2270  -31.0490 C.2   472  SER472      0.2643
     49  O         -1.8030   32.9870  -30.3570 O.2   472  SER472     -0.2714
     50  CB        -1.2370   33.1980  -33.0290 C.3   472  SER472      0.2130
     51  OG        -1.1240   33.3190  -34.4360 O.3   472  SER472     -0.2179
     52  N         -4.0150   33.3790  -30.5390 N.am  473  TYR473     -0.1973
     53  CA        -4.2910   33.1330  -29.1300 C.3   473  TYR473      0.1639
     54  C         -4.0870   31.6410  -28.8250 C.2   473  TYR473      0.2290
     55  O         -4.0380   30.8130  -29.7350 O.2   473  TYR473     -0.2864
     56  CB        -5.7190   33.5710  -28.7710 C.3   473  TYR473      0.0560
     57  CG        -5.9550   35.0770  -28.7840 C.ar  473  TYR473     -0.0198
     58  CD1       -5.8340   35.8310  -27.6160 C.ar  473  TYR473     -0.0009
     59  CD2       -6.3170   35.7440  -29.9530 C.ar  473  TYR473     -0.0009
     60  CE1       -6.0580   37.2100  -27.6110 C.ar  473  TYR473      0.0417
     61  CE2       -6.5450   37.1220  -29.9620 C.ar  473  TYR473      0.0417
     62  CZ        -6.4170   37.8510  -28.7900 C.ar  473  TYR473      0.1957
     63  OH        -6.6430   39.2150  -28.8070 O.3   473  TYR473     -0.2866
     64  N         -8.8770   29.9970  -26.2930 N.3   478  ILE478     -0.1245
     65  CA        -9.8850   29.8740  -27.3420 C.3   478  ILE478      0.1561
     66  C        -10.9910   28.9000  -26.9430 C.2   478  ILE478      0.2260
     67  O        -12.1760   29.2050  -27.1050 O.2   478  ILE478     -0.2867
     68  CB        -9.2700   29.4200  -28.6820 C.3   478  ILE478      0.0252
     69  CG1       -8.4100   30.5360  -29.2760 C.3   478  ILE478      0.0019
     70  CG2      -10.3680   29.0360  -29.6820 C.3   478  ILE478      0.0019
     71  CD1       -7.6910   30.1320  -30.5550 C.3   478  ILE478      0.0001
     72  N        -17.7600   32.9070  -32.5610 N.3   493  LEU493     -0.1231
     73  CA       -16.8190   33.9660  -32.9300 C.3   493  LEU493      0.1693
     74  C        -16.8550   34.3170  -34.4150 C.2   493  LEU493      0.2591
     75  O        -16.6210   35.4690  -34.7790 O.2   493  LEU493     -0.2718
     76  CB       -15.3900   33.5880  -32.5120 C.3   493  LEU493      0.0284
     77  CG       -15.1260   33.5300  -31.0020 C.3   493  LEU493      0.0019
     78  CD1      -13.7280   32.9830  -30.7270 C.3   493  LEU493      0.0001
     79  CD2      -15.3100   34.8950  -30.3380 C.3   493  LEU493      0.0001
     80  N        -17.1470   33.3320  -35.2640 N.am  494  ARG494     -0.1980
     81  CA       -17.2620   33.5700  -36.7040 C.3   494  ARG494      0.1597
     82  C        -18.3840   34.5620  -37.0430 C.2   494  ARG494      0.2287
     83  O        -18.2520   35.3470  -37.9820 O.2   494  ARG494     -0.2864
     84  CB       -17.4500   32.2540  -37.4810 C.3   494  ARG494      0.0334
     85  CG       -18.7050   31.4530  -37.1290 C.3   494  ARG494      0.0492
     86  CD       -18.8030   30.1680  -37.9550 C.3   494  ARG494      0.2205
     87  NE       -19.8430   29.2580  -37.4600 N.pl3 494  ARG494     -0.0865
     88  CZ       -21.1500   29.3650  -37.7160 C.cat 494  ARG494      0.5346
     89  NH1      -21.9940   28.4690  -37.2080 N.pl3 494  ARG494      0.1354
     90  NH2      -21.6290   30.3540  -38.4710 N.pl3 494  ARG494      0.1354
     91  N        -17.0610   38.0360  -36.0660 N.3   497  ARG497     -0.1245
     92  CA       -16.1180   38.5120  -37.0780 C.3   497  ARG497      0.1563
     93  C        -16.8720   39.2290  -38.1910 C.2   497  ARG497      0.2260
     94  O        -16.4920   40.3230  -38.5970 O.2   497  ARG497     -0.2867
     95  CB       -15.3060   37.3490  -37.6630 C.3   497  ARG497      0.0307
     96  CG       -14.2210   37.8160  -38.6340 C.3   497  ARG497      0.0489
     97  CD       -13.3540   36.6650  -39.1200 C.3   497  ARG497      0.2205
     98  NE       -14.1360   35.6580  -39.8260 N.pl3 497  ARG497     -0.0865
     99  CZ       -14.4260   34.4510  -39.3510 C.cat 497  ARG497      0.5346
    100  NH1      -13.9950   34.0740  -38.1520 N.pl3 497  ARG497      0.1354
    101  NH2      -15.1660   33.6250  -40.0780 N.pl3 497  ARG497      0.1354
    102  N        -16.9050   43.6340  -39.2020 N.3   501  ARG501     -0.1245
    103  CA       -16.6940   44.2870  -40.4950 C.3   501  ARG501      0.1563
    104  C        -17.7050   45.4010  -40.7040 C.2   501  ARG501      0.2260
    105  O        -17.3350   46.5220  -41.0570 O.2   501  ARG501     -0.2867
    106  CB       -16.8130   43.2820  -41.6480 C.3   501  ARG501      0.0307
    107  CG       -15.7330   42.2140  -41.6340 C.3   501  ARG501      0.0489
    108  CD       -15.6530   41.4540  -42.9480 C.3   501  ARG501      0.2205
    109  NE       -14.6220   40.4180  -42.8710 N.pl3 501  ARG501     -0.0865
    110  CZ       -14.8300   39.1360  -42.5590 C.cat 501  ARG501      0.5346
    111  NH1      -16.0540   38.6720  -42.2990 N.pl3 501  ARG501      0.1354
    112  NH2      -13.7940   38.2990  -42.5170 N.pl3 501  ARG501      0.1354
    113  N         -8.3440   43.9100  -36.5350 N.3   524  TRP524     -0.1227
    114  CA        -8.3820   42.4440  -36.5050 C.3   524  TRP524      0.1737
    115  C         -9.4490   41.8250  -37.4170 C.2   524  TRP524      0.2595
    116  O         -9.3390   40.6590  -37.7840 O.2   524  TRP524     -0.2718
    117  CB        -8.6180   41.9480  -35.0690 C.3   524  TRP524      0.0564
    118  CG        -9.9440   42.3830  -34.4900 C.ar  524  TRP524      0.0003
    119  CD1      -10.1800   43.4910  -33.7290 C.ar  524  TRP524      0.0946
    120  CD2      -11.2070   41.7230  -34.6370 C.ar  524  TRP524      0.0152
    121  NE1      -11.5110   43.5630  -33.3920 N.ar  524  TRP524     -0.2442
    122  CE2      -12.1640   42.4900  -33.9380 C.ar  524  TRP524      0.0810
    123  CE3      -11.6230   40.5590  -35.2950 C.ar  524  TRP524      0.0012
    124  CZ2      -13.5120   42.1340  -33.8810 C.ar  524  TRP524      0.0191
    125  CZ3      -12.9610   40.2030  -35.2350 C.ar  524  TRP524      0.0001
    126  CH2      -13.8910   40.9880  -34.5300 C.ar  524  TRP524      0.0015
    127  N        -10.4840   42.5920  -37.7570 N.am  525  ALA525     -0.1966
    128  CA       -11.6470   42.0530  -38.4690 C.3   525  ALA525      0.1728
    129  C        -11.5000   41.9980  -39.9970 C.2   525  ALA525      0.2616
    130  O        -12.2980   41.3380  -40.6670 O.2   525  ALA525     -0.2715
    131  CB       -12.8940   42.8470  -38.0960 C.3   525  ALA525      0.0334
    132  N        -10.4960   42.6830  -40.5440 N.am  526  VAL526     -0.1963
    133  CA       -10.3400   42.7890  -41.9990 C.3   526  VAL526      0.1727
    134  C         -9.0540   42.1350  -42.4950 C.2   526  VAL526      0.2616
    135  O         -8.0860   41.9880  -41.7440 O.2   526  VAL526     -0.2715
    136  CB       -10.3680   44.2600  -42.4740 C.3   526  VAL526      0.0290
    137  CG1      -11.7430   44.8650  -42.2340 C.3   526  VAL526      0.0023
    138  CG2       -9.2710   45.0810  -41.7860 C.3   526  VAL526      0.0023
    139  N         -9.0660   41.7470  -43.7710 N.am  527  LYS527     -0.1977
    140  CA        -7.9110   41.1350  -44.4230 C.3   527  LYS527      0.1596
    141  C         -6.8760   42.2020  -44.7660 C.2   527  LYS527      0.2287
    142  O         -5.6860   42.0350  -44.4950 O.2   527  LYS527     -0.2864
    143  CB        -8.3480   40.4000  -45.6950 C.3   527  LYS527      0.0298
    144  CG        -9.3620   39.2670  -45.5710 C.3   527  LYS527      0.0038
    145  CD        -8.6840   38.2140  -44.7730 C.3   527  LYS527      0.0206
    146  CE        -9.8730   37.2470  -44.5450 C.3   527  LYS527      0.1093
    147  NZ        -9.6930   36.6400  -43.2170 N.3   527  LYS527     -0.1314
    148  N         -5.0800   44.9140  -43.7770 N.3   529  LYS529     -0.1245
    149  CA        -4.7320   45.5420  -42.4970 C.3   529  LYS529      0.1561
    150  C         -4.1840   46.9530  -42.7060 C.2   529  LYS529      0.2260
    151  O         -3.3150   47.1650  -43.5550 O.2   529  LYS529     -0.2867
    152  CB        -3.6760   44.7210  -41.7420 C.3   529  LYS529      0.0271
    153  CG        -4.0040   43.2440  -41.5220 C.3   529  LYS529      0.0035
    154  CD        -5.0900   43.0240  -40.4840 C.3   529  LYS529      0.0206
    155  CE        -5.2380   41.5370  -40.1740 C.3   529  LYS529      0.1093
    156  NZ        -6.3020   41.2580  -39.1710 N.3   529  LYS529     -0.1314
@<TRIPOS>BOND
     1   143   144    1
     2   143   140    1
     3   144   145    1
     4   145   146    1
     5   141   142    2
     6   141   140    1
     7   146   147    1
     8   140   139    1
     9   148   149    1
    10   139   134   am
    11   151   150    2
    12   108   109    1
    13   108   107    1
    14   109   110    2
    15   150   149    1
    16   110   112    1
    17   110   111    1
    18   149   152    1
    19   134   133    1
    20   134   135    2
    21   136   137    1
    22   136   133    1
    23   136   138    1
    24   133   132    1
    25   152   153    1
    26   106   107    1
    27   106   103    1
    28   153   154    1
    29   105   104    2
    30   104   103    1
    31   130   129    2
    32   132   129   am
    33   103   102    1
    34   154   155    1
    35   155   156    1
    36   101    99    1
    37   129   128    1
    38    98    99    2
    39    98    97    1
    40    99   100    1
    41    97    96    1
    42    96    95    1
    43    94    93    2
    44    90    88    1
    45   128   131    1
    46   128   127    1
    47    93    92    1
    48    83    82    2
    49    86    87    1
    50    86    85    1
    51   116   115    2
    52   127   115   am
    53    88    87    2
    54    88    89    1
    55    95    92    1
    56    84    85    1
    57    84    81    1
    58   115   114    1
    59    92    91    1
    60    82    81    1
    61    81    80    1
    62   113   114    1
    63   114   117    1
    64    44    42   ar
    65    44    45   ar
    66    42    41   ar
    67    45    43   ar
    68   123   125   ar
    69   123   120   ar
    70    80    74   am
    71   125   126   ar
    72   117   118    1
    73    41    43   ar
    74    41    40    1
    75    75    74    2
    76   120   118   ar
    77   120   122   ar
    78   126   124   ar
    79   118   119   ar
    80    51    50    1
    81    74    73    1
    82    40    37    1
    83   122   124   ar
    84   122   121   ar
    85    27    26    1
    86   119   121   ar
    87    50    47    1
    88    46    47    1
    89    46    38   am
    90    73    72    1
    91    73    76    1
    92    37    38    1
    93    37    36    1
    94    26    25    1
    95    47    48    1
    96    76    77    1
    97    38    39    2
    98    31    30    2
    99    19    17    1
   100    36    30   am
   101    30    29    1
   102    25    24    1
   103    28    29    1
   104    23    22    2
   105    17    18    1
   106    17    16    2
   107    24    21    1
   108    29    32    1
   109    48    52   am
   110    48    49    2
   111    77    78    1
   112    77    79    1
   113    21    22    1
   114    21    20    1
   115    71    69    1
   116    52    53    1
   117    12    11    2
   118    16    15    1
   119     7     6    1
   120    61    59   ar
   121    61    62   ar
   122    59    57   ar
   123    20    11   am
   124    11    10    1
   125    55    54    2
   126    70    68    1
   127    32    33    1
   128    13    10    1
   129    13    14    1
   130    69    68    1
   131    53    54    1
   132    53    56    1
   133    15    14    1
   134    10     9    1
   135    63    62    1
   136    62    60   ar
   137    35    33    1
   138    57    56    1
   139    57    58   ar
   140     6     8    1
   141     6     5    1
   142    68    65    1
   143    33    34    1
   144     4     3    2
   145     5     2    1
   146     2     3    1
   147     2     1    1
   148    58    60   ar
   149    65    66    1
   150    65    64    1
   151    67    66    2
