@<TRIPOS>MOLECULE
tmp/4kanB02.pdb
 100 89 0 0 0
SMALL
GASTEIGER

@<TRIPOS>ATOM
      1  N         33.7310   33.6570  -13.2550 N.3   207  ASN207     -0.1240
      2  CA        34.1640   32.9750  -12.0490 C.3   207  ASN207      0.1653
      3  C         35.5640   33.4830  -11.6840 C.2   207  ASN207      0.2266
      4  O         36.1340   34.3240  -12.3930 O.2   207  ASN207     -0.2867
      5  CB        34.0700   31.4390  -12.1760 C.3   207  ASN207      0.1155
      6  CG        34.9870   30.8750  -13.2450 C.2   207  ASN207      0.2627
      7  OD1       35.8690   31.5680  -13.7370 O.2   207  ASN207     -0.2716
      8  ND2       34.7830   29.6100  -13.6060 N.am  207  ASN207     -0.0877
      9  N         38.5740   32.0370  -11.7060 N.3   209  GLN209     -0.1245
     10  CA        39.6150   31.7040  -12.6900 C.3   209  GLN209      0.1566
     11  C         39.5370   32.6030  -13.9310 C.2   209  GLN209      0.2260
     12  O         40.5610   33.0650  -14.4410 O.2   209  GLN209     -0.2867
     13  CB        39.5270   30.2330  -13.1020 C.3   209  GLN209      0.0367
     14  CG        39.5310   29.2340  -11.9450 C.3   209  GLN209      0.0905
     15  CD        38.1370   28.8060  -11.4860 C.2   209  GLN209      0.2608
     16  OE1       37.3000   29.6270  -11.0970 O.2   209  GLN209     -0.2717
     17  NE2       37.8930   27.5020  -11.5150 N.am  209  GLN209     -0.0878
     18  N         31.5610   34.7650   -9.4890 N.3   237  THR237     -0.1218
     19  CA        31.2850   33.6210   -8.6190 C.3   237  THR237      0.1862
     20  C         32.5830   33.0450   -8.0750 C.2   237  THR237      0.2287
     21  O         33.6340   33.1540   -8.7170 O.2   237  THR237     -0.2866
     22  CB        30.4780   32.5220   -9.3420 C.3   237  THR237      0.1770
     23  OG1       31.2020   32.0740  -10.4950 O.3   237  THR237     -0.2211
     24  CG2       29.1350   33.0530   -9.7970 C.3   237  THR237      0.0375
     25  N         32.7000   29.7000   -6.4960 N.3   238  SER238     -0.1202
     26  CA        32.3300   28.3220   -6.1430 C.3   238  SER238      0.2020
     27  C         31.7000   28.2290   -4.7510 C.2   238  SER238      0.2618
     28  O         30.7230   28.9230   -4.4750 O.2   238  SER238     -0.2717
     29  CB        33.5300   27.3790   -6.2930 C.3   238  SER238      0.2103
     30  OG        33.9420   27.3090   -7.6490 O.3   238  SER238     -0.2182
     31  N         32.2700   27.3980   -3.8770 N.am  239  GLU239     -0.1979
     32  CA        31.7490   27.2100   -2.5160 C.3   239  GLU239      0.1602
     33  C         31.7850   28.4860   -1.6610 C.2   239  GLU239      0.2287
     34  O         31.1270   28.5600   -0.6160 O.2   239  GLU239     -0.2864
     35  CB        32.4800   26.0550   -1.8040 C.3   239  GLU239      0.0415
     36  CG        33.8610   26.3960   -1.2420 C.3   239  GLU239      0.1163
     37  CD        34.9790   26.3730   -2.2770 C.2   239  GLU239      0.3649
     38  OE1       34.7140   26.1080   -3.4700 O.co2 239  GLU239     -0.2457
     39  OE2       36.1400   26.6210   -1.8870 O.co2 239  GLU239     -0.2457
     40  N         30.6550   31.3630   -2.6350 N.3   241  GLY241     -0.1225
     41  CA        29.5330   32.2120   -3.0110 C.3   241  GLY241      0.1811
     42  C         29.8670   33.1220   -4.1680 C.2   241  GLY241      0.2280
     43  O         30.4550   32.6850   -5.1490 O.2   241  GLY241     -0.2866
     44  N         27.9100   17.4210   -3.9010 N.3   261  VAL261     -0.1245
     45  CA        28.2280   17.7980   -5.2790 C.3   261  VAL261      0.1561
     46  C         28.2530   16.5390   -6.1440 C.2   261  VAL261      0.2260
     47  O         29.1790   15.7220   -6.0570 O.2   261  VAL261     -0.2867
     48  CB        29.5800   18.5440   -5.4040 C.3   261  VAL261      0.0252
     49  CG1       29.8280   18.9700   -6.8450 C.3   261  VAL261      0.0019
     50  CG2       29.6230   19.7590   -4.4930 C.3   261  VAL261      0.0019
     51  N         29.1600   19.3340  -11.2650 N.3   264  THR264     -0.1218
     52  CA        29.1780   20.8000  -11.3200 C.3   264  THR264      0.1862
     53  C         28.7020   21.4060  -12.6610 C.2   264  THR264      0.2287
     54  O         28.5770   22.6330  -12.7800 O.2   264  THR264     -0.2866
     55  CB        30.5770   21.3740  -11.0110 C.3   264  THR264      0.1770
     56  OG1       31.5140   20.8980  -11.9790 O.3   264  THR264     -0.2211
     57  CG2       31.0470   20.9810   -9.6000 C.3   264  THR264      0.0375
     58  N         26.7440   24.9510  -13.3200 N.3   267  ALA267     -0.1231
     59  CA        26.6880   25.8170  -12.1270 C.3   267  ALA267      0.1694
     60  C         26.6990   27.3080  -12.4940 C.2   267  ALA267      0.2592
     61  O         25.8330   28.0770  -12.0670 O.2   267  ALA267     -0.2718
     62  CB        27.8180   25.4970  -11.1600 C.3   267  ALA267      0.0304
     63  N         27.6760   27.7130  -13.3000 N.am  268  GLY268     -0.1957
     64  CA        27.7490   29.0940  -13.7330 C.3   268  GLY268      0.1869
     65  C         26.5630   29.5190  -14.5760 C.2   268  GLY268      0.2309
     66  O         26.0970   30.6480  -14.4490 O.2   268  GLY268     -0.2863
     67  N         23.7210   30.1000  -12.2400 N.3   271  PHE271     -0.1241
     68  CA        23.9460   31.3540  -11.5110 C.3   271  PHE271      0.1605
     69  C         23.4590   32.5430  -12.3600 C.2   271  PHE271      0.2264
     70  O         22.7440   33.4250  -11.8880 O.2   271  PHE271     -0.2867
     71  CB        25.4090   31.5630  -11.1100 C.3   271  PHE271      0.0534
     72  CG        25.6280   32.8550  -10.3820 C.ar  271  PHE271     -0.0203
     73  CD1       25.4760   32.9210   -8.9980 C.ar  271  PHE271     -0.0042
     74  CD2       25.9410   34.0200  -11.0770 C.ar  271  PHE271     -0.0042
     75  CE1       25.6470   34.1150   -8.3270 C.ar  271  PHE271     -0.0003
     76  CE2       26.1000   35.2220  -10.4120 C.ar  271  PHE271     -0.0003
     77  CZ        25.9610   35.2670   -9.0310 C.ar  271  PHE271     -0.0000
     78  N         22.8170   32.1170   -6.6750 N.3   293  CYS293     -0.1235
     79  CA        23.4440   31.0860   -5.8460 C.3   293  CYS293      0.1677
     80  C         22.4840   29.9330   -5.5810 C.2   293  CYS293      0.2270
     81  O         22.9020   28.7750   -5.5030 O.2   293  CYS293     -0.2867
     82  CB        23.9510   31.6640   -4.5200 C.3   293  CYS293      0.0956
     83  SG        25.4540   32.6530   -4.6810 S.3   293  CYS293     -0.0801
     84  N         22.2960   27.8720   -8.9120 N.3   296  ALA296     -0.1231
     85  CA        23.5660   27.1500   -9.0710 C.3   296  ALA296      0.1694
     86  C         23.7120   25.9820   -8.0930 C.2   296  ALA296      0.2592
     87  O         24.1280   24.8900   -8.4670 O.2   296  ALA296     -0.2718
     88  CB        24.7310   28.1070   -8.9210 C.3   296  ALA296      0.0304
     89  N         23.3930   26.2260   -6.8260 N.am  297  GLY297     -0.1957
     90  CA        23.4430   25.1740   -5.8140 C.3   297  GLY297      0.1869
     91  C         22.5360   23.9900   -6.1160 C.2   297  GLY297      0.2309
     92  O         22.8850   22.8440   -5.8300 O.2   297  GLY297     -0.2863
     93  N         24.0400   21.6820   -9.2340 N.3   300  ILE300     -0.1245
     94  CA        25.2220   20.8610   -8.9750 C.3   300  ILE300      0.1561
     95  C         24.9010   19.5920   -8.1780 C.2   300  ILE300      0.2260
     96  O         25.7640   18.7380   -8.0000 O.2   300  ILE300     -0.2867
     97  CB        26.3770   21.6680   -8.3450 C.3   300  ILE300      0.0252
     98  CG1       26.1060   21.9680   -6.8630 C.3   300  ILE300      0.0019
     99  CG2       26.6510   22.9150   -9.1660 C.3   300  ILE300      0.0019
    100  CD1       27.2300   22.7320   -6.1870 C.3   300  ILE300      0.0001
@<TRIPOS>BOND
     1    65    66    2
     2    65    64    1
     3    12    11    2
     4    11    10    1
     5     7     6    2
     6    64    63    1
     7     8     6   am
     8    58    59    1
     9    63    60   am
    10     1     2    1
    11     6     5    1
    12    13    10    1
    13    13    14    1
    14    54    53    2
    15    10     9    1
    16    53    52    1
    17    60    59    1
    18    60    61    2
    19     4     3    2
    20    69    70    2
    21    69    68    1
    22    67    68    1
    23     5     2    1
    24    59    62    1
    25     2     3    1
    26    56    55    1
    27    14    15    1
    28    17    15   am
    29    68    71    1
    30    15    16    2
    31    52    51    1
    32    52    55    1
    33    71    72    1
    34    74    76   ar
    35    74    72   ar
    36    55    57    1
    37    23    22    1
    38    76    77   ar
    39    72    73   ar
    40    24    22    1
    41    18    19    1
    42    22    19    1
    43    93    94    1
    44    99    97    1
    45    85    88    1
    46    85    84    1
    47    85    86    1
    48    77    75   ar
    49    73    75   ar
    50    94    97    1
    51    94    95    1
    52    21    20    2
    53    19    20    1
    54    87    86    2
    55    97    98    1
    56    95    96    2
    57    86    89   am
    58    30    29    1
    59    98   100    1
    60    49    48    1
    61    89    90    1
    62    78    79    1
    63    25    26    1
    64    29    26    1
    65    46    47    2
    66    46    45    1
    67    26    27    1
    68    91    92    2
    69    91    90    1
    70    79    80    1
    71    79    82    1
    72    80    81    2
    73    48    45    1
    74    48    50    1
    75    45    44    1
    76    43    42    2
    77    27    28    2
    78    27    31   am
    79    83    82    1
    80    42    41    1
    81    31    32    1
    82    38    37   ar
    83    41    40    1
    84    32    35    1
    85    32    33    1
    86    37    39   ar
    87    37    36    1
    88    35    36    1
    89    33    34    2
