@<TRIPOS>MOLECULE
tmp/4kaoB00.pdb
 224 212 0 0 0
SMALL
GASTEIGER

@<TRIPOS>ATOM
      1  N          2.8730   -0.6510  -25.1190 N.3    15  ILE15      -0.1245
      2  CA         3.3730    0.7210  -25.2830 C.3    15  ILE15       0.1561
      3  C          4.5380    1.0470  -24.3200 C.2    15  ILE15       0.2260
      4  O          4.8870    2.2160  -24.1440 O.2    15  ILE15      -0.2867
      5  CB         2.2070    1.7700  -25.1980 C.3    15  ILE15       0.0252
      6  CG1        1.4640    1.6930  -23.8290 C.3    15  ILE15       0.0019
      7  CG2        1.2720    1.6760  -26.4240 C.3    15  ILE15       0.0019
      8  CD1        0.4320    2.7450  -23.5940 C.3    15  ILE15       0.0001
      9  N          6.5400   -0.7950  -13.4970 N.3    19  GLN19      -0.1231
     10  CA         7.1140   -1.4140  -12.2970 C.3    19  GLN19       0.1698
     11  C          6.6410   -2.8600  -12.0260 C.2    19  GLN19       0.2592
     12  O          7.4430   -3.6690  -11.5550 O.2    19  GLN19      -0.2718
     13  CB         6.8870   -0.5270  -11.0530 C.3    19  GLN19       0.0381
     14  CG         7.9560   -0.7100   -9.9620 C.3    19  GLN19       0.0905
     15  CD         7.4850   -0.3100   -8.5810 C.2    19  GLN19       0.2608
     16  OE1        6.7650    0.6770   -8.4010 O.2    19  GLN19      -0.2717
     17  NE2        7.9030   -1.0570   -7.5630 N.am   19  GLN19      -0.0878
     18  N          5.3630   -3.1880  -12.3420 N.am   20  PHE20      -0.1976
     19  CA         4.7810   -4.5110  -12.0690 C.3    20  PHE20       0.1639
     20  C          4.5030   -5.3840  -13.3210 C.2    20  PHE20       0.2290
     21  O          4.0740   -6.5330  -13.1860 O.2    20  PHE20      -0.2864
     22  CB         3.5050   -4.3590  -11.2090 C.3    20  PHE20       0.0560
     23  CG         3.7240   -3.7220   -9.8490 C.ar   20  PHE20      -0.0200
     24  CD1        3.5830   -2.3480   -9.6730 C.ar   20  PHE20      -0.0042
     25  CD2        4.0610   -4.4990   -8.7430 C.ar   20  PHE20      -0.0042
     26  CE1        3.7670   -1.7630   -8.4130 C.ar   20  PHE20      -0.0003
     27  CE2        4.2510   -3.9120   -7.4840 C.ar   20  PHE20      -0.0003
     28  CZ         4.1040   -2.5480   -7.3290 C.ar   20  PHE20      -0.0000
     29  N          2.6670   -2.2030  -20.0240 N.3    23  VAL23      -0.1245
     30  CA         1.6450   -1.1810  -20.2140 C.3    23  VAL23       0.1561
     31  C          1.2250   -1.3470  -21.6690 C.2    23  VAL23       0.2260
     32  O          2.0760   -1.3900  -22.5530 O.2    23  VAL23      -0.2867
     33  CB         2.1310    0.2530  -19.8940 C.3    23  VAL23       0.0252
     34  CG1        0.9890    1.2610  -20.0170 C.3    23  VAL23       0.0019
     35  CG2        2.7560    0.3210  -18.5060 C.3    23  VAL23       0.0019
     36  N         -4.8420    3.4580  -21.5720 N.3    37  ALA37      -0.1245
     37  CA        -3.6020    2.7870  -21.2100 C.3    37  ALA37       0.1562
     38  C         -3.9850    1.6790  -20.1890 C.2    37  ALA37       0.2260
     39  O         -4.7400    1.9220  -19.2460 O.2    37  ALA37      -0.2867
     40  CB        -2.6230    3.7750  -20.5920 C.3    37  ALA37       0.0290
     41  N         -2.3600   -0.8430  -17.5680 N.3    39  LYS39      -0.1245
     42  CA        -1.2240   -1.2800  -16.7720 C.3    39  LYS39       0.1561
     43  C         -1.5920   -2.6980  -16.2580 C.2    39  LYS39       0.2260
     44  O         -2.6120   -2.8690  -15.5710 O.2    39  LYS39      -0.2867
     45  CB        -0.9840   -0.2940  -15.6230 C.3    39  LYS39       0.0271
     46  CG         0.4690   -0.1570  -15.2380 C.3    39  LYS39       0.0035
     47  CD         0.6870    0.7760  -14.0400 C.3    39  LYS39       0.0206
     48  CE         2.1520    0.9260  -13.6740 C.3    39  LYS39       0.1093
     49  NZ         2.6940   -0.2530  -12.9270 N.3    39  LYS39      -0.1314
     50  N          0.1360   -3.6920   -3.4290 N.3    52  LYS52      -0.1245
     51  CA         1.0640   -2.6360   -3.8470 C.3    52  LYS52       0.1561
     52  C          0.7120   -2.1260   -5.2400 C.2    52  LYS52       0.2260
     53  O          0.8090   -0.9300   -5.4840 O.2    52  LYS52      -0.2867
     54  CB         2.5220   -3.1020   -3.7630 C.3    52  LYS52       0.0271
     55  CG         3.1580   -2.8910   -2.3890 C.3    52  LYS52       0.0035
     56  CD         4.6510   -3.2050   -2.4030 C.3    52  LYS52       0.0206
     57  CE         4.9650   -4.6700   -2.1540 C.3    52  LYS52       0.1093
     58  NZ         4.8510   -5.0460   -0.7130 N.3    52  LYS52      -0.1314
     59  N         -2.6720   -0.0960   -5.0520 N.3    55  GLN55      -0.1231
     60  CA        -2.5010    1.1190   -4.2820 C.3    55  GLN55       0.1698
     61  C         -2.3950    2.3170   -5.2600 C.2    55  GLN55       0.2592
     62  O         -2.8570    3.3940   -4.9410 O.2    55  GLN55      -0.2718
     63  CB        -1.2840    0.9880   -3.3520 C.3    55  GLN55       0.0381
     64  CG        -0.9880    2.2020   -2.4590 C.3    55  GLN55       0.0905
     65  CD        -2.1750    2.6920   -1.6780 C.2    55  GLN55       0.2608
     66  OE1       -2.6850    3.8080   -1.9180 O.2    55  GLN55      -0.2717
     67  NE2       -2.6360    1.8740   -0.7340 N.am   55  GLN55      -0.0878
     68  N         -1.8780    2.0960   -6.4780 N.am   56  GLU56      -0.1979
     69  CA        -1.8030    3.1160   -7.5190 C.3    56  GLU56       0.1602
     70  C         -3.1780    3.6900   -7.8400 C.2    56  GLU56       0.2287
     71  O         -3.3080    4.9040   -7.9450 O.2    56  GLU56      -0.2864
     72  CB        -1.1700    2.5390   -8.7580 C.3    56  GLU56       0.0415
     73  CG        -1.0160    3.5290   -9.9020 C.3    56  GLU56       0.1163
     74  CD         0.0630    3.1580  -10.9010 C.2    56  GLU56       0.3649
     75  OE1        0.6330    2.0440  -10.8230 O.co2  56  GLU56      -0.2457
     76  OE2        0.3470    4.0040  -11.7700 O.co2  56  GLU56      -0.2457
     77  N         -4.6110    5.8660   -4.8140 N.3    59  THR59      -0.1203
     78  CA        -3.9560    7.1680   -4.7840 C.3    59  THR59       0.1994
     79  C         -4.4710    8.0750   -5.9090 C.2    59  THR59       0.2617
     80  O         -4.7700    9.2410   -5.6570 O.2    59  THR59      -0.2717
     81  CB        -2.4330    6.9650   -4.8200 C.3    59  THR59       0.1784
     82  OG1       -2.0630    6.2040   -3.6720 O.3    59  THR59      -0.2211
     83  CG2       -1.6560    8.2740   -4.8410 C.3    59  THR59       0.0376
     84  N         -4.5710    7.5390   -7.1280 N.am   60  MET60      -0.1979
     85  CA        -5.0130    8.2880   -8.2970 C.3    60  MET60       0.1605
     86  C         -6.4640    8.7210   -8.2440 C.2    60  MET60       0.2287
     87  O         -6.7780    9.7720   -8.7910 O.2    60  MET60      -0.2864
     88  CB        -4.7320    7.5170   -9.5940 C.3    60  MET60       0.0413
     89  CG        -3.2760    7.5220   -9.9970 C.3    60  MET60       0.0598
     90  SD        -3.0180    6.4280  -11.4250 S.3    60  MET60      -0.1393
     91  CE        -3.3290    7.5470  -12.7590 C.3    60  MET60       0.0692
     92  N         -7.4330   12.3500   -7.1180 N.3    63  PHE63      -0.1241
     93  CA        -7.1140   13.5220   -7.9200 C.3    63  PHE63       0.1605
     94  C         -7.9180   13.6890   -9.2050 C.2    63  PHE63       0.2264
     95  O         -8.2890   12.7300   -9.8650 O.2    63  PHE63      -0.2867
     96  CB        -5.5990   13.5680   -8.1920 C.3    63  PHE63       0.0534
     97  CG        -4.7910   13.4310   -6.9060 C.ar   63  PHE63      -0.0203
     98  CD1       -4.0160   12.3010   -6.6680 C.ar   63  PHE63      -0.0042
     99  CD2       -4.8650   14.4010   -5.9060 C.ar   63  PHE63      -0.0042
    100  CE1       -3.2690   12.1750   -5.4880 C.ar   63  PHE63      -0.0003
    101  CE2       -4.1360   14.2610   -4.7120 C.ar   63  PHE63      -0.0003
    102  CZ        -3.3450   13.1430   -4.5100 C.ar   63  PHE63      -0.0000
    103  N         -2.9160   16.2360  -14.7490 N.3    68  ILE68      -0.1231
    104  CA        -2.5510   15.0610  -13.9790 C.3    68  ILE68       0.1692
    105  C         -3.2160   13.9080  -14.6780 C.2    68  ILE68       0.2591
    106  O         -4.4110   13.9960  -14.9720 O.2    68  ILE68      -0.2718
    107  CB        -2.9210   15.1310  -12.4670 C.3    68  ILE68       0.0266
    108  CG1       -2.0670   16.2110  -11.7610 C.3    68  ILE68       0.0019
    109  CG2       -2.6660   13.7450  -11.8020 C.3    68  ILE68       0.0020
    110  CD1       -2.4570   16.5410  -10.4270 C.3    68  ILE68       0.0001
    111  N         -2.4450   12.8340  -14.9540 N.am   69  VAL69      -0.1980
    112  CA        -2.9690   11.5980  -15.5770 C.3    69  VAL69       0.1595
    113  C         -4.2040   11.1130  -14.7470 C.2    69  VAL69       0.2287
    114  O         -4.1910   11.1110  -13.5140 O.2    69  VAL69      -0.2864
    115  CB        -1.8900   10.4650  -15.7290 C.3    69  VAL69       0.0276
    116  CG1       -0.7820   10.8340  -16.7080 C.3    69  VAL69       0.0022
    117  CG2       -1.2590   10.1270  -14.3830 C.3    69  VAL69       0.0022
    118  N         -5.9340    3.5390  -17.3270 N.3    84  MET84      -0.1230
    119  CA        -5.5300    4.9470  -17.2960 C.3    84  MET84       0.1702
    120  C         -5.9510    5.6430  -18.5860 C.2    84  MET84       0.2595
    121  O         -6.1390    5.0100  -19.6210 O.2    84  MET84      -0.2718
    122  CB        -4.0010    5.0290  -17.2440 C.3    84  MET84       0.0401
    123  CG        -3.4290    5.4670  -15.9560 C.3    84  MET84       0.0596
    124  SD        -3.8300    4.5180  -14.4990 S.3    84  MET84      -0.1393
    125  CE        -2.2000    3.8600  -13.9850 C.3    84  MET84       0.0692
    126  N         -5.9850    6.9630  -18.5240 N.am   85  GLU85      -0.1920
    127  CA        -6.1990    7.8470  -19.6540 C.3    85  GLU85       0.1949
    128  C         -4.9280    7.7190  -20.5110 C.2    85  GLU85       0.2659
    129  O         -3.8080    7.6740  -19.9710 O.2    85  GLU85      -0.2711
    130  CB        -6.3620    9.2780  -19.1080 C.2    85  GLU85       0.0111
    131  CG        -6.1620   10.4300  -20.0890 C.2    85  GLU85       0.0838
    132  CD        -6.0050   11.8090  -19.4630 C.2    85  GLU85       0.3877
    133  OE1       -5.5090   11.9000  -18.3180 O.co2  85  GLU85      -0.2406
    134  OE2       -6.4040   12.8010  -20.1120 O.co2  85  GLU85      -0.2406
    135  N         -5.1020    7.5930  -21.8200 N.am   86  LEU86      -0.1961
    136  CA        -3.9610    7.4730  -22.7110 C.3    86  LEU86       0.1728
    137  C         -3.3920    8.8610  -23.1270 C.2    86  LEU86       0.2616
    138  O         -4.1430    9.7540  -23.5100 O.2    86  LEU86      -0.2715
    139  CB        -4.3150    6.6040  -23.9230 C.3    86  LEU86       0.0311
    140  CG        -3.1960    6.3280  -24.9360 C.3    86  LEU86       0.0022
    141  CD1       -2.1610    5.3520  -24.3850 C.3    86  LEU86       0.0001
    142  CD2       -3.7730    5.7790  -26.2560 C.3    86  LEU86       0.0001
    143  N         -2.0610    9.0210  -23.0220 N.am   87  CYS87      -0.1968
    144  CA        -1.2830   10.1810  -23.4490 C.3    87  CYS87       0.1712
    145  C         -0.5060    9.6480  -24.6600 C.2    87  CYS87       0.2296
    146  O          0.5160    8.9680  -24.4940 O.2    87  CYS87      -0.2864
    147  CB        -0.3540   10.6420  -22.3320 C.3    87  CYS87       0.0983
    148  SG        -1.2100   11.0430  -20.7840 S.3    87  CYS87      -0.0798
    149  N          3.3840   10.0780  -25.7320 N.3    90  GLY90      -0.1225
    150  CA         4.2960    9.4050  -24.8090 C.3    90  GLY90       0.1811
    151  C          5.0920   10.2890  -23.8760 C.2    90  GLY90       0.2280
    152  O          4.6910   11.4080  -23.5630 O.2    90  GLY90      -0.2866
    153  N         -1.6960   19.4440   -6.2950 N.3   122  LEU122     -0.1245
    154  CA        -1.2450   18.3970   -5.3730 C.3   122  LEU122      0.1561
    155  C         -0.9130   18.9410   -4.0020 C.2   122  LEU122      0.2260
    156  O         -1.3850   18.3970   -2.9930 O.2   122  LEU122     -0.2867
    157  CB        -0.0830   17.5760   -5.9440 C.3   122  LEU122      0.0270
    158  CG        -0.4160   16.6930   -7.1470 C.3   122  LEU122      0.0019
    159  CD1        0.8330   15.9860   -7.6170 C.3   122  LEU122      0.0001
    160  CD2       -1.5180   15.6960   -6.8330 C.3   122  LEU122      0.0001
    161  N         -0.4690   16.6620   -0.6580 N.3   127  PHE127     -0.1241
    162  CA         0.1300   15.4940   -1.2660 C.3   127  PHE127      0.1605
    163  C          1.5330   15.8350   -1.7760 C.2   127  PHE127      0.2264
    164  O          1.6890   16.7520   -2.5760 O.2   127  PHE127     -0.2867
    165  CB        -0.7560   14.9660   -2.4240 C.3   127  PHE127      0.0534
    166  CG        -0.2530   13.6500   -2.9640 C.ar  127  PHE127     -0.0203
    167  CD1        0.5180   13.6050   -4.1190 C.ar  127  PHE127     -0.0042
    168  CD2       -0.4970   12.4600   -2.2840 C.ar  127  PHE127     -0.0042
    169  CE1        1.0340   12.3950   -4.5840 C.ar  127  PHE127     -0.0003
    170  CE2       -0.0070   11.2470   -2.7680 C.ar  127  PHE127     -0.0003
    171  CZ         0.7430   11.2200   -3.9240 C.ar  127  PHE127     -0.0000
    172  N          4.6620   14.4960   -3.9440 N.3   129  HIS129     -0.1241
    173  CA         4.9100   13.6130   -5.0920 C.3   129  HIS129      0.1621
    174  C          6.1370   12.7470   -4.8840 C.2   129  HIS129      0.2264
    175  O          6.0920   11.5550   -5.2080 O.2   129  HIS129     -0.2867
    176  CB         4.9720   14.4140   -6.4160 C.3   129  HIS129      0.0745
    177  CG         5.0550   13.5590   -7.6420 C.ar  129  HIS129      0.0817
    178  ND1        6.2060   12.8550   -7.9570 N.ar  129  HIS129     -0.2268
    179  CD2        4.1420   13.3540   -8.6190 C.ar  129  HIS129      0.1154
    180  CE1        5.9470   12.2240   -9.0950 C.ar  129  HIS129      0.1986
    181  NE2        4.7210   12.4860   -9.5330 N.ar  129  HIS129     -0.2212
    182  N          4.0420   12.8720  -19.2100 N.3   138  LEU138     -0.1245
    183  CA         3.5700   12.3690  -20.4810 C.3   138  LEU138      0.1561
    184  C          3.0120   13.5190  -21.3030 C.2   138  LEU138      0.2260
    185  O          2.6350   14.5490  -20.7590 O.2   138  LEU138     -0.2867
    186  CB         2.5150   11.2620  -20.2880 C.3   138  LEU138      0.0270
    187  CG         2.9680    9.9590  -19.6040 C.3   138  LEU138      0.0019
    188  CD1        1.7890    9.1350  -19.1840 C.3   138  LEU138      0.0001
    189  CD2        3.8700    9.1410  -20.4860 C.3   138  LEU138      0.0001
    190  N          1.2190   15.1550  -15.5800 N.3   147  LEU147     -0.1231
    191  CA         2.0560   14.6210  -14.5220 C.3   147  LEU147      0.1693
    192  C          1.5380   13.2490  -14.1230 C.2   147  LEU147      0.2593
    193  O          0.3400   13.0570  -13.9160 O.2   147  LEU147     -0.2718
    194  CB         2.0980   15.5730  -13.3210 C.3   147  LEU147      0.0284
    195  CG         2.9730   15.1500  -12.1380 C.3   147  LEU147      0.0019
    196  CD1        4.4890   15.1410  -12.4880 C.3   147  LEU147      0.0001
    197  CD2        2.7010   16.0280  -10.9450 C.3   147  LEU147      0.0001
    198  N          2.4800   12.3200  -14.0620 N.am  148  GLY148     -0.1942
    199  CA         2.2890   10.9530  -13.6230 C.3   148  GLY148      0.2014
    200  C          3.3670   10.5360  -12.6540 C.2   148  GLY148      0.2639
    201  O          4.0440   11.3790  -12.0730 O.2   148  GLY148     -0.2714
    202  N          3.4730    9.2380  -12.4140 N.am  149  ASP149     -0.1957
    203  CA         4.4840    8.6240  -11.5420 C.3   149  ASP149      0.1840
    204  C          4.6850    7.1990  -12.0520 C.2   149  ASP149      0.2622
    205  O          3.8000    6.3740  -11.8570 O.2   149  ASP149     -0.2715
    206  CB         4.0670    8.6590  -10.0460 C.3   149  ASP149      0.1450
    207  CG         5.1070    8.1420   -9.0350 C.2   149  ASP149      0.3671
    208  OD1        6.1950    7.6920   -9.4640 O.co2 149  ASP149     -0.2456
    209  OD2        4.8190    8.1690   -7.8150 O.co2 149  ASP149     -0.2456
    210  N          5.7980    6.9260  -12.7660 N.am  150  PHE150     -0.1960
    211  CA         6.0440    5.5820  -13.3250 C.3   150  PHE150      0.1771
    212  C          7.1370    4.8050  -12.5550 C.2   150  PHE150      0.2620
    213  O          7.6190    3.7780  -13.0310 O.2   150  PHE150     -0.2715
    214  CB         6.3120    5.6460  -14.8450 C.3   150  PHE150      0.0574
    215  CG         5.4570    6.7020  -15.5140 C.ar  150  PHE150     -0.0200
    216  CD1        4.0620    6.6290  -15.4700 C.ar  150  PHE150     -0.0042
    217  CD2        6.0380    7.8170  -16.1000 C.ar  150  PHE150     -0.0042
    218  CE1        3.2740    7.6650  -15.9790 C.ar  150  PHE150     -0.0003
    219  CE2        5.2480    8.8370  -16.6350 C.ar  150  PHE150     -0.0003
    220  CZ         3.8760    8.7750  -16.5270 C.ar  150  PHE150     -0.0000
    221  N          7.4570    5.2720  -11.3450 N.am  151  GLY151     -0.1954
    222  CA         8.4640    4.6600  -10.4870 C.3   151  GLY151      0.1869
    223  C          7.9040    4.2140   -9.1550 C.2   151  GLY151      0.2309
    224  O          8.6620    3.8670   -8.2480 O.2   151  GLY151     -0.2863
@<TRIPOS>BOND
     1     7     5    1
     2   142   140    1
     3   149   150    1
     4     2     5    1
     5     2     1    1
     6     2     3    1
     7     5     6    1
     8   140   141    1
     9   140   139    1
    10   150   151    1
    11   145   146    2
    12   145   144    1
    13     3     4    2
    14   139   136    1
    15   151   152    2
    16     6     8    1
    17   138   137    2
    18   144   143    1
    19   144   147    1
    20   137   143   am
    21   137   136    1
    22   136   135    1
    23    32    31    2
    24   147   148    1
    25   135   128   am
    26    31    30    1
    27    36    37    1
    28   184   185    2
    29   184   183    1
    30    37    40    1
    31    37    38    1
    32   128   129    2
    33   128   127    1
    34   189   187    1
    35   183   186    1
    36   183   182    1
    37   186   187    1
    38    30    29    1
    39    30    33    1
    40    38    39    2
    41   134   132   ar
    42   131   132    1
    43   131   130    2
    44    34    33    1
    45    33    35    1
    46   127   130    1
    47   127   126    1
    48   121   120    2
    49   187   188    1
    50   132   133   ar
    51   120   126   am
    52   120   119    1
    53    41    42    1
    54   118   119    1
    55   119   122    1
    56   122   123    1
    57    42    43    1
    58    42    45    1
    59   116   115    1
    60   219   220   ar
    61   219   217   ar
    62   220   218   ar
    63    43    44    2
    64   217   215   ar
    65   218   216   ar
    66   123   124    1
    67   115   112    1
    68   115   117    1
    69    45    46    1
    70   190   191    1
    71   112   111    1
    72   112   113    1
    73   215   216   ar
    74   215   214    1
    75    46    47    1
    76   106   105    2
    77   111   105   am
    78   214   211    1
    79   103   104    1
    80   113   114    2
    81   105   104    1
    82   191   192    1
    83   191   194    1
    84   124   125    1
    85   192   198   am
    86   192   193    2
    87   198   199    1
    88    47    48    1
    89   104   107    1
    90    48    49    1
    91   199   200    1
    92     9    10    1
    93   211   210    1
    94   211   212    1
    95   194   195    1
    96    20    21    2
    97    20    19    1
    98   213   212    2
    99   210   204   am
   100    91    90    1
   101   200   202   am
   102   200   201    2
   103   212   221   am
   104   196   195    1
   105   107   109    1
   106   107   108    1
   107   202   203    1
   108    18    19    1
   109    18    11   am
   110    10    11    1
   111    10    13    1
   112   195   197    1
   113    19    22    1
   114   204   205    2
   115   204   203    1
   116    11    12    2
   117    76    74   ar
   118   108   110    1
   119   203   206    1
   120    90    89    1
   121   221   222    1
   122    22    23    1
   123    13    14    1
   124    74    75   ar
   125    74    73    1
   126   222   223    1
   127   206   207    1
   128    89    88    1
   129    14    15    1
   130    73    72    1
   131    95    94    2
   132    23    24   ar
   133    23    25   ar
   134    24    26   ar
   135    88    85    1
   136   181   180   ar
   137   181   179   ar
   138   208   207   ar
   139    94    93    1
   140   223   224    2
   141   180   178   ar
   142   207   209   ar
   143    87    86    2
   144    72    69    1
   145    25    27   ar
   146   179   177   ar
   147    15    16    2
   148    15    17   am
   149    26    28   ar
   150    85    86    1
   151    85    84    1
   152    96    93    1
   153    96    97    1
   154   178   177   ar
   155    71    70    2
   156    93    92    1
   157    70    69    1
   158   177   176    1
   159   159   158    1
   160    69    68    1
   161    27    28   ar
   162   158   160    1
   163   158   157    1
   164    84    79   am
   165    97    98   ar
   166    97    99   ar
   167    98   100   ar
   168    68    61   am
   169   176   173    1
   170   153   154    1
   171   157   154    1
   172    79    80    2
   173    79    78    1
   174    99   101   ar
   175   100   102   ar
   176    53    52    2
   177   154   155    1
   178    61    62    2
   179    61    60    1
   180    52    51    1
   181   175   174    2
   182   173   174    1
   183   173   172    1
   184    59    60    1
   185    83    81    1
   186    81    78    1
   187    81    82    1
   188    77    78    1
   189   101   102   ar
   190   169   167   ar
   191   169   171   ar
   192    60    63    1
   193   167   166   ar
   194   155   156    2
   195   171   170   ar
   196    51    54    1
   197    51    50    1
   198    54    55    1
   199    63    64    1
   200   166   165    1
   201   166   168   ar
   202   170   168   ar
   203   164   163    2
   204    64    65    1
   205   165   162    1
   206    56    55    1
   207    56    57    1
   208    57    58    1
   209    66    65    2
   210   163   162    1
   211    65    67   am
   212   162   161    1
