@<TRIPOS>MOLECULE
tmp/4kapA00.pdb
 129 127 0 0 0
SMALL
GASTEIGER

@<TRIPOS>ATOM
      1  N          7.2740   44.6520   12.7020 N.3    89  ILE89      -0.1231
      2  CA         8.1490   45.0250   11.5730 C.3    89  ILE89       0.1692
      3  C          8.4410   43.8240   10.6110 C.2    89  ILE89       0.2591
      4  O          8.5350   44.0290    9.4150 O.2    89  ILE89      -0.2718
      5  CB         9.4420   45.7410   12.0650 C.3    89  ILE89       0.0266
      6  CG1       10.4030   45.9180   10.8980 C.3    89  ILE89       0.0019
      7  CG2       10.1480   44.8820   13.1200 C.3    89  ILE89       0.0020
      8  CD1       11.6200   46.8820   11.2780 C.3    89  ILE89       0.0001
      9  N          8.5370   42.5810   11.1600 N.am   90  GLN90      -0.1979
     10  CA         8.8360   41.4420   10.3000 C.3    90  GLN90       0.1601
     11  C          8.5220   40.2000   11.1390 C.2    90  GLN90       0.2287
     12  O          8.5330   40.2490   12.3540 O.2    90  GLN90      -0.2864
     13  CB        10.3320   41.4140    9.7600 C.3    90  GLN90       0.0394
     14  CG        11.3510   41.5820   10.8890 C.3    90  GLN90       0.0908
     15  CD        12.0340   40.2820   11.2270 C.2    90  GLN90       0.2608
     16  OE1       11.4770   39.1930   11.1990 O.2    90  GLN90      -0.2717
     17  NE2       13.2980   40.4350   11.5100 N.am   90  GLN90      -0.0878
     18  N          9.9910   35.9610   10.9340 N.3    92  HIS92      -0.1241
     19  CA        10.9160   34.9680   10.3270 C.3    92  HIS92       0.1621
     20  C         10.8380   33.6870   11.2050 C.2    92  HIS92       0.2264
     21  O         10.1970   33.6670   12.2330 O.2    92  HIS92      -0.2867
     22  CB        12.3680   35.5400   10.2270 C.3    92  HIS92       0.0745
     23  CG        12.9420   35.8160   11.5770 C.ar   92  HIS92       0.0817
     24  ND1       12.6660   36.9680   12.2730 N.ar   92  HIS92      -0.2268
     25  CD2       13.4940   34.9660   12.4910 C.ar   92  HIS92       0.1154
     26  CE1       13.1910   36.9060   13.4740 C.ar   92  HIS92       0.1986
     27  NE2       13.6990   35.6760   13.6390 N.ar   92  HIS92      -0.2212
     28  N         13.1220   29.9730   12.5640 N.3    94  HIS94      -0.1241
     29  CA        14.3220   29.1410   12.6820 C.3    94  HIS94       0.1621
     30  C         13.8850   27.7230   12.6260 C.2    94  HIS94       0.2264
     31  O         12.8070   27.3550   13.1240 O.2    94  HIS94      -0.2867
     32  CB        14.9800   29.4280   14.0590 C.3    94  HIS94       0.0745
     33  CG        15.2000   30.9030   14.3320 C.ar   94  HIS94       0.0817
     34  ND1       16.4400   31.4610   14.0790 N.ar   94  HIS94      -0.2268
     35  CD2       14.4050   31.9170   14.7840 C.ar   94  HIS94       0.1154
     36  CE1       16.4210   32.7420   14.4170 C.ar   94  HIS94       0.1986
     37  NE2       15.1880   33.0590   14.7880 N.ar   94  HIS94      -0.2212
     38  N          9.1960   33.7850   14.8120 N.3   117  HIS117     -0.1241
     39  CA         9.3330   35.0190   15.6430 C.3   117  HIS117      0.1621
     40  C          8.7300   36.1920   14.9070 C.2   117  HIS117      0.2264
     41  O          9.1530   36.5660   13.7980 O.2   117  HIS117     -0.2867
     42  CB        10.8330   35.3040   15.7120 C.3   117  HIS117      0.0745
     43  CG        11.5400   34.3470   16.6500 C.ar  117  HIS117      0.0817
     44  ND1       12.9210   34.1150   16.5870 N.ar  117  HIS117     -0.2268
     45  CD2       11.0370   33.4700   17.5590 C.ar  117  HIS117      0.1154
     46  CE1       13.2340   33.2260   17.4970 C.ar  117  HIS117      0.1986
     47  NE2       12.1250   32.8140   18.1230 N.ar  117  HIS117     -0.2212
     48  N          8.3740   39.9900   15.1170 N.3   119  VAL119     -0.1245
     49  CA         9.2620   40.9700   15.7960 C.3   119  VAL119      0.1561
     50  C          8.5500   42.3230   15.8090 C.2   119  VAL119      0.2260
     51  O          8.0780   42.8200   14.7580 O.2   119  VAL119     -0.2867
     52  CB        10.5990   41.0860   15.0650 C.3   119  VAL119      0.0252
     53  CG1       11.5750   42.1940   15.7390 C.3   119  VAL119      0.0019
     54  CG2       11.2950   39.7520   14.8650 C.3   119  VAL119      0.0019
     55  N         13.1480   51.5770   14.7330 N.3   128  PHE128     -0.1241
     56  CA        13.7210   50.3000   15.1820 C.3   128  PHE128      0.1605
     57  C         15.1680   50.3760   15.6360 C.2   128  PHE128      0.2264
     58  O         15.5580   49.7820   16.6510 O.2   128  PHE128     -0.2867
     59  CB        13.5400   49.2680   14.0510 C.3   128  PHE128      0.0534
     60  CG        14.1180   47.9120   14.3560 C.ar  128  PHE128     -0.0203
     61  CD1       13.2810   46.9360   14.8470 C.ar  128  PHE128     -0.0042
     62  CD2       15.4900   47.6010   14.1740 C.ar  128  PHE128     -0.0042
     63  CE1       13.7830   45.6600   15.1820 C.ar  128  PHE128     -0.0003
     64  CE2       15.9860   46.3480   14.4790 C.ar  128  PHE128     -0.0003
     65  CZ        15.1180   45.3620   15.0000 C.ar  128  PHE128     -0.0000
     66  N         16.2700   49.1500   19.4440 N.3   132  VAL132     -0.1245
     67  CA        17.2070   48.0340   19.8560 C.3   132  VAL132      0.1561
     68  C         18.2880   48.4140   20.8650 C.2   132  VAL132      0.2260
     69  O         18.9910   47.5290   21.3650 O.2   132  VAL132     -0.2867
     70  CB        17.8810   47.2460   18.6660 C.3   132  VAL132      0.0252
     71  CG1       16.8440   46.5910   17.7690 C.3   132  VAL132      0.0019
     72  CG2       18.8290   48.1920   17.8410 C.3   132  VAL132      0.0019
     73  N          9.2630   40.2720   21.0810 N.3   140  VAL140     -0.1245
     74  CA         9.2160   39.2360   20.0660 C.3   140  VAL140      0.1561
     75  C          8.2380   38.1560   20.5900 C.2   140  VAL140      0.2260
     76  O          8.3700   37.6390   21.7030 O.2   140  VAL140     -0.2867
     77  CB        10.5730   38.6020   19.7490 C.3   140  VAL140      0.0252
     78  CG1       10.4080   37.5670   18.6200 C.3   140  VAL140      0.0019
     79  CG2       11.5100   39.7040   19.2780 C.3   140  VAL140      0.0019
     80  N         18.1750   39.6500   21.2570 N.3   195  LEU195     -0.1231
     81  CA        18.1530   39.1380   19.9060 C.3   195  LEU195      0.1693
     82  C         18.8980   37.8020   19.8780 C.2   195  LEU195      0.2593
     83  O         19.9210   37.6290   20.5930 O.2   195  LEU195     -0.2718
     84  CB        18.8340   40.1410   18.9910 C.3   195  LEU195      0.0284
     85  CG        18.2530   41.5400   18.9650 C.3   195  LEU195      0.0019
     86  CD1       19.0840   42.4210   17.9630 C.3   195  LEU195      0.0001
     87  CD2       16.8240   41.5600   18.5100 C.3   195  LEU195      0.0001
     88  N         18.4380   36.8660   19.0570 N.am  196  THR196     -0.1939
     89  CA        19.1700   35.5810   19.0340 C.3   196  THR196      0.2028
     90  C         20.1150   35.4370   17.9060 C.2   196  THR196      0.2643
     91  O         20.7660   34.3790   17.7890 O.2   196  THR196     -0.2714
     92  CB        18.1600   34.3940   18.9440 C.3   196  THR196      0.1808
     93  OG1       17.4980   34.4270   17.6670 O.3   196  THR196     -0.2208
     94  CG2       17.1450   34.4670   20.1630 C.3   196  THR196      0.0379
     95  N         20.3290   36.4900   17.0900 N.am  197  THR197     -0.1937
     96  CA        21.4200   36.5160   16.1210 C.3   197  THR197      0.2013
     97  C         22.2480   37.7480   16.4800 C.2   197  THR197      0.2484
     98  O         21.7430   38.7010   17.1170 O.2   197  THR197     -0.2729
     99  CB        20.9480   36.6340   14.6570 C.3   197  THR197      0.1807
    100  OG1       20.2360   37.8810   14.4060 O.3   197  THR197     -0.2208
    101  CG2       19.9820   35.4500   14.3770 C.3   197  THR197      0.0379
    102  N         23.5140   37.7660   16.0200 N.am  198  PRO198     -0.2715
    103  CA        24.2600   39.0190   16.1150 C.3   198  PRO198      0.1521
    104  C         23.3920   40.1560   15.5470 C.2   198  PRO198      0.2440
    105  O         22.7480   40.0010   14.4810 O.2   198  PRO198     -0.2731
    106  CB        25.5340   38.7480   15.3040 C.3   198  PRO198      0.0310
    107  CG        25.7290   37.2250   15.5490 C.3   198  PRO198      0.0237
    108  CD        24.2840   36.6560   15.4300 C.3   198  PRO198      0.0939
    109  N         23.4020   41.3420   16.2090 N.am  199  PRO199     -0.2727
    110  CA        24.3420   41.7080   17.2900 C.3   199  PRO199      0.1402
    111  C         23.9590   41.3360   18.7050 C.2   199  PRO199      0.2269
    112  O         24.6210   41.8130   19.6730 O.2   199  PRO199     -0.2865
    113  CB        24.3150   43.2520   17.1800 C.3   199  PRO199      0.0296
    114  CG        22.9390   43.5930   16.6400 C.3   199  PRO199      0.0237
    115  CD        22.6920   42.5180   15.6450 C.3   199  PRO199      0.0939
    116  N         10.6250   38.8200   25.6720 N.3   206  TRP206     -0.1241
    117  CA        10.1360   37.6310   24.9860 C.3   206  TRP206      0.1605
    118  C          8.7770   37.1840   25.5110 C.2   206  TRP206      0.2264
    119  O          8.5420   37.1230   26.7540 O.2   206  TRP206     -0.2867
    120  CB        11.2030   36.4440   25.1630 C.3   206  TRP206      0.0550
    121  CG        12.2980   36.5380   24.2210 C.ar  206  TRP206      0.0003
    122  CD1       13.5410   37.1690   24.4020 C.ar  206  TRP206      0.0946
    123  CD2       12.2700   36.1480   22.8410 C.ar  206  TRP206      0.0152
    124  NE1       14.2660   37.1430   23.2390 N.ar  206  TRP206     -0.2442
    125  CE2       13.5220   36.5070   22.2700 C.ar  206  TRP206      0.0810
    126  CE3       11.3070   35.5140   22.0190 C.ar  206  TRP206      0.0012
    127  CZ2       13.8520   36.2440   20.9140 C.ar  206  TRP206      0.0191
    128  CZ3       11.6270   35.2150   20.6950 C.ar  206  TRP206      0.0001
    129  CH2       12.8920   35.6010   20.1260 C.ar  206  TRP206      0.0015
@<TRIPOS>BOND
     1     4     3    2
     2    13    10    1
     3    13    14    1
     4    22    19    1
     5    22    23    1
     6    10    11    1
     7    10     9    1
     8    19    18    1
     9    19    20    1
    10     3     9   am
    11     3     2    1
    12    14    15    1
    13     6     8    1
    14     6     5    1
    15    11    12    2
    16    16    15    2
    17    20    21    2
    18    15    17   am
    19     2     5    1
    20     2     1    1
    21    23    24   ar
    22    23    25   ar
    23     5     7    1
    24    24    26   ar
    25    25    27   ar
    26    28    29    1
    27    30    29    1
    28    30    31    2
    29    29    32    1
    30    26    27   ar
    31    41    40    2
    32    59    60    1
    33    59    56    1
    34    32    33    1
    35    34    33   ar
    36    34    36   ar
    37    62    60   ar
    38    62    64   ar
    39    33    35   ar
    40    60    61   ar
    41   101    99    1
    42   100    99    1
    43    36    37   ar
    44    64    65   ar
    45   105   104    2
    46    99    96    1
    47    55    56    1
    48    51    50    2
    49    35    37   ar
    50    38    39    1
    51    61    63   ar
    52    54    52    1
    53    40    39    1
    54    65    63   ar
    55    52    53    1
    56    52    49    1
    57    48    49    1
    58    56    57    1
    59   106   107    1
    60   106   103    1
    61   108   107    1
    62   108   102    1
    63   104   103    1
    64   104   109   am
    65    57    58    2
    66    39    42    1
    67   115   109    1
    68   115   114    1
    69    42    43    1
    70    49    50    1
    71   102   103    1
    72   102    97   am
    73    96    97    1
    74    96    95    1
    75   109   110    1
    76    97    98    2
    77    44    43   ar
    78    44    46   ar
    79   114   113    1
    80    43    45   ar
    81    95    90   am
    82   113   110    1
    83   110   111    1
    84    46    47   ar
    85    45    47   ar
    86    93    92    1
    87    71    70    1
    88    91    90    2
    89    72    70    1
    90    90    89    1
    91    86    85    1
    92    87    85    1
    93    78    77    1
    94    70    67    1
    95   111   112    2
    96    92    89    1
    97    92    94    1
    98    85    84    1
    99    84    81    1
   100    89    88    1
   101    88    82   am
   102    79    77    1
   103    66    67    1
   104    77    74    1
   105    67    68    1
   106    82    81    1
   107    82    83    2
   108    81    80    1
   109    74    75    1
   110    74    73    1
   111   129   128   ar
   112   129   127   ar
   113    75    76    2
   114   128   126   ar
   115    68    69    2
   116   127   125   ar
   117   126   123   ar
   118   125   123   ar
   119   125   124   ar
   120   123   121   ar
   121   124   122   ar
   122   121   122   ar
   123   121   120    1
   124   117   120    1
   125   117   118    1
   126   117   116    1
   127   118   119    2
