@<TRIPOS>MOLECULE
tmp/4kb6A01.pdb
 196 183 0 0 0
SMALL
GASTEIGER

@<TRIPOS>ATOM
      1  N        -10.6620  -32.9470  -14.8860 N.3    52  THR52      -0.1203
      2  CA       -11.3850  -31.8120  -15.4420 C.3    52  THR52       0.1994
      3  C        -12.1200  -31.0550  -14.3410 C.2    52  THR52       0.2618
      4  O        -12.0430  -31.4230  -13.1690 O.2    52  THR52      -0.2717
      5  CB       -12.4060  -32.2810  -16.4900 C.3    52  THR52       0.1784
      6  OG1      -13.4830  -32.9630  -15.8360 O.3    52  THR52      -0.2211
      7  CG2      -11.7480  -33.2260  -17.4830 C.3    52  THR52       0.0376
      8  N        -12.8340  -29.9980  -14.7200 N.am   53  GLY53      -0.1942
      9  CA       -13.5680  -29.1930  -13.7580 C.3    53  GLY53       0.2014
     10  C        -12.7330  -28.0830  -13.1390 C.2    53  GLY53       0.2639
     11  O        -11.5070  -28.0860  -13.2490 O.2    53  GLY53      -0.2714
     12  N        -13.4100  -27.1520  -12.4670 N.am   54  SER54      -0.1949
     13  CA       -12.8140  -25.9220  -11.9250 C.3    54  SER54       0.1924
     14  C        -11.4330  -26.0410  -11.2690 C.2    54  SER54       0.2314
     15  O        -10.4880  -25.3790  -11.6970 O.2    54  SER54      -0.2863
     16  CB       -13.7850  -25.2650  -10.9430 C.3    54  SER54       0.2116
     17  OG       -14.1300  -26.1660   -9.9030 O.3    54  SER54      -0.2180
     18  N         -8.7670  -26.8910  -13.8190 N.3    57  GLU57      -0.1245
     19  CA        -8.5700  -25.7670  -14.7240 C.3    57  GLU57       0.1567
     20  C         -8.1600  -24.5310  -13.9250 C.2    57  GLU57       0.2260
     21  O         -7.8210  -23.4920  -14.4940 O.2    57  GLU57      -0.2867
     22  CB        -9.8220  -25.5120  -15.5630 C.3    57  GLU57       0.0388
     23  CG       -11.1260  -25.6360  -14.7990 C.3    57  GLU57       0.1160
     24  CD       -12.2980  -25.8610  -15.7260 C.2    57  GLU57       0.3649
     25  OE1      -13.4560  -25.8060  -15.2610 O.co2  57  GLU57      -0.2457
     26  OE2      -12.0550  -26.0970  -16.9280 O.co2  57  GLU57      -0.2457
     27  N        -11.0690  -22.7130   -9.1830 N.3    60  LYS60      -0.1231
     28  CA       -11.7900  -23.0910   -7.9740 C.3    60  LYS60       0.1693
     29  C        -11.8600  -21.9260   -6.9890 C.2    60  LYS60       0.2591
     30  O        -10.9290  -21.1280   -6.8910 O.2    60  LYS60      -0.2718
     31  CB       -11.1490  -24.3140   -7.3210 C.3    60  LYS60       0.0285
     32  CG       -12.0770  -25.5140   -7.2340 C.3    60  LYS60       0.0035
     33  CD       -13.4030  -25.1110   -6.6150 C.3    60  LYS60       0.0206
     34  CE       -13.9460  -26.1920   -5.7030 C.3    60  LYS60       0.1093
     35  NZ       -14.9950  -25.6510   -4.7960 N.3    60  LYS60      -0.1314
     36  N        -12.9680  -21.8410   -6.2580 N.am   61  ILE61      -0.1980
     37  CA       -13.2490  -20.6780   -5.4180 C.3    61  ILE61       0.1595
     38  C        -13.3890  -21.0120   -3.9280 C.2    61  ILE61       0.2287
     39  O        -13.9470  -22.0460   -3.5600 O.2    61  ILE61      -0.2864
     40  CB       -14.5290  -19.9540   -5.8980 C.3    61  ILE61       0.0276
     41  CG1      -14.3400  -19.4100   -7.3180 C.3    61  ILE61       0.0022
     42  CG2      -14.9250  -18.8480   -4.9350 C.3    61  ILE61       0.0022
     43  CD1      -13.1070  -18.5480   -7.4980 C.3    61  ILE61       0.0001
     44  N        -15.2930  -29.1040   -3.9830 N.3    66  GLN66      -0.1245
     45  CA       -15.6440  -30.1940   -4.8830 C.3    66  GLN66       0.1566
     46  C        -14.5610  -30.4760   -5.9190 C.2    66  GLN66       0.2260
     47  O        -13.7790  -29.5960   -6.2810 O.2    66  GLN66      -0.2867
     48  CB       -16.9630  -29.8940   -5.6000 C.3    66  GLN66       0.0367
     49  CG       -17.3920  -30.9950   -6.5690 C.3    66  GLN66       0.0905
     50  CD       -18.0140  -30.4420   -7.8450 C.2    66  GLN66       0.2608
     51  OE1      -17.3230  -29.8560   -8.6940 O.2    66  GLN66      -0.2717
     52  NE2      -19.3320  -30.6190   -7.9830 N.am   66  GLN66      -0.0878
     53  N        -14.0570  -32.6350   -9.8030 N.3    68  ASN68      -0.1240
     54  CA       -14.6680  -33.3630  -10.8980 C.3    68  ASN68       0.1653
     55  C        -13.6070  -34.1900  -11.5830 C.2    68  ASN68       0.2266
     56  O        -12.5110  -33.7120  -11.8650 O.2    68  ASN68      -0.2867
     57  CB       -15.3370  -32.4080  -11.8810 C.3    68  ASN68       0.1155
     58  CG       -15.9240  -31.1950  -11.1880 C.2    68  ASN68       0.2627
     59  OD1      -15.2310  -30.5120  -10.4290 O.2    68  ASN68      -0.2716
     60  ND2      -17.2090  -30.9330  -11.4180 N.am   68  ASN68      -0.0877
     61  N        -13.0230  -37.4890  -14.5800 N.3    70  MET70      -0.1245
     62  CA       -13.6140  -38.2710  -15.6500 C.3    70  MET70       0.1570
     63  C        -12.8900  -39.5830  -15.8540 C.2    70  MET70       0.2261
     64  O        -11.6640  -39.6210  -15.9520 O.2    70  MET70      -0.2867
     65  CB       -13.5880  -37.4930  -16.9570 C.3    70  MET70       0.0387
     66  CG       -14.9150  -36.9080  -17.3370 C.3    70  MET70       0.0595
     67  SD       -14.8140  -36.1490  -18.9590 S.3    70  MET70      -0.1393
     68  CE       -16.2350  -35.0870  -18.8740 C.3    70  MET70       0.0692
     69  N        -16.7020  -35.8300   -7.9580 N.3   155  ASP155     -0.1239
     70  CA       -17.6240  -36.3420   -8.9640 C.3   155  ASP155      0.1674
     71  C        -16.9060  -37.2230   -9.9770 C.2   155  ASP155      0.2266
     72  O        -15.9940  -36.7750  -10.6720 O.2   155  ASP155     -0.2867
     73  CB       -18.3560  -35.1990   -9.6720 C.3   155  ASP155      0.1410
     74  CG       -19.6110  -34.7690   -8.9360 C.2   155  ASP155      0.3668
     75  OD1      -19.7660  -35.1490   -7.7560 O.co2 155  ASP155     -0.2456
     76  OD2      -20.4390  -34.0500   -9.5340 O.co2 155  ASP155     -0.2456
     77  N        -24.9540  -37.6930  -23.4240 N.3   209  ARG209     -0.1245
     78  CA       -24.6380  -36.2990  -23.7210 C.3   209  ARG209      0.1563
     79  C        -23.1560  -36.0830  -24.0080 C.2   209  ARG209      0.2260
     80  O        -22.2990  -36.7580  -23.4380 O.2   209  ARG209     -0.2867
     81  CB       -25.1000  -35.3560  -22.6060 C.3   209  ARG209      0.0307
     82  CG       -24.5740  -33.9350  -22.7800 C.3   209  ARG209      0.0489
     83  CD       -25.5320  -32.8760  -22.2560 C.3   209  ARG209      0.2205
     84  NE       -25.3810  -32.5990  -20.8290 N.pl3 209  ARG209     -0.0865
     85  CZ       -24.2260  -32.3400  -20.2230 C.cat 209  ARG209      0.5346
     86  NH1      -23.0870  -32.3370  -20.9060 N.pl3 209  ARG209      0.1354
     87  NH2      -24.2130  -32.0880  -18.9230 N.pl3 209  ARG209      0.1354
     88  N        -19.5420  -34.3020  -23.9100 N.3   211  SER211     -0.1202
     89  CA       -18.7430  -33.5470  -22.9630 C.3   211  SER211      0.2020
     90  C        -17.5130  -32.9960  -23.6620 C.2   211  SER211      0.2619
     91  O        -16.7800  -33.7340  -24.3200 O.2   211  SER211     -0.2717
     92  CB       -18.3130  -34.4300  -21.7940 C.3   211  SER211      0.2103
     93  OG       -17.3940  -33.7360  -20.9730 O.3   211  SER211     -0.2182
     94  N        -17.2940  -31.6940  -23.5250 N.am  212  PHE212     -0.1961
     95  CA       -16.0920  -31.0690  -24.0600 C.3   212  PHE212      0.1771
     96  C        -15.2230  -30.5310  -22.9270 C.2   212  PHE212      0.2620
     97  O        -14.4100  -29.6280  -23.1270 O.2   212  PHE212     -0.2715
     98  CB       -16.4530  -29.9590  -25.0490 C.3   212  PHE212      0.0574
     99  CG       -17.0580  -30.4650  -26.3300 C.ar  212  PHE212     -0.0200
    100  CD1      -16.2500  -30.8740  -27.3800 C.ar  212  PHE212     -0.0042
    101  CD2      -18.4330  -30.5350  -26.4860 C.ar  212  PHE212     -0.0042
    102  CE1      -16.8040  -31.3430  -28.5610 C.ar  212  PHE212     -0.0003
    103  CE2      -18.9910  -31.0020  -27.6650 C.ar  212  PHE212     -0.0003
    104  CZ       -18.1750  -31.4060  -28.7030 C.ar  212  PHE212     -0.0000
    105  N        -15.4040  -31.1080  -21.7410 N.am  213  SER213     -0.1950
    106  CA       -14.6610  -30.7180  -20.5450 C.3   213  SER213      0.1924
    107  C        -13.1530  -30.6520  -20.7660 C.2   213  SER213      0.2314
    108  O        -12.4900  -29.7500  -20.2560 O.2   213  SER213     -0.2863
    109  CB       -14.9770  -31.6710  -19.3900 C.3   213  SER213      0.2116
    110  OG       -16.3230  -31.5370  -18.9700 O.3   213  SER213     -0.2180
    111  N        -12.5610  -27.4030  -22.9190 N.3   216  GLU216     -0.1245
    112  CA       -12.7410  -26.2190  -22.0840 C.3   216  GLU216      0.1567
    113  C        -11.5200  -25.9910  -21.2030 C.2   216  GLU216      0.2260
    114  O        -11.0100  -24.8750  -21.0960 O.2   216  GLU216     -0.2867
    115  CB       -13.9680  -26.3850  -21.1870 C.3   216  GLU216      0.0388
    116  CG       -15.2380  -26.7940  -21.9060 C.3   216  GLU216      0.1160
    117  CD       -16.4040  -26.9550  -20.9530 C.2   216  GLU216      0.3649
    118  OE1      -16.1620  -27.0050  -19.7290 O.co2 216  GLU216     -0.2457
    119  OE2      -17.5590  -27.0260  -21.4240 O.co2 216  GLU216     -0.2457
    120  N        -17.9460  -16.4280  -11.0690 N.3   247  LYS247     -0.1245
    121  CA       -18.2860  -17.6470  -10.3490 C.3   247  LYS247      0.1561
    122  C        -18.6560  -17.3050   -8.9140 C.2   247  LYS247      0.2260
    123  O        -19.6360  -17.8120   -8.3670 O.2   247  LYS247     -0.2867
    124  CB       -17.0960  -18.6050  -10.3490 C.3   247  LYS247      0.0271
    125  CG       -16.7440  -19.1730  -11.7090 C.3   247  LYS247      0.0035
    126  CD       -16.6470  -20.6820  -11.6260 C.3   247  LYS247      0.0206
    127  CE       -15.7500  -21.0890  -10.4740 C.3   247  LYS247      0.1093
    128  NZ       -16.1450  -22.4020   -9.9050 N.3   247  LYS247     -0.1314
    129  N        -22.3190  -17.6440   -6.7270 N.3   251  GLU251     -0.1245
    130  CA       -22.3030  -18.4800   -5.5290 C.3   251  GLU251      0.1567
    131  C        -22.6380  -17.6890   -4.2700 C.2   251  GLU251      0.2260
    132  O        -23.3790  -18.1650   -3.4070 O.2   251  GLU251     -0.2867
    133  CB       -20.9510  -19.1830   -5.3850 C.3   251  GLU251      0.0388
    134  CG       -20.9370  -20.6140   -5.9060 C.3   251  GLU251      0.1160
    135  CD       -21.6150  -20.7590   -7.2590 C.2   251  GLU251      0.3649
    136  OE1      -21.6940  -19.7620   -8.0060 O.co2 251  GLU251     -0.2457
    137  OE2      -22.0780  -21.8750   -7.5750 O.co2 251  GLU251     -0.2457
    138  N        -26.4280  -22.4340  -12.5410 N.3   267  CYS267     -0.1221
    139  CA       -25.2370  -23.1400  -12.0770 C.3   267  CYS267      0.1808
    140  C        -23.9640  -22.5550  -12.6910 C.2   267  CYS267      0.2602
    141  O        -24.0220  -21.7940  -13.6570 O.2   267  CYS267     -0.2717
    142  CB       -25.3380  -24.6380  -12.3850 C.3   267  CYS267      0.0970
    143  SG       -25.2110  -25.0700  -14.1390 S.3   267  CYS267     -0.0800
    144  N        -22.8180  -22.9290  -12.1270 N.am  268  SER268     -0.1938
    145  CA       -21.5280  -22.3630  -12.5190 C.3   268  SER268      0.2055
    146  C        -21.1890  -22.5420  -14.0000 C.2   268  SER268      0.2643
    147  O        -20.3780  -21.7930  -14.5440 O.2   268  SER268     -0.2714
    148  CB       -20.4050  -22.9630  -11.6720 C.3   268  SER268      0.2130
    149  OG       -19.9150  -24.1550  -12.2610 O.3   268  SER268     -0.2179
    150  N        -21.7900  -23.5340  -14.6500 N.am  269  TYR269     -0.1959
    151  CA       -21.5020  -23.7620  -16.0620 C.3   269  TYR269      0.1771
    152  C        -21.9890  -22.5830  -16.9000 C.2   269  TYR269      0.2619
    153  O        -21.3600  -22.2110  -17.8900 O.2   269  TYR269     -0.2715
    154  CB       -22.1050  -25.0780  -16.5650 C.3   269  TYR269      0.0574
    155  CG       -21.5630  -25.4830  -17.9180 C.ar  269  TYR269     -0.0198
    156  CD1      -20.2030  -25.6980  -18.0960 C.ar  269  TYR269     -0.0009
    157  CD2      -22.4010  -25.6410  -19.0150 C.ar  269  TYR269     -0.0009
    158  CE1      -19.6910  -26.0580  -19.3240 C.ar  269  TYR269      0.0417
    159  CE2      -21.8970  -26.0030  -20.2520 C.ar  269  TYR269      0.0417
    160  CZ       -20.5400  -26.2110  -20.3980 C.ar  269  TYR269      0.1957
    161  OH       -20.0260  -26.5720  -21.6220 O.3   269  TYR269     -0.2866
    162  N        -23.1010  -21.9870  -16.4770 N.am  270  HIS270     -0.1973
    163  CA       -23.6680  -20.8230  -17.1510 C.3   270  HIS270      0.1656
    164  C        -22.7100  -19.6300  -17.1980 C.2   270  HIS270      0.2291
    165  O        -22.6290  -18.9350  -18.2120 O.2   270  HIS270     -0.2864
    166  CB       -24.9720  -20.3940  -16.4760 C.3   270  HIS270      0.0771
    167  CG       -26.0180  -21.4630  -16.4370 C.ar  270  HIS270      0.0820
    168  ND1      -26.3800  -22.1060  -15.2730 N.ar  270  HIS270     -0.2267
    169  CD2      -26.7900  -21.9940  -17.4150 C.ar  270  HIS270      0.1154
    170  CE1      -27.3270  -22.9890  -15.5350 C.ar  270  HIS270      0.1986
    171  NE2      -27.5930  -22.9420  -16.8290 N.ar  270  HIS270     -0.2212
    172  N        -19.4120  -19.8710  -16.8330 N.3   272  LYS272     -0.1245
    173  CA       -18.3050  -20.3620  -17.6330 C.3   272  LYS272      0.1561
    174  C        -18.6060  -20.3350  -19.1340 C.2   272  LYS272      0.2260
    175  O        -17.7640  -19.9180  -19.9310 O.2   272  LYS272     -0.2867
    176  CB       -17.9190  -21.7660  -17.1890 C.3   272  LYS272      0.0271
    177  CG       -16.7550  -22.3320  -17.9510 C.3   272  LYS272      0.0035
    178  CD       -16.0760  -23.4150  -17.1510 C.3   272  LYS272      0.0206
    179  CE       -15.5500  -24.4960  -18.0650 C.3   272  LYS272      0.1093
    180  NZ       -14.6620  -25.4420  -17.3470 N.3   272  LYS272     -0.1314
    181  N        -24.9810  -22.8130  -26.0540 N.3   315  ASN315     -0.1240
    182  CA       -23.8230  -23.6190  -25.6850 C.3   315  ASN315      0.1653
    183  C        -22.6450  -23.2370  -26.5650 C.2   315  ASN315      0.2266
    184  O        -22.8020  -23.0410  -27.7700 O.2   315  ASN315     -0.2867
    185  CB       -24.1420  -25.1130  -25.8280 C.3   315  ASN315      0.1155
    186  CG       -22.9560  -26.0110  -25.4900 C.2   315  ASN315      0.2627
    187  OD1      -21.8970  -25.9380  -26.1180 O.2   315  ASN315     -0.2716
    188  ND2      -23.1370  -26.8730  -24.4960 N.am  315  ASN315     -0.0877
    189  N        -28.8070  -22.8090  -23.2520 N.3   323  LEU323     -0.1245
    190  CA       -28.8020  -23.1050  -21.8280 C.3   323  LEU323      0.1561
    191  C        -29.8800  -22.3040  -21.1050 C.2   323  LEU323      0.2260
    192  O        -30.4660  -22.7730  -20.1290 O.2   323  LEU323     -0.2867
    193  CB       -27.4250  -22.7970  -21.2360 C.3   323  LEU323      0.0270
    194  CG       -26.2560  -23.5930  -21.8150 C.3   323  LEU323      0.0019
    195  CD1      -24.9220  -22.9800  -21.4150 C.3   323  LEU323      0.0001
    196  CD2      -26.3260  -25.0480  -21.3750 C.3   323  LEU323      0.0001
@<TRIPOS>BOND
     1   104   102   ar
     2   104   103   ar
     3   102   100   ar
     4   184   183    2
     5   103   101   ar
     6   100    99   ar
     7   183   182    1
     8   101    99   ar
     9    99    98    1
    10   187   186    2
    11   181   182    1
    12   185   182    1
    13   185   186    1
    14   186   188   am
    15    98    95    1
    16    91    90    2
    17    95    94    1
    18    95    96    1
    19    79    78    1
    20    79    80    2
    21    88    89    1
    22    78    77    1
    23    78    81    1
    24    90    94   am
    25    90    89    1
    26   189   190    1
    27    97    96    2
    28    89    92    1
    29    96   105   am
    30   111   112    1
    31    82    81    1
    32    82    83    1
    33    83    84    1
    34   112   113    1
    35   112   115    1
    36   116   115    1
    37   116   117    1
    38   190   193    1
    39   190   191    1
    40   194   195    1
    41   194   196    1
    42   194   193    1
    43    92    93    1
    44   105   106    1
    45   161   160    1
    46   119   117   ar
    47   113   114    2
    48   191   192    2
    49   117   118   ar
    50    86    85    1
    51    84    85    2
    52   107   106    1
    53   107   108    2
    54   106   109    1
    55   160   159   ar
    56   160   158   ar
    57   159   157   ar
    58    85    87    1
    59   175   174    2
    60   109   110    1
    61   158   156   ar
    62   174   173    1
    63   157   155   ar
    64    67    68    1
    65    67    66    1
    66   165   164    2
    67   156   155   ar
    68   179   180    1
    69   179   178    1
    70   177   176    1
    71   177   178    1
    72   155   154    1
    73   153   152    2
    74   173   176    1
    75   173   172    1
    76     7     5    1
    77   169   171   ar
    78   169   167   ar
    79    66    65    1
    80   164   163    1
    81   163   162    1
    82   163   166    1
    83    65    62    1
    84    26    24   ar
    85   152   162   am
    86   152   151    1
    87   171   170   ar
    88   154   151    1
    89     5     6    1
    90     5     2    1
    91   166   167    1
    92   167   168   ar
    93   151   150    1
    94    64    63    2
    95    63    62    1
    96    24    25   ar
    97    24    23    1
    98    62    61    1
    99    22    23    1
   100    22    19    1
   101   170   168   ar
   102     2     1    1
   103     2     3    1
   104    19    20    1
   105    19    18    1
   106     8     3   am
   107     8     9    1
   108   150   146   am
   109   147   146    2
   110    21    20    2
   111     3     4    2
   112   143   142    1
   113   146   145    1
   114     9    10    1
   115   141   140    2
   116    11    10    2
   117    10    12   am
   118   140   144   am
   119   140   139    1
   120   138   139    1
   121   145   144    1
   122   145   148    1
   123    12    13    1
   124   142   139    1
   125   149   148    1
   126    13    14    1
   127    13    16    1
   128    57    58    1
   129    57    54    1
   130    56    55    2
   131   125   126    1
   132   125   124    1
   133    15    14    2
   134   126   127    1
   135    55    54    1
   136    60    58   am
   137    58    59    2
   138   120   121    1
   139    16    17    1
   140    54    53    1
   141    72    71    2
   142   127   128    1
   143   124   121    1
   144   121   122    1
   145    71    70    1
   146    73    70    1
   147    73    74    1
   148    76    74   ar
   149    27    28    1
   150    70    69    1
   151    74    75   ar
   152   122   123    2
   153    51    50    2
   154   136   135   ar
   155    52    50   am
   156    28    31    1
   157    28    29    1
   158    50    49    1
   159   137   135   ar
   160    43    41    1
   161    31    32    1
   162    41    40    1
   163   135   134    1
   164    32    33    1
   165    29    30    2
   166    29    36   am
   167   129   130    1
   168    33    34    1
   169    49    48    1
   170    47    46    2
   171    36    37    1
   172    46    45    1
   173   134   133    1
   174    40    37    1
   175    40    42    1
   176    34    35    1
   177    48    45    1
   178   130   133    1
   179   130   131    1
   180    37    38    1
   181    45    44    1
   182   131   132    2
   183    38    39    2
