@<TRIPOS>MOLECULE
tmp/4kb6A00.pdb
 155 146 0 0 0
SMALL
GASTEIGER

@<TRIPOS>ATOM
      1  N        -10.6620  -32.9470  -14.8860 N.3    52  THR52      -0.1218
      2  CA       -11.3850  -31.8120  -15.4420 C.3    52  THR52       0.1862
      3  C        -12.1200  -31.0550  -14.3410 C.2    52  THR52       0.2287
      4  O        -12.0430  -31.4230  -13.1690 O.2    52  THR52      -0.2866
      5  CB       -12.4060  -32.2810  -16.4900 C.3    52  THR52       0.1770
      6  OG1      -13.4830  -32.9630  -15.8360 O.3    52  THR52      -0.2211
      7  CG2      -11.7480  -33.2260  -17.4830 C.3    52  THR52       0.0375
      8  N        -15.2930  -29.1040   -3.9830 N.3    66  GLN66      -0.1245
      9  CA       -15.6440  -30.1940   -4.8830 C.3    66  GLN66       0.1566
     10  C        -14.5610  -30.4760   -5.9190 C.2    66  GLN66       0.2260
     11  O        -13.7790  -29.5960   -6.2810 O.2    66  GLN66      -0.2867
     12  CB       -16.9630  -29.8940   -5.6000 C.3    66  GLN66       0.0367
     13  CG       -17.3920  -30.9950   -6.5690 C.3    66  GLN66       0.0905
     14  CD       -18.0140  -30.4420   -7.8450 C.2    66  GLN66       0.2608
     15  OE1      -17.3230  -29.8560   -8.6940 O.2    66  GLN66      -0.2717
     16  NE2      -19.3320  -30.6190   -7.9830 N.am   66  GLN66      -0.0878
     17  N        -14.0570  -32.6350   -9.8030 N.3    68  ASN68      -0.1225
     18  CA       -14.6680  -33.3630  -10.8980 C.3    68  ASN68       0.1785
     19  C        -13.6070  -34.1900  -11.5830 C.2    68  ASN68       0.2597
     20  O        -12.5110  -33.7120  -11.8650 O.2    68  ASN68      -0.2718
     21  CB       -15.3370  -32.4080  -11.8810 C.3    68  ASN68       0.1169
     22  CG       -15.9240  -31.1950  -11.1880 C.2    68  ASN68       0.2627
     23  OD1      -15.2310  -30.5120  -10.4290 O.2    68  ASN68      -0.2716
     24  ND2      -17.2090  -30.9330  -11.4180 N.am   68  ASN68      -0.0877
     25  N        -13.9280  -35.4500  -11.8210 N.am   69  VAL69      -0.1966
     26  CA       -12.9910  -36.3440  -12.4630 C.3    69  VAL69       0.1727
     27  C        -13.7300  -37.1430  -13.5140 C.2    69  VAL69       0.2616
     28  O        -14.9200  -37.4240  -13.3720 O.2    69  VAL69      -0.2715
     29  CB       -12.3300  -37.2810  -11.4450 C.3    69  VAL69       0.0290
     30  CG1      -11.4450  -38.2830  -12.1480 C.3    69  VAL69       0.0023
     31  CG2      -11.5240  -36.4740  -10.4380 C.3    69  VAL69       0.0023
     32  N        -13.0230  -37.4890  -14.5800 N.am   70  MET70      -0.1977
     33  CA       -13.6140  -38.2710  -15.6500 C.3    70  MET70       0.1605
     34  C        -12.8900  -39.5830  -15.8540 C.2    70  MET70       0.2287
     35  O        -11.6640  -39.6210  -15.9520 O.2    70  MET70      -0.2864
     36  CB       -13.5880  -37.4930  -16.9570 C.3    70  MET70       0.0413
     37  CG       -14.9150  -36.9080  -17.3370 C.3    70  MET70       0.0598
     38  SD       -14.8140  -36.1490  -18.9590 S.3    70  MET70      -0.1393
     39  CE       -16.2350  -35.0870  -18.8740 C.3    70  MET70       0.0692
     40  N        -28.8010  -39.1900   -7.3540 N.3   136  ARG136     -0.1231
     41  CA       -29.7830  -38.1790   -7.7040 C.3   136  ARG136      0.1694
     42  C        -30.2210  -38.4720   -9.1290 C.2   136  ARG136      0.2592
     43  O        -29.3880  -38.5290  -10.0320 O.2   136  ARG136     -0.2718
     44  CB       -29.1590  -36.7870   -7.6220 C.3   136  ARG136      0.0321
     45  CG       -29.7540  -35.8960   -6.5470 C.3   136  ARG136      0.0489
     46  CD       -28.6650  -35.2640   -5.6910 C.3   136  ARG136      0.2205
     47  NE       -28.4650  -35.9830   -4.4350 N.pl3 136  ARG136     -0.0865
     48  CZ       -28.7020  -35.4670   -3.2320 C.cat 136  ARG136      0.5346
     49  NH1      -29.1380  -34.2200   -3.1170 N.pl3 136  ARG136      0.1354
     50  NH2      -28.4960  -36.1950   -2.1430 N.pl3 136  ARG136      0.1354
     51  N        -31.5180  -38.6820   -9.3340 N.am  137  ARG137     -0.1966
     52  CA       -32.0100  -39.0020  -10.6700 C.3   137  ARG137      0.1729
     53  C        -31.6790  -37.8680  -11.6320 C.2   137  ARG137      0.2617
     54  O        -31.7720  -36.6930  -11.2770 O.2   137  ARG137     -0.2715
     55  CB       -33.5140  -39.2880  -10.6650 C.3   137  ARG137      0.0348
     56  CG       -34.3970  -38.0540  -10.6840 C.3   137  ARG137      0.0492
     57  CD       -35.6570  -38.3120  -11.4950 C.3   137  ARG137      0.2205
     58  NE       -36.8240  -37.6430  -10.9310 N.pl3 137  ARG137     -0.0865
     59  CZ       -38.0240  -37.6240  -11.5040 C.cat 137  ARG137      0.5346
     60  NH1      -38.2190  -38.2310  -12.6670 N.pl3 137  ARG137      0.1354
     61  NH2      -39.0290  -36.9920  -10.9140 N.pl3 137  ARG137      0.1354
     62  N        -31.2760  -38.2280  -12.8450 N.am  138  GLY138     -0.1940
     63  CA       -30.8600  -37.2440  -13.8260 C.3   138  GLY138      0.2014
     64  C        -29.4490  -36.7510  -13.5520 C.2   138  GLY138      0.2640
     65  O        -29.0340  -35.7240  -14.0750 O.2   138  GLY138     -0.2714
     66  N        -28.7190  -37.4780  -12.7110 N.am  139  SER139     -0.1936
     67  CA       -27.3090  -37.1900  -12.4650 C.3   139  SER139      0.2040
     68  C        -26.4670  -38.3090  -13.0670 C.2   139  SER139      0.2485
     69  O        -26.7430  -39.4800  -12.8220 O.2   139  SER139     -0.2729
     70  CB       -27.0320  -37.0630  -10.9690 C.3   139  SER139      0.2129
     71  OG       -25.6450  -37.1750  -10.6960 O.3   139  SER139     -0.2179
     72  N        -25.4470  -37.9630  -13.8660 N.am  140  PRO140     -0.2715
     73  CA       -24.6510  -38.9750  -14.5600 C.3   140  PRO140      0.1536
     74  C        -23.3520  -39.3130  -13.8320 C.2   140  PRO140      0.2598
     75  O        -22.5840  -40.1480  -14.3060 O.2   140  PRO140     -0.2715
     76  CB       -24.3460  -38.3020  -15.9030 C.3   140  PRO140      0.0310
     77  CG       -24.3740  -36.8180  -15.6010 C.3   140  PRO140      0.0237
     78  CD       -25.0460  -36.6070  -14.2620 C.3   140  PRO140      0.0939
     79  N        -23.1200  -38.6920  -12.6820 N.am  141  ALA141     -0.1978
     80  CA       -21.8530  -38.8650  -11.9850 C.3   141  ALA141      0.1597
     81  C        -22.0120  -39.5190  -10.6210 C.2   141  ALA141      0.2287
     82  O        -22.7410  -39.0160   -9.7650 O.2   141  ALA141     -0.2864
     83  CB       -21.1470  -37.5280  -11.8400 C.3   141  ALA141      0.0319
     84  N        -16.7020  -35.8300   -7.9580 N.3   155  ASP155     -0.1239
     85  CA       -17.6240  -36.3420   -8.9640 C.3   155  ASP155      0.1674
     86  C        -16.9060  -37.2230   -9.9770 C.2   155  ASP155      0.2266
     87  O        -15.9940  -36.7750  -10.6720 O.2   155  ASP155     -0.2867
     88  CB       -18.3560  -35.1990   -9.6720 C.3   155  ASP155      0.1410
     89  CG       -19.6110  -34.7690   -8.9360 C.2   155  ASP155      0.3668
     90  OD1      -19.7660  -35.1490   -7.7560 O.co2 155  ASP155     -0.2456
     91  OD2      -20.4390  -34.0500   -9.5340 O.co2 155  ASP155     -0.2456
     92  N        -17.2840  -39.2140  -13.3880 N.3   157  ILE157     -0.1245
     93  CA       -18.0970  -39.3310  -14.5880 C.3   157  ILE157      0.1561
     94  C        -17.5320  -40.4060  -15.5040 C.2   157  ILE157      0.2260
     95  O        -16.3580  -40.3620  -15.8780 O.2   157  ILE157     -0.2867
     96  CB       -18.1560  -38.0080  -15.3660 C.3   157  ILE157      0.0252
     97  CG1      -18.7920  -36.9130  -14.5170 C.3   157  ILE157      0.0019
     98  CG2      -18.9830  -38.1780  -16.6180 C.3   157  ILE157      0.0019
     99  CD1      -20.2800  -36.7790  -14.7500 C.3   157  ILE157      0.0001
    100  N        -21.2320  -38.8640  -22.1470 N.3   196  VAL196     -0.1245
    101  CA       -21.5800  -39.1080  -20.7590 C.3   196  VAL196      0.1561
    102  C        -23.0710  -39.3890  -20.6290 C.2   196  VAL196      0.2260
    103  O        -23.8560  -38.9330  -21.4590 O.2   196  VAL196     -0.2867
    104  CB       -21.1800  -37.9230  -19.8670 C.3   196  VAL196      0.0252
    105  CG1      -19.6950  -37.9650  -19.5840 C.3   196  VAL196      0.0019
    106  CG2      -21.5670  -36.6010  -20.5250 C.3   196  VAL196      0.0019
    107  N        -26.0500  -38.5030  -19.4970 N.3   198  LYS198     -0.1245
    108  CA       -27.1470  -37.6070  -19.1620 C.3   198  LYS198      0.1561
    109  C        -28.3160  -37.8320  -20.1550 C.2   198  LYS198      0.2260
    110  O        -28.0980  -38.1300  -21.3270 O.2   198  LYS198     -0.2867
    111  CB       -26.6870  -36.1410  -19.1540 C.3   198  LYS198      0.0271
    112  CG       -27.6850  -35.1430  -18.5540 C.3   198  LYS198      0.0035
    113  CD       -27.6000  -35.0230  -17.0330 C.3   198  LYS198      0.0206
    114  CE       -28.8070  -34.2600  -16.5030 C.3   198  LYS198      0.1093
    115  NZ       -29.2150  -33.1700  -17.4290 N.3   198  LYS198     -0.1314
    116  N        -24.9540  -37.6930  -23.4240 N.3   209  ARG209     -0.1245
    117  CA       -24.6380  -36.2990  -23.7210 C.3   209  ARG209      0.1563
    118  C        -23.1560  -36.0830  -24.0080 C.2   209  ARG209      0.2260
    119  O        -22.2990  -36.7580  -23.4380 O.2   209  ARG209     -0.2867
    120  CB       -25.1000  -35.3560  -22.6060 C.3   209  ARG209      0.0307
    121  CG       -24.5740  -33.9350  -22.7800 C.3   209  ARG209      0.0489
    122  CD       -25.5320  -32.8760  -22.2560 C.3   209  ARG209      0.2205
    123  NE       -25.3810  -32.5990  -20.8290 N.pl3 209  ARG209     -0.0865
    124  CZ       -24.2260  -32.3400  -20.2230 C.cat 209  ARG209      0.5346
    125  NH1      -23.0870  -32.3370  -20.9060 N.pl3 209  ARG209      0.1354
    126  NH2      -24.2130  -32.0880  -18.9230 N.pl3 209  ARG209      0.1354
    127  N        -19.5420  -34.3020  -23.9100 N.3   211  SER211     -0.1202
    128  CA       -18.7430  -33.5470  -22.9630 C.3   211  SER211      0.2020
    129  C        -17.5130  -32.9960  -23.6620 C.2   211  SER211      0.2619
    130  O        -16.7800  -33.7340  -24.3200 O.2   211  SER211     -0.2717
    131  CB       -18.3130  -34.4300  -21.7940 C.3   211  SER211      0.2103
    132  OG       -17.3940  -33.7360  -20.9730 O.3   211  SER211     -0.2182
    133  N        -17.2940  -31.6940  -23.5250 N.am  212  PHE212     -0.1961
    134  CA       -16.0920  -31.0690  -24.0600 C.3   212  PHE212      0.1771
    135  C        -15.2230  -30.5310  -22.9270 C.2   212  PHE212      0.2620
    136  O        -14.4100  -29.6280  -23.1270 O.2   212  PHE212     -0.2715
    137  CB       -16.4530  -29.9590  -25.0490 C.3   212  PHE212      0.0574
    138  CG       -17.0580  -30.4650  -26.3300 C.ar  212  PHE212     -0.0200
    139  CD1      -16.2500  -30.8740  -27.3800 C.ar  212  PHE212     -0.0042
    140  CD2      -18.4330  -30.5350  -26.4860 C.ar  212  PHE212     -0.0042
    141  CE1      -16.8040  -31.3430  -28.5610 C.ar  212  PHE212     -0.0003
    142  CE2      -18.9910  -31.0020  -27.6650 C.ar  212  PHE212     -0.0003
    143  CZ       -18.1750  -31.4060  -28.7030 C.ar  212  PHE212     -0.0000
    144  N        -15.4040  -31.1080  -21.7410 N.am  213  SER213     -0.1950
    145  CA       -14.6610  -30.7180  -20.5450 C.3   213  SER213      0.1924
    146  C        -13.1530  -30.6520  -20.7660 C.2   213  SER213      0.2314
    147  O        -12.4900  -29.7500  -20.2560 O.2   213  SER213     -0.2863
    148  CB       -14.9770  -31.6710  -19.3900 C.3   213  SER213      0.2116
    149  OG       -16.3230  -31.5370  -18.9700 O.3   213  SER213     -0.2180
    150  N        -26.4280  -22.4340  -12.5410 N.3   267  CYS267     -0.1235
    151  CA       -25.2370  -23.1400  -12.0770 C.3   267  CYS267      0.1677
    152  C        -23.9640  -22.5550  -12.6910 C.2   267  CYS267      0.2270
    153  O        -24.0220  -21.7940  -13.6570 O.2   267  CYS267     -0.2867
    154  CB       -25.3380  -24.6380  -12.3850 C.3   267  CYS267      0.0956
    155  SG       -25.2110  -25.0700  -14.1390 S.3   267  CYS267     -0.0801
@<TRIPOS>BOND
     1   143   141   ar
     2   143   142   ar
     3   141   139   ar
     4   142   140   ar
     5   139   138   ar
     6   140   138   ar
     7   138   137    1
     8   137   134    1
     9   130   129    2
    10   134   133    1
    11   134   135    1
    12   118   117    1
    13   118   119    2
    14   127   128    1
    15   117   116    1
    16   117   120    1
    17   129   133   am
    18   129   128    1
    19   136   135    2
    20   128   131    1
    21   135   144   am
    22   121   120    1
    23   121   122    1
    24   122   123    1
    25   100   101    1
    26   131   132    1
    27   144   145    1
    28   103   102    2
    29   110   109    2
    30   125   124    1
    31   123   124    2
    32   146   145    1
    33   146   147    2
    34   101   102    1
    35   101   104    1
    36   145   148    1
    37   106   104    1
    38   124   126    1
    39   109   108    1
    40   104   105    1
    41   107   108    1
    42   148   149    1
    43   108   111    1
    44   111   112    1
    45    38    39    1
    46    38    37    1
    47   112   113    1
    48     7     5    1
    49   115   114    1
    50    37    36    1
    51   113   114    1
    52    36    33    1
    53    98    96    1
    54     5     6    1
    55     5     2    1
    56    35    34    2
    57    76    77    1
    58    76    73    1
    59    95    94    2
    60    34    33    1
    61    33    32    1
    62    77    78    1
    63    94    93    1
    64     2     1    1
    65     2     3    1
    66    96    93    1
    67    96    97    1
    68    99    97    1
    69    93    92    1
    70    32    27   am
    71    73    72    1
    72    73    74    1
    73     3     4    2
    74    75    74    2
    75    78    72    1
    76   155   154    1
    77    65    64    2
    78    72    68   am
    79    74    79   am
    80    63    64    1
    81    63    62    1
    82   153   152    2
    83    64    66   am
    84    27    28    2
    85    27    26    1
    86    68    69    2
    87    68    67    1
    88    62    53   am
    89    66    67    1
    90   152   151    1
    91    79    80    1
    92    60    59    1
    93   150   151    1
    94    67    70    1
    95    26    25    1
    96    26    29    1
    97   154   151    1
    98    30    29    1
    99    80    83    1
   100    80    81    1
   101    21    22    1
   102    21    18    1
   103    20    19    2
   104    25    19   am
   105    53    54    2
   106    53    52    1
   107    19    18    1
   108    59    58    2
   109    59    61    1
   110    57    58    1
   111    57    56    1
   112    29    31    1
   113    24    22   am
   114    22    23    2
   115    70    71    1
   116    18    17    1
   117    56    55    1
   118    87    86    2
   119    52    55    1
   120    52    51    1
   121    81    82    2
   122    43    42    2
   123    86    85    1
   124    88    85    1
   125    88    89    1
   126    91    89   ar
   127    51    42   am
   128    42    41    1
   129    85    84    1
   130    89    90   ar
   131    15    14    2
   132    16    14   am
   133    14    13    1
   134    41    44    1
   135    41    40    1
   136    44    45    1
   137    13    12    1
   138    45    46    1
   139    11    10    2
   140    10     9    1
   141    46    47    1
   142    12     9    1
   143     9     8    1
   144    47    48    2
   145    48    49    1
   146    48    50    1
