@<TRIPOS>MOLECULE
tmp/4kb7B00.pdb
 208 198 0 0 0
SMALL
GASTEIGER

@<TRIPOS>ATOM
      1  N         -0.1990   45.9710   -5.4350 N.3   189  GLY189     -0.1210
      2  CA        -0.6970   45.6430   -6.7680 C.3   189  GLY189      0.1956
      3  C         -1.3460   46.7710   -7.5520 C.2   189  GLY189      0.2611
      4  O         -1.2940   46.7720   -8.7840 O.2   189  GLY189     -0.2717
      5  N         -1.9430   47.7350   -6.8550 N.am  190  PHE190     -0.1976
      6  CA        -2.7120   48.7890   -7.5200 C.3   190  PHE190      0.1636
      7  C         -1.8410   49.8230   -8.2450 C.2   190  PHE190      0.2290
      8  O         -2.3570   50.6390   -9.0090 O.2   190  PHE190     -0.2864
      9  CB        -3.6560   49.4800   -6.5260 C.3   190  PHE190      0.0514
     10  CG        -4.7600   48.5880   -6.0210 C.2   190  PHE190     -0.0459
     11  CD1       -5.7890   48.1950   -6.8630 C.2   190  PHE190     -0.0317
     12  CD2       -4.7700   48.1440   -4.7090 C.3   190  PHE190      0.0261
     13  CE1       -6.8040   47.3720   -6.4050 C.3   190  PHE190      0.0571
     14  CE2       -5.7840   47.3220   -4.2430 C.3   190  PHE190      0.0049
     15  CZ        -6.8020   46.9370   -5.0920 C.3   190  PHE190      0.0394
     16  N         -2.1920   47.2210  -16.3700 N.3   194  PRO194     -0.2116
     17  CA        -2.1930   45.8050  -16.7450 C.3   194  PRO194      0.1372
     18  C         -0.8770   45.3470  -17.3800 C.2   194  PRO194      0.2244
     19  O         -0.3840   44.2670  -17.0540 O.2   194  PRO194     -0.2868
     20  CB        -3.3490   45.7080  -17.7420 C.3   194  PRO194      0.0268
     21  CG        -4.2660   46.8140  -17.3550 C.3   194  PRO194      0.0207
     22  CD        -3.3750   47.9290  -16.8920 C.3   194  PRO194      0.0892
     23  N          1.8580   45.2280  -14.7530 N.3   197  ARG197     -0.1245
     24  CA         1.6050   44.1000  -13.8550 C.3   197  ARG197      0.1563
     25  C          2.1330   42.7860  -14.4180 C.2   197  ARG197      0.2260
     26  O          2.7930   42.0280  -13.7030 O.2   197  ARG197     -0.2867
     27  CB         0.1110   43.9610  -13.5740 C.3   197  ARG197      0.0307
     28  CG        -0.2260   42.8620  -12.5690 C.3   197  ARG197      0.0489
     29  CD        -1.7150   42.7720  -12.2980 C.3   197  ARG197      0.2205
     30  NE        -2.3350   44.0910  -12.2140 N.pl3 197  ARG197     -0.0865
     31  CZ        -2.2320   44.9140  -11.1740 C.cat 197  ARG197      0.5346
     32  NH1       -1.5370   44.5640  -10.0970 N.pl3 197  ARG197      0.1354
     33  NH2       -2.8340   46.0980  -11.2100 N.pl3 197  ARG197      0.1354
     34  N          5.0910   40.3250  -12.9120 N.3   201  LEU201     -0.1245
     35  CA         4.8370   38.9050  -12.6330 C.3   201  LEU201      0.1561
     36  C          5.8190   37.9890  -13.3590 C.2   201  LEU201      0.2260
     37  O          6.3600   37.0560  -12.7640 O.2   201  LEU201     -0.2867
     38  CB         3.4040   38.5120  -13.0120 C.3   201  LEU201      0.0270
     39  CG         2.2990   38.8390  -12.0080 C.3   201  LEU201      0.0019
     40  CD1        0.9400   38.5020  -12.6030 C.3   201  LEU201      0.0001
     41  CD2        2.5140   38.0840  -10.6990 C.3   201  LEU201      0.0001
     42  N          2.4830   39.6570   -4.1260 N.3   311  LEU311     -0.1231
     43  CA         1.6930   40.6410   -4.8440 C.3   311  LEU311      0.1693
     44  C          0.3330   40.6870   -4.1710 C.2   311  LEU311      0.2592
     45  O         -0.3510   39.6660   -4.0600 O.2   311  LEU311     -0.2718
     46  CB         1.5710   40.2750   -6.3260 C.3   311  LEU311      0.0284
     47  CG         0.8930   41.3000   -7.2480 C.3   311  LEU311      0.0019
     48  CD1        1.4150   42.7190   -7.0250 C.3   311  LEU311      0.0001
     49  CD2        1.0700   40.8910   -8.7020 C.3   311  LEU311      0.0001
     50  N         -0.0400   41.8720   -3.6970 N.am  312  VAL312     -0.1966
     51  CA        -1.2380   42.0330   -2.8910 C.3   312  VAL312      0.1727
     52  C         -2.1080   43.1610   -3.4290 C.2   312  VAL312      0.2616
     53  O         -1.6090   44.2340   -3.7710 O.2   312  VAL312     -0.2715
     54  CB        -0.8770   42.3380   -1.4160 C.3   312  VAL312      0.0290
     55  CG1       -2.1210   42.3280   -0.5440 C.3   312  VAL312      0.0023
     56  CG2        0.1350   41.3280   -0.8980 C.3   312  VAL312      0.0023
     57  N         -3.4050   42.8820   -3.5300 N.am  313  TYR313     -0.1974
     58  CA        -4.4000   43.9010   -3.8270 C.3   313  TYR313      0.1639
     59  C         -5.6670   43.5900   -3.0430 C.2   313  TYR313      0.2290
     60  O         -6.3830   42.6380   -3.3460 O.2   313  TYR313     -0.2864
     61  CB        -4.6990   43.9800   -5.3220 C.3   313  TYR313      0.0557
     62  CG        -5.6010   45.1400   -5.6610 C.2   313  TYR313     -0.0245
     63  CD1       -5.2750   46.4270   -5.2600 C.2   313  TYR313     -0.0305
     64  CD2       -6.7810   44.9520   -6.3630 C.2   313  TYR313     -0.0067
     65  CE1       -6.0900   47.4940   -5.5540 C.3   313  TYR313      0.0273
     66  CE2       -7.6080   46.0200   -6.6640 C.2   313  TYR313      0.0033
     67  CZ        -7.2540   47.2880   -6.2580 C.3   313  TYR313      0.1493
     68  OH        -8.0670   48.3550   -6.5540 O.3   313  TYR313     -0.2208
     69  N         -6.7860   39.9630   -2.0950 N.3   316  ASP316     -0.1239
     70  CA        -6.2020   39.0670   -3.0950 C.3   316  ASP316      0.1674
     71  C         -4.6890   39.0020   -2.9200 C.2   316  ASP316      0.2266
     72  O         -4.0240   40.0350   -2.8570 O.2   316  ASP316     -0.2867
     73  CB        -6.5410   39.5440   -4.5060 C.3   316  ASP316      0.1410
     74  CG        -8.0290   39.5410   -4.7770 C.2   316  ASP316      0.3668
     75  OD1       -8.5900   38.4480   -5.0070 O.co2 316  ASP316     -0.2456
     76  OD2       -8.6350   40.6320   -4.7670 O.co2 316  ASP316     -0.2456
     77  N         -0.9740   36.7860   -3.9770 N.3   318  VAL318     -0.1245
     78  CA        -0.1360   35.7890   -4.6320 C.3   318  VAL318      0.1561
     79  C          1.2770   35.8650   -4.0720 C.2   318  VAL318      0.2260
     80  O          1.8090   36.9560   -3.8610 O.2   318  VAL318     -0.2867
     81  CB        -0.0760   35.9890   -6.1640 C.3   318  VAL318      0.0252
     82  CG1        1.0230   35.1210   -6.7850 C.3   318  VAL318      0.0019
     83  CG2       -1.4160   35.6670   -6.7890 C.3   318  VAL318      0.0019
     84  N          5.1530   34.3060   -4.9410 N.3   320  ILE320     -0.1245
     85  CA         6.0460   33.5770   -5.8380 C.3   320  ILE320      0.1561
     86  C          7.3840   33.4300   -5.1170 C.2   320  ILE320      0.2260
     87  O          7.9390   34.4210   -4.6360 O.2   320  ILE320     -0.2867
     88  CB         6.2440   34.3110   -7.1810 C.3   320  ILE320      0.0252
     89  CG1        4.9090   34.4420   -7.9220 C.3   320  ILE320      0.0019
     90  CG2        7.2470   33.5650   -8.0520 C.3   320  ILE320      0.0019
     91  CD1        4.9750   35.3160   -9.1540 C.3   320  ILE320      0.0001
     92  N          3.4650   29.6940  -14.4010 N.3   357  LEU357     -0.1245
     93  CA         2.9610   31.0310  -14.0690 C.3   357  LEU357      0.1561
     94  C          1.5280   31.2550  -14.5560 C.2   357  LEU357      0.2260
     95  O          0.7500   31.9360  -13.8920 O.2   357  LEU357     -0.2867
     96  CB         3.8780   32.1180  -14.6470 C.3   357  LEU357      0.0270
     97  CG         3.4520   33.5760  -14.4230 C.3   357  LEU357      0.0019
     98  CD1        3.2490   33.8750  -12.9440 C.3   357  LEU357      0.0001
     99  CD2        4.4660   34.5330  -15.0290 C.3   357  LEU357      0.0001
    100  N         -1.6850   30.2490  -12.2280 N.3   360  ILE360     -0.1245
    101  CA        -2.0120   30.9920  -11.0150 C.3   360  ILE360      0.1561
    102  C         -3.0940   32.0170  -11.3440 C.2   360  ILE360      0.2260
    103  O         -2.9100   32.8460  -12.2370 O.2   360  ILE360     -0.2867
    104  CB        -0.7760   31.7130  -10.4350 C.3   360  ILE360      0.0252
    105  CG1        0.3540   30.7130  -10.1630 C.3   360  ILE360      0.0019
    106  CG2       -1.1430   32.4440   -9.1470 C.3   360  ILE360      0.0019
    107  CD1        1.6390   31.3560   -9.6940 C.3   360  ILE360      0.0001
    108  N         -5.4570   35.1050   -9.7980 N.3   362  SER362     -0.1202
    109  CA        -5.6210   36.0920   -8.7300 C.3   362  SER362      0.2020
    110  C         -6.2670   37.3580   -9.2860 C.2   362  SER362      0.2619
    111  O         -5.9660   37.7740  -10.4090 O.2   362  SER362     -0.2717
    112  CB        -4.2740   36.4210   -8.0950 C.3   362  SER362      0.2103
    113  OG        -4.4020   37.4600   -7.1400 O.3   362  SER362     -0.2182
    114  N         -7.1420   37.9710   -8.4870 N.am  363  CYS363     -0.1955
    115  CA        -8.0820   38.9770   -8.9840 C.3   363  CYS363      0.1843
    116  C         -8.7680   38.4390  -10.2450 C.2   363  CYS363      0.2626
    117  O         -8.8710   39.1340  -11.2560 O.2   363  CYS363     -0.2714
    118  CB        -7.3820   40.3160   -9.2630 C.3   363  CYS363      0.0997
    119  SG        -6.6840   41.1480   -7.8050 S.3   363  CYS363     -0.0797
    120  N         -9.1950   37.1770  -10.1750 N.am  364  SER364     -0.1936
    121  CA        -9.8780   36.4750  -11.2720 C.3   364  SER364      0.2055
    122  C         -9.0730   36.3310  -12.5780 C.2   364  SER364      0.2644
    123  O         -9.5910   35.8030  -13.5630 O.2   364  SER364     -0.2714
    124  CB       -11.2320   37.1370  -11.5690 C.3   364  SER364      0.2130
    125  OG       -12.0230   37.2400  -10.3960 O.3   364  SER364     -0.2179
    126  N         -7.8120   36.7640  -12.5780 N.am  365  SER365     -0.1935
    127  CA        -7.0340   36.8890  -13.8110 C.3   365  SER365      0.2055
    128  C         -5.8080   35.9850  -13.8240 C.2   365  SER365      0.2643
    129  O         -5.3430   35.5420  -12.7760 O.2   365  SER365     -0.2714
    130  CB        -6.5880   38.3380  -13.9920 C.3   365  SER365      0.2130
    131  OG        -7.6950   39.2170  -13.9280 O.3   365  SER365     -0.2179
    132  N         -5.2900   35.7240  -15.0240 N.am  366  ASN366     -0.1957
    133  CA        -4.0640   34.9440  -15.2010 C.3   366  ASN366      0.1819
    134  C         -3.2350   35.4580  -16.3740 C.2   366  ASN366      0.2621
    135  O         -3.7620   36.0990  -17.2850 O.2   366  ASN366     -0.2715
    136  CB        -4.3880   33.4590  -15.4130 C.3   366  ASN366      0.1195
    137  CG        -5.0470   33.1850  -16.7580 C.2   366  ASN366      0.2630
    138  OD1       -6.2660   33.2570  -16.8900 O.2   366  ASN366     -0.2716
    139  ND2       -4.2390   32.8510  -17.7570 N.am  366  ASN366     -0.0877
    140  N         -1.9400   35.1610  -16.3480 N.am  367  VAL367     -0.1977
    141  CA        -1.0450   35.5130  -17.4430 C.3   367  VAL367      0.1596
    142  C         -1.1970   34.5020  -18.5780 C.2   367  VAL367      0.2287
    143  O         -1.3490   33.3050  -18.3360 O.2   367  VAL367     -0.2864
    144  CB         0.4320   35.5410  -16.9880 C.3   367  VAL367      0.0276
    145  CG1        1.3480   35.8600  -18.1610 C.3   367  VAL367      0.0022
    146  CG2        0.6300   36.5520  -15.8660 C.3   367  VAL367      0.0022
    147  N         -2.5870   39.9180  -19.4840 N.3   381  LEU381     -0.1245
    148  CA        -3.5110   39.3760  -18.4910 C.3   381  LEU381      0.1561
    149  C         -4.8760   39.1260  -19.1150 C.2   381  LEU381      0.2260
    150  O         -5.4000   39.9580  -19.8640 O.2   381  LEU381     -0.2867
    151  CB        -3.6440   40.3080  -17.2870 C.3   381  LEU381      0.0270
    152  CG        -2.5290   40.1550  -16.2510 C.3   381  LEU381      0.0019
    153  CD1       -2.3310   41.4580  -15.4920 C.3   381  LEU381      0.0001
    154  CD2       -2.7980   38.9950  -15.2990 C.3   381  LEU381      0.0001
    155  N         -8.7570   36.5630  -18.3870 N.3   383  ARG383     -0.1245
    156  CA        -9.5690   35.8430  -17.4220 C.3   383  ARG383      0.1563
    157  C        -10.6080   35.0120  -18.1500 C.2   383  ARG383      0.2260
    158  O        -10.7980   35.1570  -19.3600 O.2   383  ARG383     -0.2867
    159  CB       -10.2580   36.8130  -16.4600 C.3   383  ARG383      0.0307
    160  CG       -11.1530   37.8630  -17.1260 C.3   383  ARG383      0.0489
    161  CD       -12.0710   38.5230  -16.1070 C.3   383  ARG383      0.2205
    162  NE       -12.9900   37.5530  -15.5100 N.pl3 383  ARG383     -0.0865
    163  CZ       -13.6560   37.7240  -14.3690 C.cat 383  ARG383      0.5346
    164  NH1      -13.5320   38.8420  -13.6600 N.pl3 383  ARG383      0.1354
    165  NH2      -14.4580   36.7590  -13.9310 N.pl3 383  ARG383      0.1354
    166  N        -22.5120   39.9000  -17.7830 N.3   391  ARG391     -0.1245
    167  CA       -22.7640   41.3070  -17.4720 C.3   391  ARG391      0.1563
    168  C        -22.9780   42.1520  -18.7330 C.2   391  ARG391      0.2260
    169  O        -23.7800   43.0890  -18.7250 O.2   391  ARG391     -0.2867
    170  CB       -21.6390   41.8630  -16.5950 C.3   391  ARG391      0.0307
    171  CG       -21.6510   41.2270  -15.2150 C.3   391  ARG391      0.0489
    172  CD       -20.5410   41.6840  -14.2950 C.3   391  ARG391      0.2205
    173  NE       -20.6380   40.9770  -13.0180 N.pl3 391  ARG391     -0.0865
    174  CZ       -19.8610   41.1940  -11.9600 C.cat 391  ARG391      0.5346
    175  NH1      -18.9020   42.1150  -11.9930 N.pl3 391  ARG391      0.1354
    176  NH2      -20.0500   40.4820  -10.8560 N.pl3 391  ARG391      0.1354
    177  N         -9.5120   47.2320  -19.4560 N.3   411  MET411     -0.1230
    178  CA        -8.6360   46.3980  -18.6240 C.3   411  MET411      0.1702
    179  C         -8.1360   45.1590  -19.3690 C.2   411  MET411      0.2592
    180  O         -7.0140   44.6990  -19.1400 O.2   411  MET411     -0.2718
    181  CB        -9.3660   45.9620  -17.3440 C.3   411  MET411      0.0401
    182  CG        -9.6550   47.0920  -16.3600 C.3   411  MET411      0.0596
    183  SD       -10.5540   46.5520  -14.8820 S.3   411  MET411     -0.1393
    184  CE       -12.1140   46.0220  -15.5890 C.3   411  MET411      0.0692
    185  N         -8.9750   44.6130  -20.2520 N.am  412  TYR412     -0.1976
    186  CA        -8.6440   43.3800  -20.9780 C.3   412  TYR412      0.1639
    187  C         -8.5520   43.5630  -22.5000 C.2   412  TYR412      0.2290
    188  O         -8.7760   42.6140  -23.2590 O.2   412  TYR412     -0.2864
    189  CB        -9.6560   42.2820  -20.6280 C.3   412  TYR412      0.0560
    190  CG        -9.5950   41.8560  -19.1780 C.ar  412  TYR412     -0.0198
    191  CD1       -8.5660   41.0420  -18.7240 C.ar  412  TYR412     -0.0009
    192  CD2      -10.5600   42.2670  -18.2640 C.ar  412  TYR412     -0.0009
    193  CE1       -8.4930   40.6460  -17.3960 C.ar  412  TYR412      0.0417
    194  CE2      -10.4990   41.8740  -16.9270 C.ar  412  TYR412      0.0417
    195  CZ        -9.4580   41.0640  -16.5040 C.ar  412  TYR412      0.1957
    196  OH        -9.3780   40.6630  -15.1940 O.3   412  TYR412     -0.2866
    197  N        -10.1350   49.8350  -10.9340 N.3   445  TYR445     -0.1241
    198  CA        -9.5750   49.6240   -9.5910 C.3   445  TYR445      0.1605
    199  C        -10.4290   50.2820   -8.5010 C.2   445  TYR445      0.2264
    200  O         -9.8970   50.8610   -7.5500 O.2   445  TYR445     -0.2867
    201  CB        -8.1200   50.1190   -9.4830 C.3   445  TYR445      0.0534
    202  CG        -7.1400   49.5890  -10.5170 C.ar  445  TYR445     -0.0201
    203  CD1       -7.4600   48.5220  -11.3590 C.ar  445  TYR445     -0.0009
    204  CD2       -5.8670   50.1460  -10.6260 C.ar  445  TYR445     -0.0009
    205  CE1       -6.5490   48.0520  -12.2970 C.ar  445  TYR445      0.0417
    206  CE2       -4.9490   49.6750  -11.5570 C.ar  445  TYR445      0.0417
    207  CZ        -5.2960   48.6270  -12.3880 C.ar  445  TYR445      0.1957
    208  OH        -4.3900   48.1560  -13.3120 O.3   445  TYR445     -0.2866
@<TRIPOS>BOND
     1   188   187    2
     2   187   186    1
     3   186   189    1
     4   186   185    1
     5   189   190    1
     6   185   179   am
     7   150   149    2
     8   147   148    1
     9   177   178    1
    10   179   180    2
    11   179   178    1
    12   158   157    2
    13   190   191   ar
    14   190   192   ar
    15   149   148    1
    16   168   169    2
    17   168   167    1
    18   191   193   ar
    19   178   181    1
    20   142   143    2
    21   142   141    1
    22   148   151    1
    23   155   156    1
    24   192   194   ar
    25   145   144    1
    26   157   156    1
    27   166   167    1
    28   139   137   am
    29    20    21    1
    30    20    17    1
    31   167   170    1
    32   141   144    1
    33   141   140    1
    34   156   159    1
    35   193   195   ar
    36    18    19    2
    37    18    17    1
    38    21    22    1
    39   181   182    1
    40   151   152    1
    41   135   134    2
    42   160   159    1
    43   160   161    1
    44   144   146    1
    45   194   195   ar
    46    22    16    1
    47   138   137    2
    48   137   136    1
    49    17    16    1
    50   170   171    1
    51   195   196    1
    52   134   140   am
    53   134   133    1
    54   182   183    1
    55   152   153    1
    56   152   154    1
    57   161   162    1
    58   184   183    1
    59   162   163    2
    60   136   133    1
    61   171   172    1
    62   133   132    1
    63    99    97    1
    64   132   128   am
    65    23    24    1
    66    96    97    1
    67    96    93    1
    68    94    93    1
    69    94    95    2
    70    97    98    1
    71    25    24    1
    72    25    26    2
    73    92    93    1
    74   163   165    1
    75   163   164    1
    76   172   173    1
    77   130   131    1
    78   130   127    1
    79    24    27    1
    80   128   127    1
    81   128   129    2
    82   127   126    1
    83    27    28    1
    84   123   122    2
    85    36    37    2
    86    36    35    1
    87   208   207    1
    88   173   174    2
    89    38    35    1
    90    38    39    1
    91    34    35    1
    92    40    39    1
    93   126   122   am
    94   122   121    1
    95    28    29    1
    96   207   205   ar
    97   207   206   ar
    98    29    30    1
    99   205   203   ar
   100   103   102    2
   101   100   101    1
   102    30    31    2
   103    39    41    1
   104   175   174    1
   105   174   176    1
   106   124   121    1
   107   124   125    1
   108   206   204   ar
   109   203   202   ar
   110   102   101    1
   111   121   120    1
   112   117   116    2
   113    33    31    1
   114    31    32    1
   115   101   104    1
   116   197   198    1
   117   204   202   ar
   118   202   201    1
   119   104   105    1
   120   104   106    1
   121   111   110    2
   122   116   120   am
   123   116   115    1
   124   105   107    1
   125   108   109    1
   126   198   201    1
   127   198   199    1
   128   110   109    1
   129   110   114   am
   130   118   115    1
   131   118   119    1
   132    91    89    1
   133     8     7    2
   134   115   114    1
   135     4     3    2
   136   109   112    1
   137    49    47    1
   138   199   200    2
   139     7     6    1
   140   112   113    1
   141    90    88    1
   142    89    88    1
   143     3     5   am
   144     3     2    1
   145     6     5    1
   146     6     9    1
   147    47    48    1
   148    47    46    1
   149    88    85    1
   150    11    13    1
   151    11    10    2
   152    83    81    1
   153    82    81    1
   154     2     1    1
   155    66    64    2
   156    66    67    1
   157    68    67    1
   158     9    10    1
   159    13    67    1
   160    13    65    1
   161    64    62    1
   162    46    43    1
   163    67    15    1
   164    81    78    1
   165    10    12    1
   166    85    86    1
   167    85    84    1
   168    62    61    1
   169    62    63    2
   170    65    63    1
   171    65    15    1
   172    65    14    1
   173    61    58    1
   174    86    87    2
   175    75    74   ar
   176    43    44    1
   177    43    42    1
   178    74    76   ar
   179    74    73    1
   180    78    79    1
   181    78    77    1
   182    73    70    1
   183    44    45    2
   184    44    50   am
   185    79    80    2
   186    58    57    1
   187    58    59    1
   188    53    52    2
   189    50    51    1
   190    57    52   am
   191    52    51    1
   192    60    59    2
   193    70    71    1
   194    70    69    1
   195    71    72    2
   196    51    54    1
   197    54    56    1
   198    54    55    1
