@<TRIPOS>MOLECULE
tmp/4kb8A00.pdb
 167 156 0 0 0
SMALL
GASTEIGER

@<TRIPOS>ATOM
      1  N         -8.5320    3.1450   17.3640 N.3    13  ILE13      -0.1245
      2  CA        -7.1100    3.1000   17.0230 C.3    13  ILE13       0.1561
      3  C         -6.8270    4.2660   16.0720 C.2    13  ILE13       0.2260
      4  O         -5.9730    5.1060   16.3520 O.2    13  ILE13      -0.2867
      5  CB        -6.7180    1.7040   16.4330 C.3    13  ILE13       0.0252
      6  CG1       -6.9440    0.5350   17.4330 C.3    13  ILE13       0.0019
      7  CG2       -5.3050    1.6820   15.8280 C.3    13  ILE13       0.0019
      8  CD1       -6.3150    0.6530   18.8900 C.3    13  ILE13       0.0001
      9  N         -8.3500    5.4840   11.7390 N.3    15  SER15      -0.1202
     10  CA        -9.3910    5.5160   10.7270 C.3    15  SER15       0.2020
     11  C         -8.9220    4.9250    9.4120 C.2    15  SER15       0.2619
     12  O         -7.7370    5.0200    9.0460 O.2    15  SER15      -0.2717
     13  CB        -9.9010    6.9420   10.5140 C.3    15  SER15       0.2103
     14  OG       -11.1490    6.9690    9.8370 O.3    15  SER15      -0.2182
     15  N         -9.8640    4.3010    8.7230 N.am   16  GLY16      -0.1956
     16  CA        -9.6480    3.7280    7.4060 C.3    16  GLY16       0.1869
     17  C        -10.4570    4.5200    6.4110 C.2    16  GLY16       0.2309
     18  O        -11.0140    5.5690    6.7560 O.2    16  GLY16      -0.2863
     19  N        -11.4330    2.5170   13.0920 N.3    21  ILE21      -0.1245
     20  CA       -10.8480    1.2600   13.5650 C.3    21  ILE21       0.1561
     21  C        -10.7940    1.3190   15.0960 C.2    21  ILE21       0.2260
     22  O        -10.5210    2.3930   15.6260 O.2    21  ILE21      -0.2867
     23  CB        -9.4160    1.0700   12.9650 C.3    21  ILE21       0.0252
     24  CG1       -9.3400    1.3620   11.4400 C.3    21  ILE21       0.0019
     25  CG2       -8.8180   -0.2920   13.3360 C.3    21  ILE21       0.0019
     26  CD1      -10.3830    0.6410   10.5100 C.3    21  ILE21       0.0001
     27  N         -8.7550   -6.3900   15.6950 N.3    34  ALA34      -0.1245
     28  CA        -8.9790   -5.0310   15.2240 C.3    34  ALA34       0.1562
     29  C        -10.3980   -5.0010   14.6230 C.2    34  ALA34       0.2260
     30  O        -10.7740   -5.9110   13.8840 O.2    34  ALA34      -0.2867
     31  CB        -7.9360   -4.6410   14.1960 C.3    34  ALA34       0.0290
     32  N        -13.4870   -2.7640   12.5890 N.3    36  LYS36      -0.1245
     33  CA       -13.8670   -1.6280   11.7520 C.3    36  LYS36       0.1561
     34  C        -15.3750   -1.4790   11.8410 C.2    36  LYS36       0.2260
     35  O        -16.1040   -2.4590   11.6840 O.2    36  LYS36      -0.2867
     36  CB       -13.3930   -1.8000   10.2840 C.3    36  LYS36       0.0271
     37  CG       -13.5770   -0.5510    9.4090 C.3    36  LYS36       0.0035
     38  CD       -12.9630   -0.7220    8.0260 C.3    36  LYS36       0.0206
     39  CE       -13.0790    0.5310    7.1930 C.3    36  LYS36       0.1093
     40  NZ       -12.3460    0.3850    5.9130 N.3    36  LYS36      -0.1314
     41  N        -16.3700   -4.2320    0.8660 N.3    50  GLU50      -0.1245
     42  CA       -14.9650   -4.4020    1.2510 C.3    50  GLU50       0.1567
     43  C        -14.7010   -5.8030    1.8490 C.2    50  GLU50       0.2260
     44  O        -13.6700   -6.4000    1.5380 O.2    50  GLU50      -0.2867
     45  CB       -14.5540   -3.3130    2.2430 C.3    50  GLU50       0.0388
     46  CG       -13.0470   -3.1360    2.3440 C.3    50  GLU50       0.1160
     47  CD       -12.5800   -2.0810    3.3220 C.2    50  GLU50       0.3649
     48  OE1      -11.3470   -1.9040    3.4260 O.co2  50  GLU50      -0.2457
     49  OE2      -13.4340   -1.3550    3.8850 O.co2  50  GLU50      -0.2457
     50  N        -11.8970   -8.6170    0.7520 N.3    54  TYR54      -0.1241
     51  CA       -10.9980   -9.3200    1.6810 C.3    54  TYR54       0.1605
     52  C        -11.1770  -10.8470    1.5620 C.2    54  TYR54       0.2264
     53  O        -10.1750  -11.5640    1.4710 O.2    54  TYR54      -0.2867
     54  CB       -11.2490   -8.8720    3.1370 C.3    54  TYR54       0.0534
     55  CG       -10.5090   -7.6130    3.5360 C.ar   54  TYR54      -0.0201
     56  CD1       -9.1220   -7.6140    3.6860 C.ar   54  TYR54      -0.0009
     57  CD2      -11.2000   -6.4380    3.8290 C.ar   54  TYR54      -0.0009
     58  CE1       -8.4350   -6.4710    4.0840 C.ar   54  TYR54       0.0417
     59  CE2      -10.5260   -5.2980    4.2610 C.ar   54  TYR54       0.0417
     60  CZ        -9.1400   -5.3180    4.3730 C.ar   54  TYR54       0.1957
     61  OH        -8.4480   -4.2180    4.8080 O.3    54  TYR54      -0.2866
     62  N        -16.8700   -5.2270   10.9920 N.3    78  MET78      -0.1245
     63  CA       -15.9210   -6.1480   10.3930 C.3    78  MET78       0.1570
     64  C        -14.7930   -6.3910   11.4040 C.2    78  MET78       0.2261
     65  O        -14.2290   -5.4410   11.9570 O.2    78  MET78      -0.2867
     66  CB       -15.4050   -5.6320    9.0550 C.3    78  MET78       0.0387
     67  CG       -14.4540   -6.6200    8.3520 C.3    78  MET78       0.0595
     68  SD       -14.1810   -6.2340    6.6080 S.3    78  MET78      -0.1393
     69  CE       -13.2880   -4.7430    6.7440 C.3    78  MET78       0.0692
     70  N        -11.0820   -8.0890   12.1500 N.3    80  MET80      -0.1182
     71  CA        -9.8570   -8.5460   11.5140 C.3    80  MET80       0.1917
     72  C         -8.8430   -8.9460   12.6010 C.2    80  MET80       0.2635
     73  O         -8.8670   -8.4140   13.7230 O.2    80  MET80      -0.2714
     74  CB        -9.3210   -7.4120   10.5870 C.2    80  MET80       0.0083
     75  CG        -7.9460   -7.6460    9.9610 C.2    80  MET80       0.0282
     76  SD        -7.2090   -6.1960    9.1080 S.3    80  MET80      -0.1125
     77  CE        -8.3130   -6.0410    7.7620 C.3    80  MET80       0.0742
     78  N         -7.9420   -9.8690   12.2580 N.am   81  GLU81      -0.1963
     79  CA        -6.8540  -10.2490   13.1460 C.3    81  GLU81       0.1733
     80  C         -6.0340   -8.9940   13.4640 C.2    81  GLU81       0.2616
     81  O         -5.9910   -8.0750   12.6700 O.2    81  GLU81      -0.2715
     82  CB        -5.9590  -11.3190   12.4980 C.3    81  GLU81       0.0429
     83  CG        -5.2910  -10.8950   11.1910 C.3    81  GLU81       0.1163
     84  CD        -4.2470  -11.8430   10.6460 C.2    81  GLU81       0.3649
     85  OE1       -4.2130  -12.0390    9.4100 O.co2  81  GLU81      -0.2457
     86  OE2       -3.4670  -12.3960   11.4510 O.co2  81  GLU81      -0.2457
     87  N         -5.4190   -8.9440   14.6320 N.am   82  LEU82      -0.1963
     88  CA        -4.6290   -7.7870   15.0020 C.3    82  LEU82       0.1728
     89  C         -3.2800   -7.8300   14.2880 C.2    82  LEU82       0.2616
     90  O         -2.5900   -8.8580   14.2720 O.2    82  LEU82      -0.2715
     91  CB        -4.4420   -7.7140   16.5250 C.3    82  LEU82       0.0311
     92  CG        -3.8100   -6.4170   17.0800 C.3    82  LEU82       0.0022
     93  CD1       -4.7920   -5.2350   16.9740 C.3    82  LEU82       0.0001
     94  CD2       -3.3770   -6.6150   18.5150 C.3    82  LEU82       0.0001
     95  N         -2.9370   -6.7140   13.6580 N.am   83  LEU83      -0.1963
     96  CA        -1.6620   -6.5620   12.9460 C.3    83  LEU83       0.1728
     97  C         -0.8600   -5.5230   13.7120 C.2    83  LEU83       0.2617
     98  O         -1.4150   -4.8410   14.5910 O.2    83  LEU83      -0.2715
     99  CB        -1.8930   -6.0880   11.4950 C.3    83  LEU83       0.0311
    100  CG        -2.7620   -6.9530   10.5540 C.3    83  LEU83       0.0022
    101  CD1       -2.8400   -6.3250    9.1780 C.3    83  LEU83       0.0001
    102  CD2       -2.2460   -8.4070   10.4540 C.3    83  LEU83       0.0001
    103  N          0.4160   -5.3850   13.3650 N.am   84  GLY84      -0.1941
    104  CA         1.3060   -4.4410   14.0120 C.3    84  GLY84       0.1998
    105  C          1.2430   -3.0490   13.4290 C.2    84  GLY84       0.2481
    106  O          0.2880   -2.7110   12.7300 O.2    84  GLY84      -0.2729
    107  N          2.2650   -2.2060   13.6880 N.am   85  PRO85      -0.2715
    108  CA         2.1990   -0.8280   13.1820 C.3    85  PRO85       0.1536
    109  C          2.3270   -0.7290   11.6670 C.2    85  PRO85       0.2599
    110  O          2.8650   -1.6330   11.0310 O.2    85  PRO85      -0.2715
    111  CB         3.3400   -0.1340   13.9080 C.3    85  PRO85       0.0310
    112  CG         4.2960   -1.2350   14.2520 C.3    85  PRO85       0.0237
    113  CD         3.4770   -2.4420   14.5050 C.3    85  PRO85       0.0939
    114  N          1.8380    0.3780   11.1020 N.am   86  SER86      -0.1950
    115  CA         1.9540    0.6570    9.6710 C.3    86  SER86       0.1924
    116  C          3.4140    1.0510    9.3470 C.2    86  SER86       0.2314
    117  O          4.1710    1.4080   10.2470 O.2    86  SER86      -0.2863
    118  CB         1.0250    1.7940    9.2670 C.3    86  SER86       0.2116
    119  OG         1.5240    3.0380    9.7340 O.3    86  SER86      -0.2180
    120  N          3.9920    4.5820   10.6290 N.3    89  ASP89      -0.1239
    121  CA         4.2860    4.5860   12.0690 C.3    89  ASP89       0.1674
    122  C          5.7330    4.1760   12.2960 C.2    89  ASP89       0.2266
    123  O          6.4470    4.8520   13.0400 O.2    89  ASP89      -0.2867
    124  CB         3.3450    3.6270   12.8270 C.3    89  ASP89       0.1410
    125  CG         1.8730    4.0200   12.8190 C.2    89  ASP89       0.3668
    126  OD1        1.5800    5.2250   12.6560 O.co2  89  ASP89      -0.2456
    127  OD2        1.0130    3.1200   12.9880 O.co2  89  ASP89      -0.2456
    128  N          0.8040    4.1500    5.1250 N.3   130  ASP130     -0.1225
    129  CA        -0.1420    3.7770    6.1720 C.3   130  ASP130      0.1805
    130  C         -1.0810    2.6030    5.8170 C.2   130  ASP130      0.2597
    131  O         -1.7010    2.0370    6.6990 O.2   130  ASP130     -0.2718
    132  CB        -0.7690    4.9750    6.9170 C.3   130  ASP130      0.1424
    133  CG        -1.6690    5.8700    6.1220 C.2   130  ASP130      0.3668
    134  OD1       -1.3570    7.0750    6.0140 O.co2 130  ASP130     -0.2456
    135  OD2       -2.7460    5.3970    5.6960 O.co2 130  ASP130     -0.2456
    136  N         -1.0630    2.1540    4.5470 N.am  131  ASN131     -0.1974
    137  CA        -1.8380    1.0060    4.0730 C.3   131  ASN131      0.1688
    138  C         -1.0650   -0.2920    4.0320 C.2   131  ASN131      0.2292
    139  O         -1.5670   -1.3070    3.5490 O.2   131  ASN131     -0.2864
    140  CB        -2.5380    1.3140    2.7600 C.3   131  ASN131      0.1181
    141  CG        -3.8010    2.1040    2.9870 C.2   131  ASN131      0.2629
    142  OD1       -4.3130    2.1960    4.1030 O.2   131  ASN131     -0.2716
    143  ND2       -4.3100    2.7040    1.9420 N.am  131  ASN131     -0.0877
    144  N          0.9570   -2.7640    6.7570 N.3   133  LEU133     -0.1245
    145  CA         1.1950   -3.0080    8.1930 C.3   133  LEU133      0.1561
    146  C          2.0800   -4.2310    8.3920 C.2   133  LEU133      0.2260
    147  O          1.9090   -5.2330    7.6970 O.2   133  LEU133     -0.2867
    148  CB        -0.1700   -3.2270    8.8980 C.3   133  LEU133      0.0270
    149  CG        -0.8990   -1.9840    9.4620 C.3   133  LEU133      0.0019
    150  CD1       -1.3350   -0.9960    8.3530 C.3   133  LEU133      0.0001
    151  CD2       -2.1580   -2.3940   10.1750 C.3   133  LEU133      0.0001
    152  N         -3.4810   -3.4420    3.5260 N.3   146  ILE146     -0.1231
    153  CA        -4.8270   -3.2200    4.0490 C.3   146  ILE146      0.1692
    154  C         -5.5850   -2.1890    3.2140 C.2   146  ILE146      0.2592
    155  O         -4.9990   -1.5350    2.3390 O.2   146  ILE146     -0.2718
    156  CB        -4.8030   -2.8090    5.5610 C.3   146  ILE146      0.0266
    157  CG1       -4.1690   -1.4160    5.7460 C.3   146  ILE146      0.0019
    158  CG2       -4.1380   -3.8790    6.4660 C.3   146  ILE146      0.0020
    159  CD1       -4.7290   -0.6330    6.7600 C.3   146  ILE146      0.0001
    160  N         -6.8980   -2.0280    3.5320 N.am  147  ASP147     -0.1974
    161  CA        -7.8070   -1.0460    2.9890 C.3   147  ASP147      0.1709
    162  C         -8.1690   -1.2020    1.5320 C.2   147  ASP147      0.2293
    163  O         -7.4380   -0.7480    0.6500 O.2   147  ASP147     -0.2864
    164  CB        -7.3740    0.3920    3.3400 C.3   147  ASP147      0.1436
    165  CG        -8.5510    1.3040    3.5580 C.2   147  ASP147      0.3671
    166  OD1       -9.3680    1.4470    2.6250 O.co2 147  ASP147     -0.2456
    167  OD2       -8.6600    1.8730    4.6610 O.co2 147  ASP147     -0.2456
@<TRIPOS>BOND
     1   163   162    2
     2    50    51    1
     3    41    42    1
     4    42    43    1
     5    42    45    1
     6    53    52    2
     7   162   161    1
     8    44    43    2
     9    52    51    1
    10    51    54    1
    11   143   141   am
    12    45    46    1
    13   155   154    2
    14    46    47    1
    15   166   165   ar
    16   140   141    1
    17   140   137    1
    18   141   142    2
    19   161   164    1
    20   161   160    1
    21    54    55    1
    22   154   160   am
    23   154   153    1
    24    47    48   ar
    25    47    49   ar
    26   164   165    1
    27   152   153    1
    28    55    56   ar
    29    55    57   ar
    30   139   138    2
    31   165   167   ar
    32    56    58   ar
    33    57    59   ar
    34   138   137    1
    35   153   156    1
    36   137   136    1
    37    58    60   ar
    38    59    60   ar
    39    60    61    1
    40   136   130   am
    41   128   129    1
    42   156   157    1
    43   156   158    1
    44   135   133   ar
    45   157   159    1
    46   130   129    1
    47   130   131    2
    48    40    39    1
    49   134   133   ar
    50   133   132    1
    51   129   132    1
    52    17    18    2
    53    17    16    1
    54    68    69    1
    55    68    67    1
    56   144   145    1
    57    39    38    1
    58    16    15    1
    59   147   146    2
    60    77    76    1
    61    38    37    1
    62   145   146    1
    63   145   148    1
    64    67    66    1
    65   150   149    1
    66    15    11   am
    67   148   149    1
    68    12    11    2
    69    66    63    1
    70    76    75    1
    71   101   100    1
    72   118   115    1
    73   118   119    1
    74   116   115    1
    75   116   117    2
    76    37    36    1
    77    85    84   ar
    78    11    10    1
    79   149   151    1
    80   115   114    1
    81    14    13    1
    82    75    74    2
    83    36    33    1
    84    63    62    1
    85    63    64    1
    86   102   100    1
    87    26    24    1
    88    13    10    1
    89   100    99    1
    90    74    71    1
    91   120   121    1
    92    84    83    1
    93    84    86   ar
    94    10     9    1
    95   110   109    2
    96   114   109   am
    97    83    82    1
    98    64    65    2
    99    24    23    1
   100    99    96    1
   101    71    70    1
   102    71    72    1
   103   109   108    1
   104    35    34    2
   105    33    34    1
   106    33    32    1
   107   121   122    1
   108   121   124    1
   109    78    72   am
   110    78    79    1
   111   122   123    2
   112    82    79    1
   113    72    73    2
   114   126   125   ar
   115    81    80    2
   116   106   105    2
   117   125   124    1
   118   125   127   ar
   119    96    95    1
   120    96    97    1
   121    23    25    1
   122    23    20    1
   123    19    20    1
   124    79    80    1
   125   108   107    1
   126   108   111    1
   127   103    97   am
   128   103   104    1
   129   105   107   am
   130   105   104    1
   131    80    87   am
   132    20    21    1
   133    95    89   am
   134   107   113    1
   135    97    98    2
   136    30    29    2
   137   111   112    1
   138    31    28    1
   139   112   113    1
   140    90    89    2
   141    89    88    1
   142    29    28    1
   143    87    88    1
   144    88    91    1
   145    21    22    2
   146    28    27    1
   147     7     5    1
   148     3     4    2
   149     3     2    1
   150     5     2    1
   151     5     6    1
   152    91    92    1
   153    93    92    1
   154     2     1    1
   155    92    94    1
   156     6     8    1
