@<TRIPOS>MOLECULE
tmp/4kb8C00.pdb
 183 170 0 0 0
SMALL
GASTEIGER

@<TRIPOS>ATOM
      1  N         -8.5310  -25.8750  -58.6370 N.3     9  ILE9       -0.1245
      2  CA        -7.1170  -25.8820  -58.2300 C.3     9  ILE9        0.1561
      3  C         -6.8250  -27.0060  -57.2210 C.2     9  ILE9        0.2260
      4  O         -5.8270  -27.7200  -57.3570 O.2     9  ILE9       -0.2867
      5  CB        -6.6880  -24.4610  -57.7200 C.3     9  ILE9        0.0252
      6  CG1       -6.7020  -23.3920  -58.8480 C.3     9  ILE9        0.0019
      7  CG2       -5.3570  -24.4550  -56.9420 C.3     9  ILE9        0.0019
      8  CD1       -6.2660  -23.8340  -60.2570 C.3     9  ILE9        0.0001
      9  N         -8.4010  -28.1450  -52.8840 N.3    11  SER11      -0.1202
     10  CA        -9.4370  -28.1260  -51.8510 C.3    11  SER11       0.2020
     11  C         -8.9740  -27.4930  -50.5540 C.2    11  SER11       0.2619
     12  O         -7.7900  -27.5400  -50.2100 O.2    11  SER11      -0.2717
     13  CB        -9.9550  -29.5390  -51.5810 C.3    11  SER11       0.2103
     14  OG       -11.2310  -29.5220  -50.9610 O.3    11  SER11      -0.2182
     15  N         -9.9290  -26.8950  -49.8580 N.am   12  GLY12      -0.1956
     16  CA        -9.7210  -26.2900  -48.5530 C.3    12  GLY12       0.1869
     17  C        -10.5160  -27.0760  -47.5460 C.2    12  GLY12       0.2309
     18  O        -11.0680  -28.1290  -47.8830 O.2    12  GLY12      -0.2863
     19  N        -11.4930  -25.0430  -54.2760 N.3    17  ILE17      -0.1242
     20  CA       -10.8900  -23.7980  -54.7520 C.3    17  ILE17       0.1601
     21  C        -10.7430  -23.8880  -56.2540 C.2    17  ILE17       0.2264
     22  O        -10.4070  -24.9560  -56.7590 O.2    17  ILE17      -0.2867
     23  CB        -9.5430  -23.5310  -54.0110 C.3    17  ILE17       0.0472
     24  CG1       -9.7980  -23.1810  -52.5290 C.2    17  ILE17      -0.0246
     25  CG2       -8.7540  -22.4150  -54.6540 C.3    17  ILE17       0.0066
     26  CD1       -9.7300  -24.2030  -51.6930 C.2    17  ILE17      -0.0049
     27  N         -9.9460  -21.2690  -60.0720 N.3    19  LEU19      -0.1245
     28  CA        -9.3180  -20.0870  -60.6250 C.3    19  LEU19       0.1561
     29  C        -10.4240  -19.1730  -61.1190 C.2    19  LEU19       0.2260
     30  O        -11.5220  -19.6450  -61.3870 O.2    19  LEU19      -0.2867
     31  CB        -8.3900  -20.4670  -61.7810 C.3    19  LEU19       0.0270
     32  CG        -7.1610  -19.5860  -61.8830 C.3    19  LEU19       0.0019
     33  CD1       -6.0900  -20.0440  -60.8980 C.3    19  LEU19       0.0001
     34  CD2       -6.6570  -19.5040  -63.3240 C.3    19  LEU19       0.0001
     35  N         -8.7780  -16.2290  -56.8820 N.3    30  ALA30      -0.1245
     36  CA        -9.0000  -17.5920  -56.3950 C.3    30  ALA30       0.1562
     37  C        -10.4120  -17.5940  -55.7790 C.2    30  ALA30       0.2260
     38  O        -10.7650  -16.6890  -55.0210 O.2    30  ALA30      -0.2867
     39  CB        -7.9650  -17.9660  -55.3520 C.3    30  ALA30       0.0290
     40  N        -13.4940  -19.8100  -53.7360 N.3    32  LYS32      -0.1245
     41  CA       -13.8730  -20.9490  -52.9030 C.3    32  LYS32       0.1561
     42  C        -15.3950  -21.1090  -52.9920 C.2    32  LYS32       0.2260
     43  O        -16.1380  -20.1280  -52.8490 O.2    32  LYS32      -0.2867
     44  CB       -13.3970  -20.7700  -51.4390 C.3    32  LYS32       0.0271
     45  CG       -13.6640  -21.9820  -50.5380 C.3    32  LYS32       0.0035
     46  CD       -12.9280  -21.8630  -49.2060 C.3    32  LYS32       0.0206
     47  CE       -13.0960  -23.0820  -48.3370 C.3    32  LYS32       0.1093
     48  NZ       -12.3450  -22.9210  -47.0610 N.3    32  LYS32      -0.1314
     49  N        -16.3860  -18.3440  -42.0170 N.3    46  GLU46      -0.1245
     50  CA       -14.9720  -18.1780  -42.4040 C.3    46  GLU46       0.1567
     51  C        -14.7020  -16.7780  -42.9790 C.2    46  GLU46       0.2260
     52  O        -13.6820  -16.1860  -42.6340 O.2    46  GLU46      -0.2867
     53  CB       -14.5660  -19.2420  -43.4220 C.3    46  GLU46       0.0388
     54  CG       -13.0660  -19.4440  -43.4850 C.3    46  GLU46       0.1160
     55  CD       -12.5900  -20.4740  -44.4840 C.2    46  GLU46       0.3649
     56  OE1      -11.3590  -20.6410  -44.5960 O.co2  46  GLU46      -0.2457
     57  OE2      -13.4340  -21.1890  -45.0690 O.co2  46  GLU46      -0.2457
     58  N        -11.9090  -13.9610  -41.8620 N.3    50  TYR50      -0.1241
     59  CA       -11.0200  -13.2530  -42.7960 C.3    50  TYR50       0.1605
     60  C        -11.2200  -11.7330  -42.6790 C.2    50  TYR50       0.2264
     61  O        -10.2280  -11.0050  -42.5950 O.2    50  TYR50      -0.2867
     62  CB       -11.2730  -13.7020  -44.2430 C.3    50  TYR50       0.0534
     63  CG       -10.5290  -14.9540  -44.6450 C.ar   50  TYR50      -0.0201
     64  CD1       -9.1430  -14.9430  -44.8030 C.ar   50  TYR50      -0.0009
     65  CD2      -11.2140  -16.1320  -44.9370 C.ar   50  TYR50      -0.0009
     66  CE1       -8.4530  -16.0770  -45.2120 C.ar   50  TYR50       0.0417
     67  CE2      -10.5410  -17.2590  -45.3920 C.ar   50  TYR50       0.0417
     68  CZ        -9.1540  -17.2290  -45.5090 C.ar   50  TYR50       0.1957
     69  OH        -8.4630  -18.3190  -45.9410 O.3    50  TYR50      -0.2866
     70  N        -10.1630  -10.5030  -49.0320 N.3    62  ILE62      -0.1245
     71  CA       -11.4090  -11.1100  -49.4930 C.3    62  ILE62       0.1561
     72  C        -12.1460  -10.0410  -50.3200 C.2    62  ILE62       0.2260
     73  O        -12.4500   -8.9640  -49.8150 O.2    62  ILE62      -0.2867
     74  CB       -12.2230  -11.8410  -48.3750 C.3    62  ILE62       0.0252
     75  CG1      -12.4470  -10.9590  -47.1080 C.3    62  ILE62       0.0019
     76  CG2      -11.5050  -13.1610  -48.0010 C.3    62  ILE62       0.0019
     77  CD1      -13.7060  -11.3120  -46.2550 C.3    62  ILE62       0.0001
     78  N        -16.8980  -17.3620  -52.1850 N.3    74  MET74      -0.1245
     79  CA       -15.9620  -16.4310  -51.5840 C.3    74  MET74       0.1570
     80  C        -14.8270  -16.2010  -52.5790 C.2    74  MET74       0.2261
     81  O        -14.2540  -17.1540  -53.0990 O.2    74  MET74      -0.2867
     82  CB       -15.4440  -16.9490  -50.2340 C.3    74  MET74       0.0387
     83  CG       -14.5310  -15.9580  -49.5210 C.3    74  MET74       0.0595
     84  SD       -14.2290  -16.3240  -47.7780 S.3    74  MET74      -0.1393
     85  CE       -13.2670  -17.7780  -47.9110 C.3    74  MET74       0.0692
     86  N        -11.0720  -14.5080  -53.3590 N.3    76  MET76      -0.1230
     87  CA        -9.8460  -14.0480  -52.7410 C.3    76  MET76       0.1702
     88  C         -8.8150  -13.6060  -53.7950 C.2    76  MET76       0.2592
     89  O         -8.7610  -14.1610  -54.9050 O.2    76  MET76      -0.2718
     90  CB        -9.3090  -15.2060  -51.8670 C.3    76  MET76       0.0401
     91  CG        -8.0820  -14.8880  -51.0600 C.3    76  MET76       0.0596
     92  SD        -7.5050  -16.3800  -50.2150 S.3    76  MET76      -0.1393
     93  CE        -6.0130  -16.2860  -50.5150 C.3    76  MET76       0.0692
     94  N         -7.9490  -12.6460  -53.4220 N.am   77  GLU77      -0.1966
     95  CA        -6.8500  -12.2670  -54.3080 C.3    77  GLU77       0.1733
     96  C         -6.0320  -13.5320  -54.5780 C.2    77  GLU77       0.2616
     97  O         -5.8860  -14.3890  -53.7000 O.2    77  GLU77      -0.2715
     98  CB        -5.9540  -11.1750  -53.6760 C.3    77  GLU77       0.0429
     99  CG        -5.0700  -11.6740  -52.5240 C.3    77  GLU77       0.1163
    100  CD        -4.1940  -10.6470  -51.8350 C.2    77  GLU77       0.3649
    101  OE1       -3.4390   -9.9400  -52.5360 O.co2  77  GLU77      -0.2457
    102  OE2       -4.2610  -10.5490  -50.5880 O.co2  77  GLU77      -0.2457
    103  N         -5.5080  -13.6470  -55.7850 N.am   78  LEU78      -0.1963
    104  CA        -4.6820  -14.7850  -56.1610 C.3    78  LEU78       0.1728
    105  C         -3.3290  -14.7220  -55.4470 C.2    78  LEU78       0.2616
    106  O         -2.6390  -13.6890  -55.4680 O.2    78  LEU78      -0.2715
    107  CB        -4.4790  -14.8420  -57.6920 C.3    78  LEU78       0.0311
    108  CG        -3.8480  -16.1300  -58.2450 C.3    78  LEU78       0.0022
    109  CD1       -4.8220  -17.3170  -58.1530 C.3    78  LEU78       0.0001
    110  CD2       -3.4320  -15.9370  -59.6780 C.3    78  LEU78       0.0001
    111  N         -2.9750  -15.8340  -54.8030 N.am   79  LEU79      -0.1963
    112  CA        -1.7040  -15.9920  -54.0980 C.3    79  LEU79       0.1728
    113  C         -0.8990  -17.0350  -54.8510 C.2    79  LEU79       0.2617
    114  O         -1.4400  -17.7080  -55.7250 O.2    79  LEU79      -0.2715
    115  CB        -1.9240  -16.4460  -52.6420 C.3    79  LEU79       0.0311
    116  CG        -2.7810  -15.5780  -51.7080 C.3    79  LEU79       0.0022
    117  CD1       -2.8320  -16.2050  -50.3240 C.3    79  LEU79       0.0001
    118  CD2       -2.2830  -14.1250  -51.6160 C.3    79  LEU79       0.0001
    119  N          0.3780  -17.1760  -54.4940 N.am   80  GLY80      -0.1941
    120  CA         1.2720  -18.1180  -55.1360 C.3    80  GLY80       0.1998
    121  C          1.2030  -19.5120  -54.5570 C.2    80  GLY80       0.2481
    122  O          0.2400  -19.8540  -53.8710 O.2    80  GLY80      -0.2729
    123  N          2.2190  -20.3530  -54.8260 N.am   81  PRO81      -0.2715
    124  CA         2.1540  -21.7310  -54.3300 C.3    81  PRO81       0.1536
    125  C          2.2930  -21.8340  -52.8120 C.2    81  PRO81       0.2599
    126  O          2.8380  -20.9310  -52.1620 O.2    81  PRO81      -0.2715
    127  CB         3.3120  -22.4150  -55.0560 C.3    81  PRO81       0.0310
    128  CG         4.2600  -21.3120  -55.3730 C.3    81  PRO81       0.0237
    129  CD         3.4310  -20.1170  -55.6390 C.3    81  PRO81       0.0939
    130  N          1.7990  -22.9420  -52.2600 N.am   82  SER82      -0.1950
    131  CA         1.9200  -23.2190  -50.8240 C.3    82  SER82       0.1924
    132  C          3.3690  -23.6220  -50.5070 C.2    82  SER82       0.2314
    133  O          4.1230  -23.9850  -51.4020 O.2    82  SER82      -0.2863
    134  CB         0.9830  -24.3490  -50.4200 C.3    82  SER82       0.2116
    135  OG         1.4550  -25.6010  -50.8890 O.3    82  SER82      -0.2180
    136  N          3.9190  -27.1440  -51.7800 N.3    85  ASP85      -0.1239
    137  CA         4.2200  -27.1640  -53.2170 C.3    85  ASP85       0.1674
    138  C          5.6750  -26.7520  -53.4520 C.2    85  ASP85       0.2266
    139  O          6.3950  -27.4360  -54.1700 O.2    85  ASP85      -0.2867
    140  CB         3.2820  -26.2140  -53.9850 C.3    85  ASP85       0.1410
    141  CG         1.8080  -26.5800  -53.9730 C.2    85  ASP85       0.3668
    142  OD1        1.4900  -27.7820  -53.7830 O.co2  85  ASP85      -0.2456
    143  OD2        0.9720  -25.6700  -54.1770 O.co2  85  ASP85      -0.2456
    144  N          0.7530  -26.6790  -46.2000 N.3   126  ASP126     -0.1225
    145  CA        -0.3100  -26.4680  -47.1830 C.3   126  ASP126      0.1805
    146  C         -1.1320  -25.1890  -46.9040 C.2   126  ASP126      0.2597
    147  O         -1.7620  -24.6610  -47.8190 O.2   126  ASP126     -0.2718
    148  CB        -1.2490  -27.7020  -47.2200 C.3   126  ASP126      0.1424
    149  CG        -0.5450  -29.0540  -47.1260 C.2   126  ASP126      0.3668
    150  OD1       -0.6860  -29.8550  -48.0790 O.co2 126  ASP126     -0.2456
    151  OD2        0.1690  -29.3100  -46.0730 O.co2 126  ASP126     -0.2456
    152  N         -1.1590  -24.7110  -45.6450 N.am  127  ASN127     -0.1974
    153  CA        -1.9250  -23.5120  -45.2450 C.3   127  ASN127      0.1688
    154  C         -1.1070  -22.2210  -45.1930 C.2   127  ASN127      0.2292
    155  O         -1.5950  -21.1730  -44.7400 O.2   127  ASN127     -0.2864
    156  CB        -2.7210  -23.7390  -43.9690 C.3   127  ASN127      0.1181
    157  CG        -3.9560  -24.5830  -44.1700 C.2   127  ASN127      0.2629
    158  OD1       -4.4620  -24.7590  -45.2880 O.2   127  ASN127     -0.2716
    159  ND2       -4.4280  -25.1600  -43.0990 N.am  127  ASN127     -0.0877
    160  N          0.9230  -19.8090  -47.8960 N.3   129  LEU129     -0.1245
    161  CA         1.1510  -19.5630  -49.3320 C.3   129  LEU129      0.1561
    162  C          2.0290  -18.3340  -49.5330 C.2   129  LEU129      0.2260
    163  O          1.8510  -17.3300  -48.8370 O.2   129  LEU129     -0.2867
    164  CB        -0.2110  -19.3350  -50.0360 C.3   129  LEU129      0.0270
    165  CG        -0.9450  -20.5760  -50.6070 C.3   129  LEU129      0.0019
    166  CD1       -1.3750  -21.5670  -49.5150 C.3   129  LEU129      0.0001
    167  CD2       -2.2040  -20.1500  -51.3210 C.3   129  LEU129      0.0001
    168  N         -3.5340  -19.1060  -44.6430 N.3   142  ILE142     -0.1231
    169  CA        -4.8870  -19.3190  -45.1510 C.3   142  ILE142      0.1692
    170  C         -5.6350  -20.3470  -44.3150 C.2   142  ILE142      0.2592
    171  O         -5.0570  -20.9970  -43.4280 O.2   142  ILE142     -0.2718
    172  CB        -4.8580  -19.7640  -46.6560 C.3   142  ILE142      0.0266
    173  CG1       -4.3440  -21.2320  -46.8010 C.3   142  ILE142      0.0019
    174  CG2       -4.1110  -18.7580  -47.5650 C.3   142  ILE142      0.0020
    175  CD1       -4.6480  -21.8840  -48.0460 C.3   142  ILE142      0.0001
    176  N         -6.9290  -20.5280  -44.6690 N.am  143  ASP143     -0.1974
    177  CA        -7.8540  -21.5080  -44.1420 C.3   143  ASP143      0.1709
    178  C         -8.2140  -21.3550  -42.6790 C.2   143  ASP143      0.2293
    179  O         -7.4800  -21.8120  -41.7980 O.2   143  ASP143     -0.2864
    180  CB        -7.4130  -22.9400  -44.5000 C.3   143  ASP143      0.1436
    181  CG        -8.5870  -23.8760  -44.6730 C.2   143  ASP143      0.3671
    182  OD1       -9.3990  -23.9920  -43.7280 O.co2 143  ASP143     -0.2456
    183  OD2       -8.6970  -24.4920  -45.7530 O.co2 143  ASP143     -0.2456
@<TRIPOS>BOND
     1    34    32    1
     2    32    31    1
     3    32    33    1
     4    31    28    1
     5    30    29    2
     6    29    28    1
     7    28    27    1
     8     8     6    1
     9   110   108    1
    10     6     5    1
    11     1     2    1
    12   108   109    1
    13   108   107    1
    14     2     5    1
    15     2     3    1
    16     5     7    1
    17   107   104    1
    18     4     3    2
    19    35    36    1
    20    22    21    2
    21    36    37    1
    22    36    39    1
    23    21    20    1
    24   104   103    1
    25   104   105    1
    26   103    96   am
    27    37    38    2
    28   114   113    2
    29   129   128    1
    30   129   123    1
    31   106   105    2
    32   105   111   am
    33   128   127    1
    34   120   121    1
    35   120   119    1
    36   127   124    1
    37    89    88    2
    38   113   119   am
    39   113   112    1
    40   123   121   am
    41   123   124    1
    42   111   112    1
    43    20    19    1
    44    20    23    1
    45    25    23    1
    46    96    95    1
    47    96    97    2
    48   121   122    2
    49   124   125    1
    50    95    98    1
    51    95    94    1
    52   143   141   ar
    53   139   138    2
    54   112   115    1
    55    23    24    1
    56   140   141    1
    57   140   137    1
    58   141   142   ar
    59    88    94   am
    60    88    87    1
    61    40    41    1
    62    98    99    1
    63   138   137    1
    64    86    87    1
    65   137   136    1
    66    81    80    2
    67    42    41    1
    68    42    43    2
    69    41    44    1
    70     9    10    1
    71   125   130   am
    72   125   126    2
    73    87    90    1
    74   115   116    1
    75    80    79    1
    76   101   100   ar
    77    24    26    2
    78    99   100    1
    79   130   131    1
    80    78    79    1
    81    90    91    1
    82    10    13    1
    83    10    11    1
    84   100   102   ar
    85   116   118    1
    86   116   117    1
    87    79    82    1
    88    13    14    1
    89    44    45    1
    90   133   132    2
    91   167   165    1
    92    91    92    1
    93   135   134    1
    94   131   132    1
    95   131   134    1
    96   165   164    1
    97   165   166    1
    98    11    12    2
    99    11    15   am
   100    45    46    1
   101    93    92    1
   102    72    73    2
   103    72    71    1
   104    82    83    1
   105   164   161    1
   106    15    16    1
   107   162   161    1
   108   162   163    2
   109    83    84    1
   110    71    70    1
   111    71    74    1
   112   161   160    1
   113    46    47    1
   114    16    17    1
   115    74    76    1
   116    74    75    1
   117    47    48    1
   118   150   149   ar
   119   175   173    1
   120    85    84    1
   121    18    17    2
   122   147   146    2
   123   174   172    1
   124   148   145    1
   125   148   149    1
   126   145   146    1
   127   145   144    1
   128   149   151   ar
   129    75    77    1
   130   146   152   am
   131   173   172    1
   132   172   169    1
   133    69    68    1
   134   183   181   ar
   135   152   153    1
   136    68    67   ar
   137    68    66   ar
   138    67    65   ar
   139   158   157    2
   140   153   154    1
   141   153   156    1
   142    66    64   ar
   143   154   155    2
   144   169   168    1
   145   169   170    1
   146    57    55   ar
   147    65    63   ar
   148    64    63   ar
   149   181   180    1
   150   181   182   ar
   151   176   170   am
   152   176   177    1
   153    63    62    1
   154    56    55   ar
   155   180   177    1
   156    55    54    1
   157   170   171    2
   158    62    59    1
   159   157   156    1
   160   157   159   am
   161   177   178    1
   162    54    53    1
   163    53    50    1
   164    51    52    2
   165    51    50    1
   166    59    60    1
   167    59    58    1
   168    60    61    2
   169   178   179    2
   170    50    49    1
