@<TRIPOS>MOLECULE
tmp/4kb8B00.pdb
 149 139 0 0 0
SMALL
GASTEIGER

@<TRIPOS>ATOM
      1  N         18.1330   29.8070  -53.0450 N.3    13  ILE13      -0.1231
      2  CA        17.5470   28.4630  -53.0490 C.3    13  ILE13       0.1692
      3  C         17.1040   28.0630  -51.6180 C.2    13  ILE13       0.2593
      4  O         16.8840   26.8780  -51.3320 O.2    13  ILE13      -0.2718
      5  CB        18.4520   27.3940  -53.7480 C.3    13  ILE13       0.0266
      6  CG1       19.8330   27.2590  -53.0580 C.3    13  ILE13       0.0019
      7  CG2       18.5600   27.6380  -55.2620 C.3    13  ILE13       0.0020
      8  CD1       20.5810   25.9360  -53.2950 C.3    13  ILE13       0.0001
      9  N         16.9800   29.0700  -50.7490 N.am   14  GLY14      -0.1942
     10  CA        16.5670   28.8990  -49.3610 C.3    14  GLY14       0.2014
     11  C         17.2870   29.7770  -48.3560 C.2    14  GLY14       0.2640
     12  O         17.9690   30.7420  -48.7240 O.2    14  GLY14      -0.2714
     13  N         17.1050   29.4430  -47.0610 N.am   15  SER15      -0.1935
     14  CA        17.6950   30.1270  -45.9080 C.3    15  SER15       0.2055
     15  C         17.7870   29.1710  -44.7130 C.2    15  SER15       0.2643
     16  O         16.9070   28.3260  -44.5310 O.2    15  SER15      -0.2714
     17  CB        16.8830   31.3660  -45.5360 C.3    15  SER15       0.2130
     18  OG        15.5210   31.0470  -45.2970 O.3    15  SER15      -0.2179
     19  N         18.8510   29.3130  -43.9260 N.am   16  GLY16      -0.1954
     20  CA        19.1010   28.5110  -42.7330 C.3    16  GLY16       0.1869
     21  C         18.7870   29.2730  -41.4610 C.2    16  GLY16       0.2309
     22  O         17.8990   30.1320  -41.4540 O.2    16  GLY16      -0.2863
     23  N         21.0080   30.9430  -48.5510 N.3    21  ILE21      -0.1245
     24  CA        21.6110   29.8840  -49.3720 C.3    21  ILE21       0.1561
     25  C         21.3130   30.1500  -50.8650 C.2    21  ILE21       0.2260
     26  O         20.1740   30.4440  -51.2310 O.2    21  ILE21      -0.2867
     27  CB        21.2560   28.4420  -48.8610 C.3    21  ILE21       0.0252
     28  CG1       21.9010   28.1860  -47.4820 C.3    21  ILE21       0.0019
     29  CG2       21.7500   27.3600  -49.8330 C.3    21  ILE21       0.0019
     30  CD1       21.0850   28.5000  -46.3250 C.3    21  ILE21       0.0001
     31  N         26.0400   24.6750  -53.7200 N.3    34  ALA34      -0.1245
     32  CA        25.1970   25.5520  -52.9150 C.3    34  ALA34       0.1562
     33  C         26.1470   26.4920  -52.1490 C.2    34  ALA34       0.2260
     34  O         27.2200   26.0590  -51.7140 O.2    34  ALA34      -0.2867
     35  CB        24.3140   24.7470  -51.9730 C.3    34  ALA34       0.0290
     36  N         26.5190   29.5320  -49.1070 N.3    36  LYS36      -0.1245
     37  CA        25.9680   30.2660  -47.9670 C.3    36  LYS36       0.1561
     38  C         26.7860   31.5400  -47.8050 C.2    36  LYS36       0.2260
     39  O         28.0150   31.4880  -47.7000 O.2    36  LYS36      -0.2867
     40  CB        25.9840   29.4370  -46.6700 C.3    36  LYS36       0.0271
     41  CG        25.1780   30.0330  -45.5010 C.3    36  LYS36       0.0035
     42  CD        24.9410   28.9900  -44.4060 C.3    36  LYS36       0.0206
     43  CE        24.0130   29.4520  -43.2980 C.3    36  LYS36       0.1093
     44  NZ        23.8290   28.4040  -42.2410 N.3    36  LYS36      -0.1314
     45  N         30.3120   27.5240  -37.7450 N.3    44  GLU44      -0.1245
     46  CA        29.5970   26.4670  -38.4570 C.3    44  GLU44       0.1567
     47  C         30.4780   25.6750  -39.4250 C.2    44  GLU44       0.2260
     48  O         30.3790   24.4470  -39.4450 O.2    44  GLU44      -0.2867
     49  CB        28.3700   27.0400  -39.1790 C.3    44  GLU44       0.0388
     50  CG        27.2960   25.9970  -39.4170 C.3    44  GLU44       0.1160
     51  CD        26.0690   26.4730  -40.1640 C.2    44  GLU44       0.3649
     52  OE1       26.1430   27.5280  -40.8380 O.co2  44  GLU44      -0.2457
     53  OE2       25.0790   25.7050  -40.1920 O.co2  44  GLU44      -0.2457
     54  N         31.2030   21.6220  -39.6990 N.3    48  TYR48      -0.1241
     55  CA        31.1030   20.8430  -40.9420 C.3    48  TYR48       0.1605
     56  C         32.4560   20.1580  -41.2730 C.2    48  TYR48       0.2264
     57  O         32.4630   18.9700  -41.6030 O.2    48  TYR48      -0.2867
     58  CB        30.6750   21.7280  -42.1220 C.3    48  TYR48       0.0534
     59  CG        29.1830   21.9410  -42.2400 C.ar   48  TYR48      -0.0201
     60  CD1       28.3320   20.8950  -42.6060 C.ar   48  TYR48      -0.0009
     61  CD2       28.6250   23.2030  -42.0710 C.ar   48  TYR48      -0.0009
     62  CE1       26.9600   21.0980  -42.7590 C.ar   48  TYR48       0.0417
     63  CE2       27.2590   23.4190  -42.2340 C.ar   48  TYR48       0.0417
     64  CZ        26.4280   22.3630  -42.5760 C.ar   48  TYR48       0.1957
     65  OH        25.0770   22.5890  -42.7470 O.3    48  TYR48      -0.2866
     66  N         27.1920   16.8180  -45.7360 N.3    58  PRO58      -0.2116
     67  CA        27.5390   17.5090  -46.9950 C.3    58  PRO58       0.1372
     68  C         28.9990   17.9750  -47.0030 C.2    58  PRO58       0.2244
     69  O         29.5070   18.4340  -45.9640 O.2    58  PRO58      -0.2868
     70  CB        26.5660   18.6880  -47.0540 C.3    58  PRO58       0.0268
     71  CG        26.0560   18.8600  -45.6730 C.3    58  PRO58       0.0207
     72  CD        26.1400   17.5350  -44.9800 C.3    58  PRO58       0.0892
     73  N         30.7430   30.1960  -47.7240 N.3    72  MET72      -0.1245
     74  CA        30.8930   28.7670  -47.5520 C.3    72  MET72       0.1570
     75  C         30.2570   28.0960  -48.7570 C.2    72  MET72       0.2261
     76  O         29.0910   28.3480  -49.0770 O.2    72  MET72      -0.2867
     77  CB        30.2590   28.2880  -46.2450 C.3    72  MET72       0.0387
     78  CG        30.5090   26.8290  -45.9490 C.3    72  MET72       0.0595
     79  SD        30.1870   26.4220  -44.2180 S.3    72  MET72      -0.1393
     80  CE        28.3790   26.4920  -44.1610 C.3    72  MET72       0.0692
     81  N         29.3850   24.4900  -50.5740 N.3    74  MET74      -0.1230
     82  CA        29.1050   23.0900  -50.2660 C.3    74  MET74       0.1702
     83  C         28.4810   22.3870  -51.4520 C.2    74  MET74       0.2592
     84  O         27.8660   23.0370  -52.2990 O.2    74  MET74      -0.2718
     85  CB        28.1230   22.9770  -49.0770 C.3    74  MET74       0.0401
     86  CG        28.4480   23.8810  -47.8700 C.3    74  MET74       0.0596
     87  SD        29.7170   23.3230  -46.7030 S.3    74  MET74      -0.1393
     88  CE        29.1030   21.7300  -46.2550 C.3    74  MET74       0.0692
     89  N         28.5650   21.0480  -51.4760 N.am   75  GLU75      -0.1966
     90  CA        27.9410   20.2500  -52.5400 C.3    75  GLU75       0.1733
     91  C         26.4250   20.4950  -52.5920 C.2    75  GLU75       0.2616
     92  O         25.8120   20.7490  -51.5480 O.2    75  GLU75      -0.2715
     93  CB        28.2470   18.7460  -52.3710 C.3    75  GLU75       0.0429
     94  CG        27.5890   18.1010  -51.1680 C.3    75  GLU75       0.1163
     95  CD        27.5930   16.5870  -51.1680 C.2    75  GLU75       0.3649
     96  OE1       28.0680   16.0080  -50.1690 O.co2  75  GLU75      -0.2457
     97  OE2       27.1550   15.9770  -52.1700 O.co2  75  GLU75      -0.2457
     98  N         25.8330   20.4200  -53.7970 N.am   76  LEU76      -0.1963
     99  CA        24.3970   20.6170  -53.9760 C.3    76  LEU76       0.1728
    100  C         23.5930   19.3990  -53.5240 C.2    76  LEU76       0.2616
    101  O         23.8800   18.2740  -53.9310 O.2    76  LEU76      -0.2715
    102  CB        24.0560   20.9800  -55.4300 C.3    76  LEU76       0.0311
    103  CG        22.6220   21.4700  -55.6960 C.3    76  LEU76       0.0022
    104  CD1       22.3930   22.8630  -55.1370 C.3    76  LEU76       0.0001
    105  CD2       22.3400   21.5030  -57.1780 C.3    76  LEU76       0.0001
    106  N         22.5830   19.6400  -52.6780 N.am   77  LEU77      -0.1963
    107  CA        21.7050   18.6010  -52.1590 C.3    77  LEU77       0.1728
    108  C         20.3120   18.8570  -52.6780 C.2    77  LEU77       0.2616
    109  O         20.0670   19.9190  -53.2620 O.2    77  LEU77      -0.2715
    110  CB        21.6860   18.5930  -50.6110 C.3    77  LEU77       0.0311
    111  CG        22.9880   18.5370  -49.8030 C.3    77  LEU77       0.0022
    112  CD1       22.6310   18.4050  -48.3560 C.3    77  LEU77       0.0001
    113  CD2       23.9140   17.3710  -50.1910 C.3    77  LEU77       0.0001
    114  N         19.4230   17.8790  -52.4650 N.am   78  GLY78      -0.1955
    115  CA        18.0430   17.9340  -52.9170 C.3    78  GLY78       0.1869
    116  C         17.0990   18.5530  -51.9110 C.2    78  GLY78       0.2309
    117  O         17.5320   19.2730  -51.0110 O.2    78  GLY78      -0.2863
    118  N         13.0400   20.0820  -41.7970 N.3   124  ASP124     -0.1239
    119  CA        13.6990   21.1160  -42.5940 C.3   124  ASP124      0.1674
    120  C         15.2420   20.9530  -42.5870 C.2   124  ASP124      0.2266
    121  O         15.9230   21.4350  -43.4900 O.2   124  ASP124     -0.2867
    122  CB        13.3400   22.5090  -42.0330 C.3   124  ASP124      0.1410
    123  CG        11.9020   22.6850  -41.5490 C.2   124  ASP124      0.3668
    124  OD1       11.4630   21.9050  -40.6270 O.co2 124  ASP124     -0.2456
    125  OD2       11.2380   23.6270  -42.0190 O.co2 124  ASP124     -0.2456
    126  N         18.0580   16.7500  -45.5850 N.3   127  LEU127     -0.1245
    127  CA        17.8820   16.8900  -47.0290 C.3   127  LEU127      0.1561
    128  C         18.2430   15.6010  -47.7420 C.2   127  LEU127      0.2260
    129  O         19.2200   14.9420  -47.3720 O.2   127  LEU127     -0.2867
    130  CB        18.7880   18.0390  -47.5330 C.3   127  LEU127      0.0270
    131  CG        18.2090   19.4680  -47.5350 C.3   127  LEU127      0.0019
    132  CD1       17.9210   19.9880  -46.1460 C.3   127  LEU127      0.0001
    133  CD2       19.2000   20.4230  -48.1740 C.3   127  LEU127      0.0001
    134  N         21.8290   18.7280  -42.0040 N.3   140  ILE140     -0.1231
    135  CA        22.3930   20.0670  -42.1790 C.3   140  ILE140      0.1692
    136  C         22.0960   20.9660  -40.9850 C.2   140  ILE140      0.2592
    137  O         21.3420   20.6050  -40.0740 O.2   140  ILE140     -0.2718
    138  CB        21.9220   20.7390  -43.5210 C.3   140  ILE140      0.0266
    139  CG1       20.3780   20.9590  -43.5400 C.3   140  ILE140      0.0019
    140  CG2       22.3690   19.9460  -44.7370 C.3   140  ILE140      0.0020
    141  CD1       19.9310   22.3100  -43.9250 C.3   140  ILE140      0.0001
    142  N         22.6340   22.1840  -41.0720 N.am  141  ASP141     -0.1974
    143  CA        22.4920   23.3010  -40.1490 C.3   141  ASP141      0.1709
    144  C         23.0270   23.0220  -38.7570 C.2   141  ASP141      0.2293
    145  O         22.3530   22.4200  -37.9210 O.2   141  ASP141     -0.2864
    146  CB        21.0570   23.8550  -40.1230 C.3   141  ASP141      0.1436
    147  CG        21.0310   25.3390  -39.8550 C.2   141  ASP141      0.3671
    148  OD1       21.2400   26.1150  -40.8090 O.co2 141  ASP141     -0.2456
    149  OD2       20.8150   25.7240  -38.6910 O.co2 141  ASP141     -0.2456
@<TRIPOS>BOND
     1   105   103    1
     2   103   102    1
     3   103   104    1
     4   102    99    1
     5     7     5    1
     6    99    98    1
     7    99   100    1
     8   101   100    2
     9    98    91   am
    10     5     6    1
    11     5     2    1
    12    31    32    1
    13   100   106   am
    14     8     6    1
    15   109   108    2
    16     2     1    1
    17     2     3    1
    18   115   114    1
    19   115   116    1
    20    32    33    1
    21    32    35    1
    22   108   114   am
    23   108   107    1
    24   106   107    1
    25    91    90    1
    26    91    92    2
    27    90    93    1
    28    90    89    1
    29    93    94    1
    30    84    83    2
    31    97    95   ar
    32   107   110    1
    33    33    34    2
    34   116   117    2
    35     3     4    2
    36     3     9   am
    37    89    83   am
    38    83    82    1
    39    26    25    2
    40    94    95    1
    41    95    96   ar
    42    25    24    1
    43     9    10    1
    44   110   111    1
    45    81    82    1
    46    82    85    1
    47   113   111    1
    48    29    27    1
    49   111   112    1
    50    24    27    1
    51    24    23    1
    52    10    11    1
    53    36    37    1
    54    85    86    1
    55    76    75    2
    56    27    28    1
    57    75    74    1
    58    12    11    2
    59    11    13   am
    60   133   131    1
    61    37    38    1
    62    37    40    1
    63    86    87    1
    64    38    39    2
    65   128   129    2
    66   128   127    1
    67    73    74    1
    68    74    77    1
    69   131   130    1
    70   131   132    1
    71   130   127    1
    72    28    30    1
    73    13    14    1
    74    70    67    1
    75    70    71    1
    76   127   126    1
    77    68    67    1
    78    68    69    2
    79    67    66    1
    80    87    88    1
    81    40    41    1
    82    77    78    1
    83    78    79    1
    84    14    17    1
    85    14    15    1
    86    66    72    1
    87    71    72    1
    88    17    18    1
    89    41    42    1
    90   140   138    1
    91    15    16    2
    92    15    19   am
    93    42    43    1
    94    79    80    1
    95    19    20    1
    96   141   139    1
    97   139   138    1
    98   138   135    1
    99   121   120    2
   100    43    44    1
   101    62    60   ar
   102    62    64   ar
   103    65    64    1
   104    20    21    1
   105    60    59   ar
   106   119   120    1
   107   119   122    1
   108   119   118    1
   109    64    63   ar
   110    59    58    1
   111    59    61   ar
   112    63    61   ar
   113   135   134    1
   114   135   136    1
   115    58    55    1
   116   122   123    1
   117   125   123   ar
   118    57    56    2
   119   123   124   ar
   120    21    22    2
   121    56    55    1
   122   142   136   am
   123   142   143    1
   124   136   137    2
   125    55    54    1
   126    52    51   ar
   127   148   147   ar
   128    53    51   ar
   129    51    50    1
   130   143   146    1
   131   143   144    1
   132   146   147    1
   133   147   149   ar
   134    48    47    2
   135    47    46    1
   136    50    49    1
   137    49    46    1
   138   144   145    2
   139    46    45    1
