@<TRIPOS>MOLECULE
tmp/4kbaA00.pdb
 175 163 0 0 0
SMALL
GASTEIGER

@<TRIPOS>ATOM
      1  N         -8.5200    3.4540   17.4130 N.3    13  ILE13      -0.1245
      2  CA        -7.0980    3.6390   17.1000 C.3    13  ILE13       0.1561
      3  C         -6.8470    4.5290   15.8840 C.2    13  ILE13       0.2260
      4  O         -5.7800    5.1220   15.7620 O.2    13  ILE13      -0.2867
      5  CB        -6.2820    2.3200   17.1210 C.3    13  ILE13       0.0252
      6  CG1       -6.7620    1.3400   16.0350 C.3    13  ILE13       0.0019
      7  CG2       -6.3130    1.6820   18.5330 C.3    13  ILE13       0.0019
      8  CD1       -5.7140    0.7940   15.2660 C.3    13  ILE13       0.0001
      9  N         -8.5980    5.5570   11.5830 N.3    15  SER15      -0.1202
     10  CA        -9.6210    5.4880   10.5420 C.3    15  SER15       0.2020
     11  C         -9.1180    4.8130    9.2810 C.2    15  SER15       0.2619
     12  O         -7.9100    4.7810    9.0020 O.2    15  SER15      -0.2717
     13  CB       -10.1570    6.8820   10.2050 C.3    15  SER15       0.2103
     14  OG       -10.8900    7.4430   11.2820 O.3    15  SER15      -0.2182
     15  N        -10.0710    4.2720    8.5390 N.am   16  GLY16      -0.1956
     16  CA        -9.8590    3.6860    7.2290 C.3    16  GLY16       0.1869
     17  C        -10.3860    4.6780    6.2120 C.2    16  GLY16       0.2309
     18  O        -10.7310    5.8100    6.5670 O.2    16  GLY16      -0.2863
     19  N        -11.4820    2.6760   12.8830 N.3    21  ILE21      -0.1245
     20  CA       -10.7680    1.4700   13.3170 C.3    21  ILE21       0.1561
     21  C        -10.6650    1.4910   14.8280 C.2    21  ILE21       0.2260
     22  O        -10.3480    2.5340   15.4130 O.2    21  ILE21      -0.2867
     23  CB        -9.3570    1.3590   12.6660 C.3    21  ILE21       0.0252
     24  CG1       -9.3660    1.5930   11.1310 C.3    21  ILE21       0.0019
     25  CG2       -8.6590    0.0510   13.0500 C.3    21  ILE21       0.0019
     26  CD1      -10.4190    0.8510   10.2820 C.3    21  ILE21       0.0001
     27  N         -9.5160   -1.1850   18.3810 N.3    23  LEU23      -0.1245
     28  CA        -8.8700   -2.3620   18.9260 C.3    23  LEU23       0.1561
     29  C        -10.0180   -3.1980   19.5780 C.2    23  LEU23       0.2260
     30  O        -11.0900   -2.6590   19.8610 O.2    23  LEU23      -0.2867
     31  CB        -7.8970   -1.8840   20.0000 C.3    23  LEU23       0.0270
     32  CG        -6.6400   -2.6300   20.2070 C.3    23  LEU23       0.0019
     33  CD1       -6.8300   -3.7330   21.1870 C.3    23  LEU23       0.0001
     34  CD2       -5.8860   -2.9280   18.9200 C.3    23  LEU23       0.0001
     35  N         -8.7950   -6.5360   15.4570 N.3    34  ALA34      -0.1245
     36  CA        -8.9780   -5.1940   14.8920 C.3    34  ALA34       0.1562
     37  C        -10.3990   -5.1510   14.3950 C.2    34  ALA34       0.2260
     38  O        -10.8470   -6.0770   13.7090 O.2    34  ALA34      -0.2867
     39  CB        -8.0140   -4.9420   13.7280 C.3    34  ALA34       0.0290
     40  N        -13.4710   -2.8020   12.4510 N.3    36  LYS36      -0.1245
     41  CA       -13.8260   -1.6710   11.5920 C.3    36  LYS36       0.1561
     42  C        -15.3350   -1.4820   11.6470 C.2    36  LYS36       0.2260
     43  O        -16.0900   -2.4390   11.4510 O.2    36  LYS36      -0.2867
     44  CB       -13.3180   -1.8380   10.1390 C.3    36  LYS36       0.0271
     45  CG       -13.5870   -0.6150    9.2690 C.3    36  LYS36       0.0035
     46  CD       -12.9070   -0.7110    7.8880 C.3    36  LYS36       0.0206
     47  CE       -13.1270    0.5650    7.1080 C.3    36  LYS36       0.1093
     48  NZ       -12.4780    0.5260    5.7730 N.3    36  LYS36      -0.1314
     49  N        -16.3260   -4.3660    0.8390 N.3    50  GLU50      -0.1245
     50  CA       -14.9240   -4.5140    1.2380 C.3    50  GLU50       0.1567
     51  C        -14.6700   -5.9160    1.7960 C.2    50  GLU50       0.2260
     52  O        -13.6750   -6.5350    1.4340 O.2    50  GLU50      -0.2867
     53  CB       -14.5600   -3.4530    2.2790 C.3    50  GLU50       0.0388
     54  CG       -13.2210   -2.8240    1.9920 C.3    50  GLU50       0.1160
     55  CD       -12.5360   -2.1650    3.1640 C.2    50  GLU50       0.3649
     56  OE1      -11.2880   -2.2320    3.2060 O.co2  50  GLU50      -0.2457
     57  OE2      -13.2260   -1.5120    3.9820 O.co2  50  GLU50      -0.2457
     58  N        -11.9020   -8.7040    0.6470 N.3    54  TYR54      -0.1241
     59  CA       -11.0350   -9.4090    1.5870 C.3    54  TYR54       0.1605
     60  C        -11.2460  -10.9400    1.4810 C.2    54  TYR54       0.2264
     61  O        -10.2610  -11.6680    1.3740 O.2    54  TYR54      -0.2867
     62  CB       -11.2750   -8.9330    3.0390 C.3    54  TYR54       0.0534
     63  CG       -10.5550   -7.6560    3.4280 C.ar   54  TYR54      -0.0201
     64  CD1       -9.1670   -7.6280    3.5700 C.ar   54  TYR54      -0.0009
     65  CD2      -11.2640   -6.4930    3.7240 C.ar   54  TYR54      -0.0009
     66  CE1       -8.4990   -6.4670    3.9600 C.ar   54  TYR54       0.0417
     67  CE2      -10.6070   -5.3390    4.1640 C.ar   54  TYR54       0.0417
     68  CZ        -9.2210   -5.3260    4.2560 C.ar   54  TYR54       0.1957
     69  OH        -8.5510   -4.2100    4.6790 O.3    54  TYR54      -0.2866
     70  N        -16.9080   -5.2030   10.8470 N.3    78  MET78      -0.1245
     71  CA       -15.9560   -6.1220   10.2630 C.3    78  MET78       0.1570
     72  C        -14.8420   -6.3830   11.3070 C.2    78  MET78       0.2261
     73  O        -14.2810   -5.4470   11.8870 O.2    78  MET78      -0.2867
     74  CB       -15.4160   -5.6130    8.9380 C.3    78  MET78       0.0387
     75  CG       -14.4390   -6.5920    8.2830 C.3    78  MET78       0.0595
     76  SD       -13.9880   -6.1860    6.5910 S.3    78  MET78      -0.1393
     77  CE       -13.2140   -4.6390    6.8080 C.3    78  MET78       0.0692
     78  N        -11.2180   -8.2620   11.9530 N.3    80  MET80      -0.1230
     79  CA       -10.0150   -8.7340   11.2900 C.3    80  MET80       0.1702
     80  C         -8.9900   -9.1780   12.3640 C.2    80  MET80       0.2592
     81  O         -9.0080   -8.6710   13.4910 O.2    80  MET80      -0.2718
     82  CB        -9.4700   -7.5700   10.4210 C.3    80  MET80       0.0401
     83  CG        -8.1750   -7.8390    9.7140 C.3    80  MET80       0.0596
     84  SD        -7.7250   -6.3960    8.7250 S.3    80  MET80      -0.1393
     85  CE        -6.1930   -6.3010    9.0460 C.3    80  MET80       0.0692
     86  N         -8.0590  -10.0800   11.9910 N.am   81  GLU81      -0.1966
     87  CA        -6.9940  -10.4830   12.8990 C.3    81  GLU81       0.1733
     88  C         -6.1500   -9.2430   13.2650 C.2    81  GLU81       0.2616
     89  O         -6.1160   -8.2790   12.5050 O.2    81  GLU81      -0.2715
     90  CB        -6.1020  -11.5380   12.2370 C.3    81  GLU81       0.0429
     91  CG        -5.5160  -11.0750   10.9020 C.3    81  GLU81       0.1163
     92  CD        -4.4510  -11.9660   10.3180 C.2    81  GLU81       0.3649
     93  OE1       -4.3730  -12.0560    9.0710 O.co2  81  GLU81      -0.2457
     94  OE2       -3.7090  -12.5920   11.1050 O.co2  81  GLU81      -0.2457
     95  N         -5.5010   -9.2600   14.4270 N.am   82  LEU82      -0.1963
     96  CA        -4.6700   -8.1270   14.8130 C.3    82  LEU82       0.1728
     97  C         -3.3710   -8.1180   14.0290 C.2    82  LEU82       0.2616
     98  O         -2.6790   -9.1450   13.9390 O.2    82  LEU82      -0.2715
     99  CB        -4.3600   -8.0920   16.3220 C.3    82  LEU82       0.0311
    100  CG        -3.7560   -6.7550   16.8230 C.3    82  LEU82       0.0022
    101  CD1       -4.7760   -5.6080   16.7350 C.3    82  LEU82       0.0001
    102  CD2       -3.2250   -6.8900   18.2400 C.3    82  LEU82       0.0001
    103  N         -3.0610   -6.9530   13.4430 N.am   83  LEU83      -0.1963
    104  CA        -1.8200   -6.7460   12.7120 C.3    83  LEU83       0.1728
    105  C         -1.0420   -5.6540   13.4330 C.2    83  LEU83       0.2617
    106  O         -1.5820   -5.0020   14.3400 O.2    83  LEU83      -0.2715
    107  CB        -2.0980   -6.3630   11.2420 C.3    83  LEU83       0.0311
    108  CG        -2.7990   -7.4150   10.3670 C.3    83  LEU83       0.0022
    109  CD1       -2.9880   -6.8920    8.9730 C.3    83  LEU83       0.0001
    110  CD2       -2.0430   -8.7380   10.3350 C.3    83  LEU83       0.0001
    111  N          0.2160   -5.4730   13.0480 N.am   84  GLY84      -0.1941
    112  CA         1.0740   -4.5030   13.7040 C.3    84  GLY84       0.1998
    113  C          0.9740   -3.0910   13.1890 C.2    84  GLY84       0.2481
    114  O         -0.0300   -2.7140   12.5780 O.2    84  GLY84      -0.2729
    115  N          2.0270   -2.2870   13.4410 N.am   85  PRO85      -0.2715
    116  CA         2.0200   -0.8920   12.9660 C.3    85  PRO85       0.1536
    117  C          2.1040   -0.7730   11.4490 C.2    85  PRO85       0.2599
    118  O          2.5750   -1.6920   10.7610 O.2    85  PRO85      -0.2715
    119  CB         3.2740   -0.2880   13.6090 C.3    85  PRO85       0.0310
    120  CG         3.7370   -1.2770   14.6150 C.3    85  PRO85       0.0237
    121  CD         3.2810   -2.6070   14.1490 C.3    85  PRO85       0.0939
    122  N          1.6770    0.3880   10.9370 N.am   86  SER86      -0.1950
    123  CA         1.7820    0.6940    9.5140 C.3    86  SER86       0.1924
    124  C          3.2170    1.0900    9.2030 C.2    86  SER86       0.2314
    125  O          3.9900    1.4560   10.1040 O.2    86  SER86      -0.2863
    126  CB         0.8220    1.8200    9.1190 C.3    86  SER86       0.2116
    127  OG         1.3410    3.1100    9.3990 O.3    86  SER86      -0.2180
    128  N          3.7190    4.5750   10.4450 N.3    89  ASP89      -0.1239
    129  CA         3.9990    4.5760   11.8810 C.3    89  ASP89       0.1674
    130  C          5.4430    4.1330   12.1240 C.2    89  ASP89       0.2266
    131  O          6.1550    4.7820   12.8980 O.2    89  ASP89      -0.2867
    132  CB         3.0160    3.6530   12.6330 C.3    89  ASP89       0.1410
    133  CG         1.5380    4.0190   12.5230 C.2    89  ASP89       0.3668
    134  OD1        1.2290    5.1350   12.0360 O.co2  89  ASP89      -0.2456
    135  OD2        0.6910    3.1670   12.8570 O.co2  89  ASP89      -0.2456
    136  N          0.6740    4.0410    4.9140 N.3   130  ASP130     -0.1225
    137  CA        -0.4260    3.8080    5.8760 C.3   130  ASP130      0.1805
    138  C         -1.2070    2.5130    5.5650 C.2   130  ASP130      0.2597
    139  O         -1.7740    1.8970    6.4710 O.2   130  ASP130     -0.2718
    140  CB        -1.4070    4.9980    5.8360 C.3   130  ASP130      0.1424
    141  CG        -0.7470    6.3710    5.8610 C.2   130  ASP130      0.3668
    142  OD1       -0.8780    7.0680    6.8900 O.co2 130  ASP130     -0.2456
    143  OD2       -0.0660    6.7380    4.8460 O.co2 130  ASP130     -0.2456
    144  N         -1.2160    2.1060    4.2900 N.am  131  ASN131     -0.1974
    145  CA        -1.9360    0.9350    3.8000 C.3   131  ASN131      0.1688
    146  C         -1.1710   -0.3650    3.7540 C.2   131  ASN131      0.2292
    147  O         -1.6620   -1.3600    3.2060 O.2   131  ASN131     -0.2864
    148  CB        -2.6910    1.2550    2.5050 C.3   131  ASN131      0.1181
    149  CG        -3.9310    2.0780    2.7570 C.2   131  ASN131      0.2629
    150  OD1       -4.4740    2.1070    3.8600 O.2   131  ASN131     -0.2716
    151  ND2       -4.4020    2.7540    1.7390 N.am  131  ASN131     -0.0877
    152  N          0.8540   -2.8610    6.5790 N.3   133  LEU133     -0.1245
    153  CA         1.1140   -3.0950    8.0050 C.3   133  LEU133      0.1561
    154  C          2.0330   -4.2900    8.1450 C.2   133  LEU133      0.2260
    155  O          1.9330   -5.2430    7.3690 O.2   133  LEU133     -0.2867
    156  CB        -0.1920   -3.3990    8.8130 C.3   133  LEU133      0.0270
    157  CG        -1.4610   -2.5690    8.5920 C.3   133  LEU133      0.0019
    158  CD1       -2.5870   -3.0910    9.4690 C.3   133  LEU133      0.0001
    159  CD2       -1.2680   -1.1120    8.9760 C.3   133  LEU133      0.0001
    160  N         -3.5630   -3.5640    3.2940 N.3   146  ILE146     -0.1231
    161  CA        -4.8950   -3.3160    3.8410 C.3   146  ILE146      0.1692
    162  C         -5.6660   -2.2660    3.0410 C.2   146  ILE146      0.2592
    163  O         -5.0950   -1.5910    2.1690 O.2   146  ILE146     -0.2718
    164  CB        -4.8290   -2.9340    5.3590 C.3   146  ILE146      0.0266
    165  CG1       -4.0030   -1.6500    5.6030 C.3   146  ILE146      0.0019
    166  CG2       -4.3300   -4.1000    6.2300 C.3   146  ILE146      0.0020
    167  CD1       -4.5260   -0.7640    6.6290 C.3   146  ILE146      0.0001
    168  N         -6.9640   -2.1050    3.3990 N.am  147  ASP147     -0.1974
    169  CA        -7.8960   -1.1260    2.8990 C.3   147  ASP147      0.1709
    170  C         -8.2450   -1.2670    1.4210 C.2   147  ASP147      0.2293
    171  O         -7.4440   -0.9090    0.5490 O.2   147  ASP147     -0.2864
    172  CB        -7.4810    0.3110    3.2860 C.3   147  ASP147      0.1436
    173  CG        -8.6580    1.2470    3.4680 C.2   147  ASP147      0.3671
    174  OD1       -9.4800    1.3580    2.5300 O.co2 147  ASP147     -0.2456
    175  OD2       -8.7380    1.8990    4.5270 O.co2 147  ASP147     -0.2456
@<TRIPOS>BOND
     1   171   170    2
     2    58    59    1
     3    49    50    1
     4    50    51    1
     5    50    53    1
     6    61    60    2
     7   170   169    1
     8    52    51    2
     9    60    59    1
    10    59    62    1
    11   151   149   am
    12    54    53    1
    13    54    55    1
    14   163   162    2
    15   148   149    1
    16   148   145    1
    17   174   173   ar
    18   149   150    2
    19   169   172    1
    20   169   168    1
    21    62    63    1
    22   162   168   am
    23   162   161    1
    24    55    56   ar
    25    55    57   ar
    26   147   146    2
    27   172   173    1
    28   160   161    1
    29    63    64   ar
    30    63    65   ar
    31   173   175   ar
    32    64    66   ar
    33    65    67   ar
    34   146   145    1
    35   145   144    1
    36   161   164    1
    37    66    68   ar
    38    67    68   ar
    39    68    69    1
    40   144   138   am
    41   143   141   ar
    42   136   137    1
    43   164   165    1
    44   164   166    1
    45   138   137    1
    46   138   139    2
    47   165   167    1
    48    48    47    1
    49   140   141    1
    50   140   137    1
    51   141   142   ar
    52    17    18    2
    53    17    16    1
    54   152   153    1
    55    76    77    1
    56    76    75    1
    57    47    46    1
    58    16    15    1
    59   155   154    2
    60    46    45    1
    61   153   154    1
    62   153   156    1
    63    75    74    1
    64    15    11   am
    65   157   156    1
    66   157   159    1
    67   157   158    1
    68    84    85    1
    69    84    83    1
    70    74    71    1
    71   109   108    1
    72    12    11    2
    73    93    92   ar
    74   126   127    1
    75   126   123    1
    76   124   123    1
    77   124   125    2
    78    45    44    1
    79    11    10    1
    80   123   122    1
    81    83    82    1
    82    44    41    1
    83    13    10    1
    84    13    14    1
    85    71    70    1
    86    71    72    1
    87    26    24    1
    88    92    91    1
    89    92    94   ar
    90   110   108    1
    91   108   107    1
    92    82    79    1
    93   128   129    1
    94    10     9    1
    95   118   117    2
    96    91    90    1
    97   122   117   am
    98    24    23    1
    99   107   104    1
   100    79    78    1
   101    79    80    1
   102    72    73    2
   103   117   116    1
   104    43    42    2
   105    41    42    1
   106    41    40    1
   107   129   130    1
   108   129   132    1
   109    86    80   am
   110    86    87    1
   111   134   133   ar
   112   130   131    2
   113    90    87    1
   114    80    81    2
   115    89    88    2
   116   133   132    1
   117   133   135   ar
   118   114   113    2
   119    23    25    1
   120    23    20    1
   121   104   105    1
   122   104   103    1
   123    19    20    1
   124    87    88    1
   125   116   115    1
   126   116   119    1
   127   111   105   am
   128   111   112    1
   129   113   115   am
   130   113   112    1
   131    88    95   am
   132    20    21    1
   133   105   106    2
   134   115   121    1
   135   103    97   am
   136   119   120    1
   137    38    37    2
   138    39    36    1
   139    98    97    2
   140    97    96    1
   141   121   120    1
   142    37    36    1
   143    95    96    1
   144    96    99    1
   145    21    22    2
   146    36    35    1
   147     8     6    1
   148     4     3    2
   149     3     2    1
   150     6     5    1
   151    99   100    1
   152   101   100    1
   153   100   102    1
   154     2     5    1
   155     2     1    1
   156     5     7    1
   157    27    28    1
   158    34    32    1
   159    28    29    1
   160    28    31    1
   161    29    30    2
   162    31    32    1
   163    32    33    1
