@<TRIPOS>MOLECULE
tmp/4kbaC00.pdb
 175 163 0 0 0
SMALL
GASTEIGER

@<TRIPOS>ATOM
      1  N         -8.6480  -25.7720  -58.4510 N.3     9  ILE9       -0.1245
      2  CA        -7.2280  -25.9330  -58.1300 C.3     9  ILE9        0.1561
      3  C         -6.9820  -26.8390  -56.9050 C.2     9  ILE9        0.2260
      4  O         -5.8950  -27.3900  -56.7640 O.2     9  ILE9       -0.2867
      5  CB        -6.4390  -24.5930  -58.1340 C.3     9  ILE9        0.0252
      6  CG1       -6.9540  -23.6290  -57.0440 C.3     9  ILE9        0.0019
      7  CG2       -6.4860  -23.9450  -59.5330 C.3     9  ILE9        0.0019
      8  CD1       -5.9280  -23.0840  -56.2450 C.3     9  ILE9        0.0001
      9  N         -8.8110  -27.8790  -52.6400 N.3    11  SER11      -0.1202
     10  CA        -9.7900  -27.7690  -51.5560 C.3    11  SER11       0.2020
     11  C         -9.2310  -27.1480  -50.2840 C.2    11  SER11       0.2619
     12  O         -8.0170  -27.2050  -50.0120 O.2    11  SER11      -0.2717
     13  CB       -10.4000  -29.1330  -51.2270 C.3    11  SER11       0.2103
     14  OG       -11.1770  -29.6380  -52.3020 O.3    11  SER11      -0.2182
     15  N        -10.1490  -26.5590  -49.5260 N.am   12  GLY12      -0.1956
     16  CA        -9.9030  -26.0130  -48.2010 C.3    12  GLY12       0.1869
     17  C        -10.5220  -26.9630  -47.1990 C.2    12  GLY12       0.2309
     18  O        -10.9330  -28.0720  -47.5640 O.2    12  GLY12      -0.2863
     19  N        -11.6480  -24.9640  -53.9060 N.3    17  ILE17      -0.1245
     20  CA       -10.9690  -23.7520  -54.3520 C.3    17  ILE17       0.1561
     21  C        -10.7740  -23.7760  -55.8590 C.2    17  ILE17       0.2260
     22  O        -10.3940  -24.7930  -56.4400 O.2    17  ILE17      -0.2867
     23  CB        -9.6900  -23.3870  -53.5200 C.3    17  ILE17       0.0252
     24  CG1      -10.0390  -22.9090  -52.0670 C.3    17  ILE17       0.0019
     25  CG2       -8.9330  -22.2520  -54.1880 C.3    17  ILE17       0.0019
     26  CD1      -10.6140  -23.7730  -51.1450 C.3    17  ILE17       0.0001
     27  N         -9.7580  -21.1530  -59.4070 N.3    19  LEU19      -0.1245
     28  CA        -9.1290  -19.9660  -59.9420 C.3    19  LEU19       0.1561
     29  C        -10.2600  -19.1340  -60.5760 C.2    19  LEU19       0.2260
     30  O        -11.3130  -19.6830  -60.8860 O.2    19  LEU19      -0.2867
     31  CB        -8.1040  -20.3680  -60.9980 C.3    19  LEU19       0.0270
     32  CG        -6.8200  -19.5820  -60.8820 C.3    19  LEU19       0.0019
     33  CD1       -5.8240  -20.2630  -59.9650 C.3    19  LEU19       0.0001
     34  CD2       -6.2510  -19.3570  -62.2010 C.3    19  LEU19       0.0001
     35  N         -8.9040  -15.8770  -56.5440 N.3    30  ALA30      -0.1245
     36  CA        -9.1370  -17.2390  -56.0660 C.3    30  ALA30       0.1562
     37  C        -10.5490  -17.2610  -55.4660 C.2    30  ALA30       0.2260
     38  O        -10.9320  -16.3300  -54.7500 O.2    30  ALA30      -0.2867
     39  CB        -8.1180  -17.6210  -55.0020 C.3    30  ALA30       0.0290
     40  N        -13.6560  -19.6060  -53.3760 N.3    32  LYS32      -0.1245
     41  CA       -14.0390  -20.7430  -52.5440 C.3    32  LYS32       0.1561
     42  C        -15.5710  -20.9130  -52.6480 C.2    32  LYS32       0.2260
     43  O        -16.3160  -19.9450  -52.4580 O.2    32  LYS32      -0.2867
     44  CB       -13.5520  -20.5650  -51.0810 C.3    32  LYS32       0.0271
     45  CG       -13.6890  -21.8190  -50.2110 C.3    32  LYS32       0.0035
     46  CD       -12.9810  -21.6700  -48.8490 C.3    32  LYS32       0.0206
     47  CE       -13.2570  -22.8140  -47.9100 C.3    32  LYS32       0.1093
     48  NZ       -12.4090  -22.7160  -46.7000 N.3    32  LYS32      -0.1314
     49  N        -16.4490  -17.9890  -41.8960 N.3    46  GLU46      -0.1245
     50  CA       -15.0520  -17.8160  -42.3020 C.3    46  GLU46       0.1567
     51  C        -14.8090  -16.4150  -42.8580 C.2    46  GLU46       0.2260
     52  O        -13.8280  -15.7840  -42.4670 O.2    46  GLU46      -0.2867
     53  CB       -14.6810  -18.8530  -43.3560 C.3    46  GLU46       0.0388
     54  CG       -13.3440  -19.4850  -43.0460 C.3    46  GLU46       0.1160
     55  CD       -12.6420  -20.1180  -44.2220 C.2    46  GLU46       0.3649
     56  OE1      -11.3970  -20.0450  -44.2520 O.co2  46  GLU46      -0.2457
     57  OE2      -13.3140  -20.7530  -45.0640 O.co2  46  GLU46      -0.2457
     58  N        -12.1020  -13.5890  -41.6720 N.3    50  TYR50      -0.1241
     59  CA       -11.2050  -12.8880  -42.5900 C.3    50  TYR50       0.1605
     60  C        -11.4210  -11.3650  -42.4920 C.2    50  TYR50       0.2264
     61  O        -10.4410  -10.6390  -42.3780 O.2    50  TYR50      -0.2867
     62  CB       -11.4140  -13.3620  -44.0390 C.3    50  TYR50       0.0534
     63  CG       -10.6900  -14.6370  -44.4090 C.ar   50  TYR50      -0.0201
     64  CD1       -9.3070  -14.6560  -44.5650 C.ar   50  TYR50      -0.0009
     65  CD2      -11.3950  -15.7940  -44.7270 C.ar   50  TYR50      -0.0009
     66  CE1       -8.6390  -15.8100  -44.9570 C.ar   50  TYR50       0.0417
     67  CE2      -10.7360  -16.9460  -45.1480 C.ar   50  TYR50       0.0417
     68  CZ        -9.3580  -16.9500  -45.2500 C.ar   50  TYR50       0.1957
     69  OH        -8.7100  -18.0780  -45.6690 O.3    50  TYR50      -0.2866
     70  N        -17.0510  -17.1080  -51.9740 N.3    74  MET74      -0.1245
     71  CA       -16.1190  -16.1860  -51.3680 C.3    74  MET74       0.1570
     72  C        -15.0030  -15.9160  -52.3800 C.2    74  MET74       0.2261
     73  O        -14.4510  -16.8530  -52.9650 O.2    74  MET74      -0.2867
     74  CB       -15.5710  -16.7070  -50.0370 C.3    74  MET74       0.0387
     75  CG       -14.6380  -15.7110  -49.3660 C.3    74  MET74       0.0595
     76  SD       -14.0640  -16.0900  -47.6950 S.3    74  MET74      -0.1393
     77  CE       -13.3090  -17.6050  -47.9070 C.3    74  MET74       0.0692
     78  N        -11.2700  -14.1250  -53.0560 N.3    76  MET76      -0.1230
     79  CA       -10.0570  -13.6570  -52.4170 C.3    76  MET76       0.1702
     80  C         -9.0480  -13.1680  -53.4720 C.2    76  MET76       0.2595
     81  O         -9.0350  -13.6880  -54.5940 O.2    76  MET76      -0.2718
     82  CB        -9.4900  -14.8520  -51.6090 C.3    76  MET76       0.0401
     83  CG        -8.3840  -14.5350  -50.6850 C.3    76  MET76       0.0596
     84  SD        -7.8280  -16.0750  -49.9100 S.3    76  MET76      -0.1393
     85  CE        -6.2280  -15.8910  -50.0430 C.3    76  MET76       0.0692
     86  N         -8.1460  -12.2310  -53.0900 N.am   77  GLU77      -0.1920
     87  CA        -7.0630  -11.8070  -53.9880 C.3    77  GLU77       0.1949
     88  C         -6.2230  -13.0430  -54.3130 C.2    77  GLU77       0.2659
     89  O         -6.1300  -13.9420  -53.4860 O.2    77  GLU77      -0.2711
     90  CB        -6.1770  -10.6990  -53.3690 C.2    77  GLU77       0.0111
     91  CG        -5.4020  -11.0830  -52.1100 C.2    77  GLU77       0.0838
     92  CD        -4.5800   -9.9710  -51.4900 C.2    77  GLU77       0.3877
     93  OE1       -4.0860   -9.0950  -52.2410 O.co2  77  GLU77      -0.2406
     94  OE2       -4.4460   -9.9680  -50.2430 O.co2  77  GLU77      -0.2406
     95  N         -5.7150  -13.1380  -55.5310 N.am   78  LEU78      -0.1961
     96  CA        -4.8930  -14.2900  -55.8960 C.3    78  LEU78       0.1728
     97  C         -3.5450  -14.2670  -55.1610 C.2    78  LEU78       0.2616
     98  O         -2.8260  -13.2610  -55.1990 O.2    78  LEU78      -0.2715
     99  CB        -4.6820  -14.4000  -57.4170 C.3    78  LEU78       0.0311
    100  CG        -3.9040  -15.6470  -57.8990 C.3    78  LEU78       0.0022
    101  CD1       -4.8010  -16.9030  -57.9190 C.3    78  LEU78       0.0001
    102  CD2       -3.3020  -15.4020  -59.2740 C.3    78  LEU78       0.0001
    103  N         -3.2420  -15.3740  -54.4630 N.am   79  LEU79      -0.1963
    104  CA        -1.9790  -15.5540  -53.7610 C.3    79  LEU79       0.1728
    105  C         -1.1680  -16.6240  -54.4820 C.2    79  LEU79       0.2617
    106  O         -1.6730  -17.2600  -55.4040 O.2    79  LEU79      -0.2715
    107  CB        -2.2140  -15.9290  -52.2770 C.3    79  LEU79       0.0311
    108  CG        -2.9050  -14.8720  -51.4010 C.3    79  LEU79       0.0022
    109  CD1       -2.9430  -15.3210  -49.9730 C.3    79  LEU79       0.0001
    110  CD2       -2.2620  -13.4850  -51.5260 C.3    79  LEU79       0.0001
    111  N          0.0770  -16.8110  -54.0680 N.am   80  GLY80      -0.1941
    112  CA         0.9460  -17.7850  -54.7060 C.3    80  GLY80       0.1998
    113  C          0.8170  -19.1940  -54.1720 C.2    80  GLY80       0.2481
    114  O         -0.1820  -19.5530  -53.5330 O.2    80  GLY80      -0.2729
    115  N          1.8250  -20.0210  -54.4920 N.am   81  PRO81      -0.2715
    116  CA         1.8210  -21.4150  -54.0170 C.3    81  PRO81       0.1536
    117  C          1.9230  -21.5300  -52.4980 C.2    81  PRO81       0.2599
    118  O          2.4010  -20.6130  -51.8160 O.2    81  PRO81      -0.2715
    119  CB         3.0890  -22.0130  -54.6540 C.3    81  PRO81       0.0310
    120  CG         3.5150  -21.0500  -55.7000 C.3    81  PRO81       0.0237
    121  CD         3.0650  -19.7090  -55.2340 C.3    81  PRO81       0.0939
    122  N          1.4870  -22.6810  -51.9850 N.am   82  SER82      -0.1950
    123  CA         1.5950  -22.9960  -50.5590 C.3    82  SER82       0.1924
    124  C          3.0280  -23.3860  -50.2560 C.2    82  SER82       0.2314
    125  O          3.7850  -23.7730  -51.1610 O.2    82  SER82      -0.2863
    126  CB         0.6360  -24.1220  -50.1740 C.3    82  SER82       0.2116
    127  OG         1.1690  -25.4150  -50.4220 O.3    82  SER82      -0.2180
    128  N          3.5420  -26.8670  -51.4760 N.3    85  ASP85      -0.1239
    129  CA         3.8220  -26.8830  -52.9160 C.3    85  ASP85       0.1674
    130  C          5.2630  -26.4390  -53.1720 C.2    85  ASP85       0.2266
    131  O          5.9770  -27.1000  -53.9300 O.2    85  ASP85      -0.2867
    132  CB         2.8400  -25.9760  -53.6790 C.3    85  ASP85       0.1410
    133  CG         1.3630  -26.3230  -53.5490 C.2    85  ASP85       0.3668
    134  OD1        1.0480  -27.4420  -53.0560 O.co2  85  ASP85      -0.2456
    135  OD2        0.5210  -25.4710  -53.9250 O.co2  85  ASP85      -0.2456
    136  N          0.5210  -26.3200  -45.9570 N.3   126  ASP126     -0.1225
    137  CA        -0.5800  -26.0980  -46.9110 C.3   126  ASP126      0.1805
    138  C         -1.3830  -24.8110  -46.5970 C.2   126  ASP126      0.2597
    139  O         -1.9810  -24.2190  -47.4940 O.2   126  ASP126     -0.2718
    140  CB        -1.5500  -27.2990  -46.8670 C.3   126  ASP126      0.1424
    141  CG        -0.8760  -28.6670  -46.8720 C.2   126  ASP126      0.3668
    142  OD1       -0.9700  -29.3650  -47.9100 O.co2 126  ASP126     -0.2456
    143  OD2       -0.2120  -29.0300  -45.8280 O.co2 126  ASP126     -0.2456
    144  N         -1.3680  -24.3880  -45.3250 N.am  127  ASN127     -0.1974
    145  CA        -2.1000  -23.2200  -44.8350 C.3   127  ASN127      0.1688
    146  C         -1.3290  -21.9200  -44.7850 C.2   127  ASN127      0.2292
    147  O         -1.8130  -20.9210  -44.2390 O.2   127  ASN127     -0.2864
    148  CB        -2.8390  -23.5380  -43.5390 C.3   127  ASN127      0.1181
    149  CG        -4.0880  -24.3540  -43.7800 C.2   127  ASN127      0.2629
    150  OD1       -4.6500  -24.3840  -44.8850 O.2   127  ASN127     -0.2716
    151  ND2       -4.5450  -25.0300  -42.7610 N.am  127  ASN127     -0.0877
    152  N          0.6680  -19.4310  -47.6220 N.3   129  LEU129     -0.1245
    153  CA         0.9100  -19.1990  -49.0460 C.3   129  LEU129      0.1561
    154  C          1.8250  -18.0010  -49.2070 C.2   129  LEU129      0.2260
    155  O          1.7220  -17.0360  -48.4390 O.2   129  LEU129     -0.2867
    156  CB        -0.3920  -18.9050  -49.8400 C.3   129  LEU129      0.0270
    157  CG        -1.6520  -19.7380  -49.6100 C.3   129  LEU129      0.0019
    158  CD1       -2.7710  -19.2290  -50.4930 C.3   129  LEU129      0.0001
    159  CD2       -1.4450  -21.1970  -49.9390 C.3   129  LEU129      0.0001
    160  N         -3.7190  -18.7130  -44.3100 N.3   142  ILE142     -0.1231
    161  CA        -5.0550  -18.9610  -44.8480 C.3   142  ILE142      0.1692
    162  C         -5.8160  -20.0100  -44.0450 C.2   142  ILE142      0.2592
    163  O         -5.2390  -20.6790  -43.1740 O.2   142  ILE142     -0.2718
    164  CB        -4.9960  -19.3500  -46.3620 C.3   142  ILE142      0.0266
    165  CG1       -4.1730  -20.6410  -46.6040 C.3   142  ILE142      0.0019
    166  CG2       -4.4950  -18.1880  -47.2470 C.3   142  ILE142      0.0020
    167  CD1       -4.6950  -21.5310  -47.6430 C.3   142  ILE142      0.0001
    168  N         -7.1060  -20.1780  -44.3930 N.am  143  ASP143     -0.1974
    169  CA        -8.0470  -21.1600  -43.8910 C.3   143  ASP143      0.1709
    170  C         -8.3950  -21.0090  -42.4260 C.2   143  ASP143      0.2293
    171  O         -7.6040  -21.3730  -41.5520 O.2   143  ASP143     -0.2864
    172  CB        -7.6300  -22.6010  -44.2640 C.3   143  ASP143      0.1436
    173  CG        -8.8060  -23.5400  -44.4410 C.2   143  ASP143      0.3671
    174  OD1       -9.6190  -23.6500  -43.5040 O.co2 143  ASP143     -0.2456
    175  OD2       -8.9050  -24.1740  -45.5160 O.co2 143  ASP143     -0.2456
@<TRIPOS>BOND
     1    34    32    1
     2    31    32    1
     3    31    28    1
     4    30    29    2
     5    32    33    1
     6    29    28    1
     7    28    27    1
     8     7     5    1
     9   102   100    1
    10     1     2    1
    11     5     2    1
    12     5     6    1
    13     2     3    1
    14   101   100    1
    15   100    99    1
    16    99    96    1
    17     6     8    1
    18     3     4    2
    19    35    36    1
    20    22    21    2
    21    36    37    1
    22    36    39    1
    23    96    95    1
    24    96    97    1
    25    21    20    1
    26   120   121    1
    27   120   119    1
    28    95    88   am
    29    37    38    2
    30   106   105    2
    31   121   115    1
    32    98    97    2
    33    97   103   am
    34   112   113    1
    35   112   111    1
    36   119   116    1
    37    81    80    2
    38   115   113   am
    39   115   116    1
    40   105   111   am
    41   105   104    1
    42   103   104    1
    43    20    19    1
    44    20    23    1
    45    88    87    1
    46    88    89    2
    47    25    23    1
    48   113   114    2
    49   116   117    1
    50    87    90    1
    51    87    86    1
    52   131   130    2
    53   135   133   ar
    54   104   107    1
    55   132   133    1
    56   132   129    1
    57   133   134   ar
    58    23    24    1
    59    80    86   am
    60    80    79    1
    61    40    41    1
    62    90    91    2
    63   130   129    1
    64    78    79    1
    65    73    72    2
    66   129   128    1
    67    42    41    1
    68    42    43    2
    69     9    10    1
    70    41    44    1
    71   117   122   am
    72   117   118    2
    73    79    82    1
    74    72    71    1
    75    14    13    1
    76   107   108    1
    77    93    92   ar
    78    91    92    1
    79    24    26    1
    80   122   123    1
    81    70    71    1
    82    82    83    1
    83    10    13    1
    84    10    11    1
    85   110   108    1
    86    92    94   ar
    87   108   109    1
    88    71    74    1
    89   125   124    2
    90    44    45    1
    91    83    84    1
    92   123   124    1
    93   123   126    1
    94   158   157    1
    95   127   126    1
    96    11    12    2
    97    11    15   am
    98    45    46    1
    99    85    84    1
   100    74    75    1
   101   159   157    1
   102   156   157    1
   103   156   153    1
   104    15    16    1
   105    75    76    1
   106   154   153    1
   107   154   155    2
   108   153   152    1
   109    46    47    1
   110    16    17    1
   111    47    48    1
   112   142   141   ar
   113    77    76    1
   114   167   165    1
   115    18    17    2
   116   139   138    2
   117   166   164    1
   118   137   140    1
   119   137   138    1
   120   137   136    1
   121   141   140    1
   122   141   143   ar
   123   165   164    1
   124   138   144   am
   125   164   161    1
   126    69    68    1
   127   175   173   ar
   128   144   145    1
   129    68    67   ar
   130    68    66   ar
   131    67    65   ar
   132    57    55   ar
   133    66    64   ar
   134   150   149    2
   135   161   160    1
   136   161   162    1
   137   145   146    1
   138   145   148    1
   139   146   147    2
   140    65    63   ar
   141    64    63   ar
   142   173   172    1
   143   173   174   ar
   144    63    62    1
   145   168   162   am
   146   168   169    1
   147   172   169    1
   148    56    55   ar
   149    55    54    1
   150   162   163    2
   151    62    59    1
   152   169   170    1
   153   149   148    1
   154   149   151   am
   155    53    54    1
   156    53    50    1
   157    51    52    2
   158    51    50    1
   159    59    60    1
   160    59    58    1
   161    60    61    2
   162   170   171    2
   163    50    49    1
