@<TRIPOS>MOLECULE
tmp/4kbbB00.pdb
 88 86 0 0 0
SMALL
GASTEIGER

@<TRIPOS>ATOM
      1  N          0.6720   15.1130   45.7350 N.3   122  LYS122     -0.1231
      2  CA         1.1940   14.1280   44.7950 C.3   122  LYS122      0.1693
      3  C          0.8570   12.7300   45.2840 C.2   122  LYS122      0.2593
      4  O          0.9210   12.4570   46.4810 O.2   122  LYS122     -0.2718
      5  CB         2.7030   14.2550   44.6470 C.3   122  LYS122      0.0285
      6  CG         3.1250   14.8190   43.3280 C.3   122  LYS122      0.0035
      7  CD         2.8970   13.8400   42.2100 C.3   122  LYS122      0.0206
      8  CE         3.4980   14.3890   40.9240 C.3   122  LYS122      0.1093
      9  NZ         3.7310   13.3550   39.8670 N.3   122  LYS122     -0.1314
     10  N          0.4870   11.8450   44.3630 N.am  123  SER123     -0.1938
     11  CA         0.1670   10.4740   44.7340 C.3   123  SER123      0.2055
     12  C          0.9290    9.4280   43.9380 C.2   123  SER123      0.2643
     13  O          1.4630    9.7120   42.8710 O.2   123  SER123     -0.2714
     14  CB        -1.3280   10.2360   44.5930 C.3   123  SER123      0.2130
     15  OG        -2.0140   10.8800   45.6520 O.3   123  SER123     -0.2179
     16  N          0.9990    8.2280   44.5000 N.am  124  VAL124     -0.1963
     17  CA         1.4480    7.0210   43.7990 C.3   124  VAL124      0.1727
     18  C          0.6530    5.8340   44.3700 C.2   124  VAL124      0.2616
     19  O          0.4290    5.7590   45.5700 O.2   124  VAL124     -0.2715
     20  CB         2.9850    6.8010   43.9390 C.3   124  VAL124      0.0290
     21  CG1        3.4050    6.6870   45.4070 C.3   124  VAL124      0.0023
     22  CG2        3.4410    5.5850   43.1440 C.3   124  VAL124      0.0023
     23  N          0.1900    4.9200   43.5300 N.am  125  PHE125     -0.1974
     24  CA        -0.6040    3.8130   44.0550 C.3   125  PHE125      0.1639
     25  C         -0.2090    2.4370   43.5390 C.2   125  PHE125      0.2290
     26  O          0.4680    2.2970   42.5150 O.2   125  PHE125     -0.2864
     27  CB        -2.1050    4.0340   43.8140 C.3   125  PHE125      0.0560
     28  CG        -2.4610    4.1420   42.3740 C.ar  125  PHE125     -0.0200
     29  CD1       -2.5830    3.0050   41.5910 C.ar  125  PHE125     -0.0042
     30  CD2       -2.6630    5.3790   41.7960 C.ar  125  PHE125     -0.0042
     31  CE1       -2.8870    3.1010   40.2640 C.ar  125  PHE125     -0.0003
     32  CE2       -2.9690    5.4840   40.4630 C.ar  125  PHE125     -0.0003
     33  CZ        -3.0840    4.3460   39.6960 C.ar  125  PHE125     -0.0000
     34  N          8.1660    5.9500   45.8590 N.3   154  LYS154     -0.1245
     35  CA         8.0210    4.6010   45.2920 C.3   154  LYS154      0.1561
     36  C          7.2480    3.6190   46.1660 C.2   154  LYS154      0.2260
     37  O          7.3160    3.6690   47.3810 O.2   154  LYS154     -0.2867
     38  CB         9.3830    3.9820   45.0150 C.3   154  LYS154      0.0271
     39  CG        10.2170    4.6990   44.0010 C.3   154  LYS154      0.0035
     40  CD        11.5580    4.0020   43.8680 C.3   154  LYS154      0.0206
     41  CE        12.4000    4.6390   42.7940 C.3   154  LYS154      0.1093
     42  NZ        13.7370    4.0040   42.7140 N.3   154  LYS154     -0.1314
     43  N          9.7440   -3.6790   43.3190 N.3   161  LEU161     -0.1231
     44  CA         9.2630   -2.3310   42.9580 C.3   161  LEU161      0.1693
     45  C          8.0640   -2.3880   42.0540 C.2   161  LEU161      0.2592
     46  O          8.1020   -3.0370   41.0200 O.2   161  LEU161     -0.2718
     47  CB        10.3580   -1.5040   42.2800 C.3   161  LEU161      0.0284
     48  CG        10.0620   -0.0620   41.8440 C.3   161  LEU161      0.0019
     49  CD1        9.4640    0.7760   42.9600 C.3   161  LEU161      0.0001
     50  CD2       11.3360    0.5690   41.3700 C.3   161  LEU161      0.0001
     51  N          7.0200   -1.6550   42.4140 N.am  162  GLU162     -0.1966
     52  CA         5.7610   -1.7140   41.6960 C.3   162  GLU162      0.1733
     53  C          5.4170   -0.3900   41.0500 C.2   162  GLU162      0.2617
     54  O          4.8710   -0.3390   39.9500 O.2   162  GLU162     -0.2715
     55  CB         4.6360   -2.1100   42.6510 C.3   162  GLU162      0.0429
     56  CG         4.7080   -3.5290   43.1950 C.3   162  GLU162      0.1163
     57  CD         4.5910   -4.6070   42.1350 C.2   162  GLU162      0.3649
     58  OE1        4.0340   -4.3450   41.0470 O.co2 162  GLU162     -0.2457
     59  OE2        5.0350   -5.7430   42.4090 O.co2 162  GLU162     -0.2457
     60  N          5.7380    0.6930   41.7410 N.am  163  SER163     -0.1936
     61  CA         5.3100    2.0160   41.3000 C.3   163  SER163      0.2055
     62  C          6.3070    3.1210   41.6390 C.2   163  SER163      0.2643
     63  O          7.1220    2.9730   42.5400 O.2   163  SER163     -0.2714
     64  CB         3.9360    2.3110   41.8900 C.3   163  SER163      0.2130
     65  OG         3.0590    1.2220   41.6260 O.3   163  SER163     -0.2179
     66  N          6.2490    4.2210   40.8940 N.am  164  ASN164     -0.1957
     67  CA         7.2770    5.2550   40.9540 C.3   164  ASN164      0.1819
     68  C          6.7110    6.5700   40.4330 C.2   164  ASN164      0.2622
     69  O          6.4180    6.6890   39.2500 O.2   164  ASN164     -0.2715
     70  CB         8.4460    4.8090   40.0760 C.3   164  ASN164      0.1195
     71  CG         9.7230    5.5950   40.3230 C.2   164  ASN164      0.2630
     72  OD1       10.7510    5.3060   39.6960 O.2   164  ASN164     -0.2716
     73  ND2        9.6830    6.5670   41.2410 N.am  164  ASN164     -0.0877
     74  N          6.5550    7.5580   41.3020 N.am  165  THR165     -0.1937
     75  CA         6.1030    8.8860   40.8770 C.3   165  THR165      0.2028
     76  C          7.1830    9.9350   41.1220 C.2   165  THR165      0.2642
     77  O          7.8700    9.8920   42.1380 O.2   165  THR165     -0.2714
     78  CB         4.8260    9.3040   41.6180 C.3   165  THR165      0.1808
     79  OG1        3.7910    8.3730   41.3200 O.3   165  THR165     -0.2208
     80  CG2        4.3660   10.6120   41.1760 C.3   165  THR165      0.0379
     81  N          7.3550   10.8380   40.1600 N.am  166  ASP166     -0.1971
     82  CA         8.1840   12.0290   40.3170 C.3   166  ASP166      0.1709
     83  C          7.4780   13.0170   41.2630 C.2   166  ASP166      0.2293
     84  O          6.3090   13.3390   41.0710 O.2   166  ASP166     -0.2864
     85  CB         8.4040   12.6580   38.9350 C.3   166  ASP166      0.1436
     86  CG         9.3910   13.8090   38.9550 C.2   166  ASP166      0.3671
     87  OD1        8.9930   14.9390   39.3020 O.co2 166  ASP166     -0.2456
     88  OD2       10.5720   13.5830   38.6160 O.co2 166  ASP166     -0.2456
@<TRIPOS>BOND
     1    88    86   ar
     2    85    86    1
     3    85    82    1
     4    86    87   ar
     5    69    68    2
     6    33    31   ar
     7    33    32   ar
     8    72    71    2
     9     9     8    1
    10    54    53    2
    11    70    71    1
    12    70    67    1
    13    81    82    1
    14    81    76   am
    15    31    29   ar
    16    82    83    1
    17    71    73   am
    18    68    67    1
    19    68    74   am
    20    32    30   ar
    21    75    76    1
    22    75    74    1
    23    75    78    1
    24    66    67    1
    25    66    62   am
    26     8     7    1
    27    46    45    2
    28    58    57   ar
    29    53    52    1
    30    53    60   am
    31    84    83    2
    32    76    77    2
    33    80    78    1
    34    61    62    1
    35    61    60    1
    36    61    64    1
    37    79    78    1
    38    50    48    1
    39    29    28   ar
    40    65    64    1
    41    62    63    2
    42    52    51    1
    43    52    55    1
    44    30    28   ar
    45    48    47    1
    46    48    49    1
    47    45    51   am
    48    45    44    1
    49    57    59   ar
    50    57    56    1
    51     7     6    1
    52    47    44    1
    53    28    27    1
    54    26    25    2
    55    55    56    1
    56    42    41    1
    57    41    40    1
    58    13    12    2
    59    44    43    1
    60    22    20    1
    61     6     5    1
    62    23    24    1
    63    23    18   am
    64    25    24    1
    65    17    20    1
    66    17    18    1
    67    17    16    1
    68    27    24    1
    69    40    39    1
    70    12    16   am
    71    12    11    1
    72    20    21    1
    73    39    38    1
    74    10    11    1
    75    10     3   am
    76    18    19    2
    77    14    11    1
    78    14    15    1
    79     5     2    1
    80     2     3    1
    81     2     1    1
    82    38    35    1
    83     3     4    2
    84    35    34    1
    85    35    36    1
    86    36    37    2
