@<TRIPOS>MOLECULE
tmp/4kbbB01.pdb
 150 145 0 0 0
SMALL
GASTEIGER

@<TRIPOS>ATOM
      1  N         -1.6740  -25.1190   44.7790 N.3   242  ALA242     -0.1231
      2  CA        -0.9670  -24.0770   44.0580 C.3   242  ALA242      0.1694
      3  C         -0.4770  -24.5380   42.6800 C.2   242  ALA242      0.2593
      4  O         -0.0290  -23.7280   41.8690 O.2   242  ALA242     -0.2718
      5  CB         0.1840  -23.5620   44.8930 C.3   242  ALA242      0.0304
      6  N         -0.5400  -25.8410   42.4260 N.am  243  GLY243     -0.1942
      7  CA        -0.2090  -26.3970   41.1220 C.3   243  GLY243      0.2014
      8  C         -1.4220  -26.6230   40.2380 C.2   243  GLY243      0.2638
      9  O         -1.2970  -26.7290   39.0260 O.2   243  GLY243     -0.2714
     10  N         -2.5960  -26.7410   40.8470 N.am  244  ASN244     -0.1972
     11  CA        -3.8430  -26.9390   40.1150 C.3   244  ASN244      0.1688
     12  C         -4.8880  -25.9870   40.6640 C.2   244  ASN244      0.2292
     13  O         -5.9040  -26.4290   41.1940 O.2   244  ASN244     -0.2864
     14  CB        -4.3540  -28.3800   40.2820 C.3   244  ASN244      0.1181
     15  CG        -3.3810  -29.4350   39.7480 C.2   244  ASN244      0.2629
     16  OD1       -3.0130  -30.3630   40.4620 O.2   244  ASN244     -0.2716
     17  ND2       -2.9790  -29.3030   38.4890 N.am  244  ASN244     -0.0877
     18  N          4.2780  -45.2680   40.2000 N.3   320  GLU320     -0.1231
     19  CA         4.9810  -44.0500   40.6070 C.3   320  GLU320      0.1699
     20  C          4.1400  -43.1710   41.5230 C.2   320  GLU320      0.2592
     21  O          4.6480  -42.4780   42.3930 O.2   320  GLU320     -0.2718
     22  CB         5.4050  -43.2490   39.3780 C.3   320  GLU320      0.0402
     23  CG         6.3890  -42.1420   39.6930 C.3   320  GLU320      0.1161
     24  CD         7.8290  -42.6190   39.7110 C.2   320  GLU320      0.3649
     25  OE1        8.0540  -43.8520   39.7080 O.co2 320  GLU320     -0.2457
     26  OE2        8.7320  -41.7500   39.7210 O.co2 320  GLU320     -0.2457
     27  N          2.8380  -43.2230   41.3160 N.am  321  GLU321     -0.1979
     28  CA         1.9060  -42.6080   42.2190 C.3   321  GLU321      0.1602
     29  C          0.7250  -43.5630   42.3980 C.2   321  GLU321      0.2287
     30  O          0.6270  -44.5710   41.7120 O.2   321  GLU321     -0.2864
     31  CB         1.4880  -41.2090   41.7480 C.3   321  GLU321      0.0415
     32  CG         1.0020  -41.0990   40.3220 C.3   321  GLU321      0.1163
     33  CD         2.1010  -40.9800   39.2670 C.2   321  GLU321      0.3649
     34  OE1        1.9390  -41.5950   38.1910 O.co2 321  GLU321     -0.2457
     35  OE2        3.0890  -40.2500   39.4770 O.co2 321  GLU321     -0.2457
     36  N         -1.6570  -34.4150   43.2490 N.3   371  ILE371     -0.1231
     37  CA        -2.7600  -34.6800   42.3320 C.3   371  ILE371      0.1692
     38  C         -2.2510  -35.3530   41.0450 C.2   371  ILE371      0.2592
     39  O         -1.2330  -34.9530   40.4830 O.2   371  ILE371     -0.2718
     40  CB        -3.5310  -33.3720   42.0180 C.3   371  ILE371      0.0266
     41  CG1       -4.2940  -32.9150   43.2580 C.3   371  ILE371      0.0019
     42  CG2       -4.5270  -33.5710   40.8870 C.3   371  ILE371      0.0020
     43  CD1       -4.9660  -31.5970   43.1010 C.3   371  ILE371      0.0001
     44  N         -2.9690  -36.3610   40.5650 N.am  372  HIS372     -0.1976
     45  CA        -2.5220  -37.0800   39.3760 C.3   372  HIS372      0.1656
     46  C         -3.6750  -37.6830   38.5840 C.2   372  HIS372      0.2291
     47  O         -4.7160  -38.0080   39.1480 O.2   372  HIS372     -0.2864
     48  CB        -1.5080  -38.1730   39.7380 C.3   372  HIS372      0.0771
     49  CG        -0.8790  -38.8190   38.5480 C.ar  372  HIS372      0.0820
     50  ND1       -0.0460  -38.1410   37.6880 N.ar  372  HIS372     -0.2267
     51  CD2       -0.9630  -40.0850   38.0660 C.ar  372  HIS372      0.1154
     52  CE1        0.3640  -38.9570   36.7330 C.ar  372  HIS372      0.1986
     53  NE2       -0.1760  -40.1450   36.9470 N.ar  372  HIS372     -0.2212
     54  N         -9.2070  -40.7610   31.1280 N.3   379  TYR379     -0.1241
     55  CA        -8.4430  -40.5300   32.3490 C.3   379  TYR379      0.1605
     56  C         -9.2760  -39.7400   33.3570 C.2   379  TYR379      0.2264
     57  O        -10.2680  -39.0980   33.0000 O.2   379  TYR379     -0.2867
     58  CB        -7.1670  -39.7280   32.0580 C.3   379  TYR379      0.0534
     59  CG        -6.0480  -40.4450   31.3360 C.ar  379  TYR379     -0.0201
     60  CD1       -5.2420  -41.3690   31.9950 C.ar  379  TYR379     -0.0009
     61  CD2       -5.7670  -40.1590   30.0030 C.ar  379  TYR379     -0.0009
     62  CE1       -4.2140  -42.0210   31.3300 C.ar  379  TYR379      0.0417
     63  CE2       -4.7420  -40.8010   29.3310 C.ar  379  TYR379      0.0417
     64  CZ        -3.9660  -41.7290   29.9970 C.ar  379  TYR379      0.1957
     65  OH        -2.9430  -42.3640   29.3230 O.3   379  TYR379     -0.2866
     66  N         -3.7070  -38.0430   45.2620 N.3   384  CYS384     -0.1235
     67  CA        -2.6980  -39.0930   45.1500 C.3   384  CYS384      0.1677
     68  C         -1.4890  -38.9160   46.0840 C.2   384  CYS384      0.2270
     69  O         -1.2700  -37.8390   46.6460 O.2   384  CYS384     -0.2867
     70  CB        -2.2260  -39.2030   43.6810 C.3   384  CYS384      0.0956
     71  SG        -0.8980  -38.0700   43.1740 S.3   384  CYS384     -0.0801
     72  N          2.7420  -39.5960   45.6530 N.3   386  SER386     -0.1217
     73  CA         3.6380  -39.7160   44.5060 C.3   386  SER386      0.1889
     74  C          5.1100  -39.7040   44.9100 C.2   386  SER386      0.2288
     75  O          5.5170  -38.9380   45.7770 O.2   386  SER386     -0.2866
     76  CB         3.3450  -38.5870   43.5110 C.3   386  SER386      0.2089
     77  OG         4.4800  -38.2740   42.7300 O.3   386  SER386     -0.2183
     78  N          7.3510  -39.3800   42.4920 N.3   388  TRP388     -0.1227
     79  CA         7.8320  -38.4480   41.4750 C.3   388  TRP388      0.1737
     80  C          8.1640  -37.0610   42.0520 C.2   388  TRP388      0.2595
     81  O          9.1840  -36.4710   41.7110 O.2   388  TRP388     -0.2718
     82  CB         6.7920  -38.3450   40.3460 C.3   388  TRP388      0.0564
     83  CG         7.2270  -37.5340   39.1640 C.ar  388  TRP388      0.0003
     84  CD1        7.9940  -37.9490   38.1110 C.ar  388  TRP388      0.0946
     85  CD2        6.9340  -36.1520   38.9260 C.ar  388  TRP388      0.0152
     86  NE1        8.1840  -36.9150   37.2270 N.ar  388  TRP388     -0.2442
     87  CE2        7.5440  -35.8010   37.7040 C.ar  388  TRP388      0.0810
     88  CE3        6.2120  -35.1780   39.6280 C.ar  388  TRP388      0.0012
     89  CZ2        7.4590  -34.5160   37.1720 C.ar  388  TRP388      0.0191
     90  CZ3        6.1250  -33.9040   39.0960 C.ar  388  TRP388      0.0001
     91  CH2        6.7460  -33.5830   37.8800 C.ar  388  TRP388      0.0015
     92  N          7.2950  -36.5440   42.9180 N.am  389  TYR389     -0.1976
     93  CA         7.5180  -35.2480   43.5400 C.3   389  TYR389      0.1639
     94  C          8.7860  -35.2370   44.3710 C.2   389  TYR389      0.2290
     95  O          9.3770  -34.1800   44.5780 O.2   389  TYR389     -0.2864
     96  CB         6.3550  -34.8630   44.4640 C.3   389  TYR389      0.0560
     97  CG         5.0640  -34.4900   43.7800 C.ar  389  TYR389     -0.0198
     98  CD1        5.0400  -33.6060   42.7090 C.ar  389  TYR389     -0.0009
     99  CD2        3.8650  -35.0130   44.2240 C.ar  389  TYR389     -0.0009
    100  CE1        3.8420  -33.2730   42.0870 C.ar  389  TYR389      0.0417
    101  CE2        2.6650  -34.6900   43.6130 C.ar  389  TYR389      0.0417
    102  CZ         2.6580  -33.8280   42.5550 C.ar  389  TYR389      0.1957
    103  OH         1.4490  -33.5340   41.9720 O.3   389  TYR389     -0.2866
    104  N         11.8830  -36.0820   44.0560 N.3   391  LYS391     -0.1231
    105  CA        13.0620  -35.4600   43.4570 C.3   391  LYS391      0.1693
    106  C         12.7940  -34.0750   42.8600 C.2   391  LYS391      0.2591
    107  O         13.7100  -33.2590   42.7260 O.2   391  LYS391     -0.2718
    108  CB        13.7460  -36.4010   42.4600 C.3   391  LYS391      0.0285
    109  CG        12.8650  -37.1510   41.4430 C.3   391  LYS391      0.0035
    110  CD        12.1400  -36.2720   40.4410 C.3   391  LYS391      0.0206
    111  CE        11.4670  -37.1140   39.3620 C.3   391  LYS391      0.1093
    112  NZ        10.8380  -38.3420   39.9020 N.3   391  LYS391     -0.1314
    113  N         11.5360  -33.8150   42.5140 N.am  392  GLU392     -0.1979
    114  CA        11.1500  -32.5230   41.9550 C.3   392  GLU392      0.1602
    115  C         11.2930  -31.3980   42.9750 C.2   392  GLU392      0.2287
    116  O         11.6320  -30.2610   42.6220 O.2   392  GLU392     -0.2864
    117  CB         9.7220  -32.5770   41.4020 C.3   392  GLU392      0.0415
    118  CG         9.5890  -33.4820   40.2020 C.3   392  GLU392      0.1163
    119  CD        10.5450  -33.0930   39.0750 C.2   392  GLU392      0.3649
    120  OE1       10.6140  -31.9050   38.7110 O.co2 392  GLU392     -0.2457
    121  OE2       11.2550  -33.9720   38.5580 O.co2 392  GLU392     -0.2457
    122  N         10.0850  -25.1810   42.2260 N.3   399  ASN399     -0.1240
    123  CA         9.0320  -25.1410   41.2170 C.3   399  ASN399      0.1653
    124  C          7.7020  -24.9060   41.8900 C.2   399  ASN399      0.2266
    125  O          7.1660  -25.8030   42.5440 O.2   399  ASN399     -0.2867
    126  CB         8.9710  -26.4480   40.4280 C.3   399  ASN399      0.1155
    127  CG         7.9190  -26.4220   39.3290 C.2   399  ASN399      0.2627
    128  OD1        7.2410  -25.4110   39.1160 O.2   399  ASN399     -0.2716
    129  ND2        7.7630  -27.5440   38.6350 N.am  399  ASN399     -0.0877
    130  N          4.9400  -24.6610   40.5370 N.3   401  LYS401     -0.1231
    131  CA         3.8830  -25.3300   39.7910 C.3   401  LYS401      0.1693
    132  C          3.6060  -26.7680   40.2060 C.2   401  LYS401      0.2592
    133  O          2.6600  -27.3710   39.7270 O.2   401  LYS401     -0.2718
    134  CB         4.1690  -25.2770   38.2930 C.3   401  LYS401      0.0285
    135  CG         4.3260  -23.8680   37.7330 C.3   401  LYS401      0.0035
    136  CD         4.3800  -23.8770   36.1940 C.3   401  LYS401      0.0206
    137  CE         5.6510  -24.5080   35.6400 C.3   401  LYS401      0.1093
    138  NZ         6.8610  -23.6650   35.9110 N.3   401  LYS401     -0.1314
    139  N          4.4260  -27.3250   41.0820 N.am  402  LEU402     -0.1966
    140  CA         4.2290  -28.7020   41.5170 C.3   402  LEU402      0.1728
    141  C          2.8890  -28.8690   42.2210 C.2   402  LEU402      0.2616
    142  O          2.4740  -28.0080   42.9860 O.2   402  LEU402     -0.2715
    143  CB         5.3550  -29.1380   42.4550 C.3   402  LEU402      0.0311
    144  CG         6.7600  -29.2420   41.8580 C.3   402  LEU402      0.0022
    145  CD1        7.7720  -29.4630   42.9430 C.3   402  LEU402      0.0001
    146  CD2        6.8360  -30.3580   40.8620 C.3   402  LEU402      0.0001
    147  N          2.2080  -29.9730   41.9440 N.am  403  GLY403     -0.1955
    148  CA         0.9310  -30.2630   42.5720 C.3   403  GLY403      0.1869
    149  C          1.0590  -30.8420   43.9760 C.2   403  GLY403      0.2309
    150  O          0.0810  -31.3340   44.5460 O.2   403  GLY403     -0.2863
@<TRIPOS>BOND
     1    65    64    1
     2    63    64   ar
     3    63    61   ar
     4    64    62   ar
     5    61    59   ar
     6    54    55    1
     7    62    60   ar
     8    59    60   ar
     9    59    58    1
    10    58    55    1
    11    55    56    1
    12    57    56    2
    13   137   138    1
    14   137   136    1
    15   136   135    1
    16    52    53   ar
    17    52    50   ar
    18    53    51   ar
    19    89    87   ar
    20    89    91   ar
    21    86    87   ar
    22    86    84   ar
    23    50    49   ar
    24    87    85   ar
    25   135   134    1
    26    91    90   ar
    27    51    49   ar
    28    84    83   ar
    29    34    33   ar
    30   134   131    1
    31    17    15   am
    32    49    48    1
    33   121   119   ar
    34    46    47    2
    35    46    45    1
    36   129   127   am
    37   120   119   ar
    38    85    83   ar
    39    85    88   ar
    40     9     8    2
    41   119   118    1
    42    90    88   ar
    43   128   127    2
    44    83    82    1
    45    33    35   ar
    46    33    32    1
    47   127   126    1
    48   111   112    1
    49   111   110    1
    50    45    48    1
    51    45    44    1
    52    22    23    1
    53    22    19    1
    54    23    24    1
    55    25    24   ar
    56    24    26   ar
    57   133   132    2
    58    15    14    1
    59    15    16    2
    60   131   132    1
    61   131   130    1
    62    11    14    1
    63    11    12    1
    64    11    10    1
    65    18    19    1
    66   118   117    1
    67   132   139   am
    68     8    10   am
    69     8     7    1
    70    32    31    1
    71    82    79    1
    72   126   123    1
    73   110   109    1
    74    39    38    2
    75    44    38   am
    76    19    20    1
    77    12    13    2
    78   146   144    1
    79    42    40    1
    80    38    37    1
    81   139   140    1
    82     7     6    1
    83   123   124    1
    84   123   122    1
    85    27    20   am
    86    27    28    1
    87   117   114    1
    88   109   108    1
    89    79    80    1
    90    79    78    1
    91   140   141    1
    92   140   143    1
    93    20    21    2
    94    81    80    2
    95    30    29    2
    96    31    28    1
    97   144   143    1
    98   144   145    1
    99     4     3    2
   100   124   125    2
   101   147   141   am
   102   147   148    1
   103   114   113    1
   104   114   115    1
   105   103   102    1
   106    40    37    1
   107    40    41    1
   108    80    92   am
   109   100   102   ar
   110   100    98   ar
   111    28    29    1
   112   141   142    2
   113    37    36    1
   114     6     3   am
   115   108   105    1
   116   113   106   am
   117   102   101   ar
   118   148   149    1
   119   116   115    2
   120     3     2    1
   121    98    97   ar
   122   107   106    2
   123    77    76    1
   124   106   105    1
   125    92    93    1
   126    43    41    1
   127    71    70    1
   128   105   104    1
   129    76    73    1
   130    93    94    1
   131    93    96    1
   132   101    99   ar
   133    70    67    1
   134    97    99   ar
   135    97    96    1
   136   149   150    2
   137     2     1    1
   138     2     5    1
   139    94    95    2
   140    73    74    1
   141    73    72    1
   142    74    75    2
   143    67    66    1
   144    67    68    1
   145    68    69    2
