@<TRIPOS>MOLECULE
tmp/4kbcB00.pdb
 141 133 0 0 0
SMALL
GASTEIGER

@<TRIPOS>ATOM
      1  N         -6.0530  -11.5260  -13.6620 N.3    12  ILE12      -0.1231
      2  CA        -5.1430  -10.9930  -12.6410 C.3    12  ILE12       0.1692
      3  C         -4.1190  -12.0130  -12.1550 C.2    12  ILE12       0.2593
      4  O         -3.1480  -11.6510  -11.4800 O.2    12  ILE12      -0.2718
      5  CB        -5.9280  -10.3480  -11.4630 C.3    12  ILE12       0.0266
      6  CG1       -6.8910  -11.3590  -10.7650 C.3    12  ILE12       0.0019
      7  CG2       -6.6490   -9.0870  -11.9550 C.3    12  ILE12       0.0020
      8  CD1       -7.5280  -10.8630   -9.4570 C.3    12  ILE12       0.0001
      9  N         -4.3560  -13.2740  -12.4840 N.am   13  GLY13      -0.1942
     10  CA        -3.5010  -14.3740  -12.0720 C.3    13  GLY13       0.2014
     11  C         -3.9550  -15.6880  -12.6670 C.2    13  GLY13       0.2640
     12  O         -5.0120  -15.7680  -13.3000 O.2    13  GLY13      -0.2714
     13  N         -3.1350  -16.7160  -12.4760 N.am   14  SER14      -0.1935
     14  CA        -3.4090  -18.0670  -12.9390 C.3    14  SER14       0.2055
     15  C         -3.4820  -18.9720  -11.7160 C.2    14  SER14       0.2643
     16  O         -2.8010  -18.7240  -10.7240 O.2    14  SER14      -0.2714
     17  CB        -2.2970  -18.5530  -13.8690 C.3    14  SER14       0.2130
     18  OG        -2.6320  -18.3900  -15.2380 O.3    14  SER14      -0.2179
     19  N         -4.3530  -19.9690  -11.7920 N.am   15  GLY15      -0.1954
     20  CA        -4.5140  -21.0080  -10.7870 C.3    15  GLY15       0.1869
     21  C         -4.0800  -22.3230  -11.4070 C.2    15  GLY15       0.2309
     22  O         -3.8530  -22.3890  -12.6280 O.2    15  GLY15      -0.2863
     23  N         -7.7330  -16.5680  -13.2910 N.3    20  ILE20      -0.1245
     24  CA        -8.3860  -15.7280  -12.2930 C.3    20  ILE20       0.1561
     25  C         -8.5390  -14.3690  -12.9300 C.2    20  ILE20       0.2260
     26  O         -7.5680  -13.8420  -13.4720 O.2    20  ILE20      -0.2867
     27  CB        -7.5510  -15.6400  -10.9870 C.3    20  ILE20       0.0252
     28  CG1       -7.0830  -17.0300  -10.4750 C.3    20  ILE20       0.0019
     29  CG2       -8.2770  -14.8370   -9.8980 C.3    20  ILE20       0.0019
     30  CD1       -8.1390  -18.0850  -10.3030 C.3    20  ILE20       0.0001
     31  N        -12.8160  -11.4710   -7.2750 N.3    33  ALA33      -0.1245
     32  CA       -11.9290  -12.3560   -8.0160 C.3    33  ALA33       0.1562
     33  C        -12.8340  -13.4440   -8.5900 C.2    33  ALA33       0.2260
     34  O        -13.6550  -14.0160   -7.8650 O.2    33  ALA33      -0.2867
     35  CB       -10.8940  -12.9660   -7.0800 C.3    33  ALA33       0.0290
     36  N        -13.0350  -16.9940  -11.0080 N.3    35  LYS35      -0.1245
     37  CA       -12.4100  -18.1380  -11.6480 C.3    35  LYS35       0.1561
     38  C        -13.4020  -18.7080  -12.6800 C.2    35  LYS35       0.2260
     39  O        -14.5850  -18.8930  -12.3520 O.2    35  LYS35      -0.2867
     40  CB       -11.9840  -19.1760  -10.5870 C.3    35  LYS35       0.0271
     41  CG       -10.9550  -20.1550  -11.0990 C.3    35  LYS35       0.0035
     42  CD       -10.2720  -20.9440   -9.9860 C.3    35  LYS35       0.0206
     43  CE        -9.1200  -21.7280  -10.5790 C.3    35  LYS35       0.1093
     44  NZ        -8.3500  -22.4430   -9.5380 N.3    35  LYS35      -0.1314
     45  N        -13.1120  -28.2300   -6.9030 N.3    45  GLU45      -0.1245
     46  CA       -12.4010  -27.1970   -6.1340 C.3    45  GLU45       0.1567
     47  C        -13.3540  -26.3260   -5.2820 C.2    45  GLU45       0.2260
     48  O        -13.0330  -26.0550   -4.1180 O.2    45  GLU45      -0.2867
     49  CB       -11.4900  -26.3490   -7.0160 C.3    45  GLU45       0.0388
     50  CG       -10.4680  -25.5460   -6.2130 C.3    45  GLU45       0.1160
     51  CD        -9.6260  -24.5340   -6.9640 C.2    45  GLU45       0.3649
     52  OE1       -9.8930  -24.3140   -8.1730 O.co2  45  GLU45      -0.2457
     53  OE2       -8.7300  -23.9310   -6.3250 O.co2  45  GLU45      -0.2457
     54  N        -13.3980  -25.5040   -1.1540 N.3    49  TYR49      -0.1241
     55  CA       -13.5140  -24.1610   -0.5780 C.3    49  TYR49       0.1605
     56  C        -14.7060  -24.0850    0.3620 C.2    49  TYR49       0.2264
     57  O        -14.5660  -23.5930    1.4720 O.2    49  TYR49      -0.2867
     58  CB       -13.6500  -23.1100   -1.6760 C.3    49  TYR49       0.0534
     59  CG       -12.3290  -22.5950   -2.2140 C.ar   49  TYR49      -0.0201
     60  CD1      -11.4870  -21.8040   -1.4240 C.ar   49  TYR49      -0.0009
     61  CD2      -11.9350  -22.8630   -3.5210 C.ar   49  TYR49      -0.0009
     62  CE1      -10.2670  -21.3220   -1.9160 C.ar   49  TYR49       0.0417
     63  CE2      -10.7340  -22.3640   -4.0340 C.ar   49  TYR49       0.0417
     64  CZ        -9.8940  -21.5970   -3.2250 C.ar   49  TYR49       0.1957
     65  OH        -8.7280  -21.0490   -3.7310 O.3    49  TYR49      -0.2866
     66  N        -16.8840  -19.2640  -10.3930 N.3    73  MET73      -0.1245
     67  CA       -16.6980  -19.2070   -8.9510 C.3    73  MET73       0.1570
     68  C        -16.2330  -17.8050   -8.6220 C.2    73  MET73       0.2261
     69  O        -15.3150  -17.2840   -9.2650 O.2    73  MET73      -0.2867
     70  CB       -15.7410  -20.2820   -8.4250 C.3    73  MET73       0.0387
     71  CG       -15.6250  -20.2640   -6.9010 C.3    73  MET73       0.0595
     72  SD       -14.8910  -21.7370   -6.1650 S.3    73  MET73      -0.1393
     73  CE       -13.2500  -21.6440   -6.7780 C.3    73  MET73       0.0692
     74  N        -15.0110  -15.1910   -5.6200 N.3    75  MET75      -0.1230
     75  CA       -14.3540  -15.0880   -4.3360 C.3    75  MET75       0.1702
     76  C        -14.0880  -13.6270   -4.0030 C.2    75  MET75       0.2592
     77  O        -13.8750  -12.8090   -4.9070 O.2    75  MET75      -0.2718
     78  CB       -13.0170  -15.8270   -4.4070 C.3    75  MET75       0.0401
     79  CG       -12.3900  -16.0260   -3.0670 C.3    75  MET75       0.0596
     80  SD       -10.6540  -16.4900   -3.1780 S.3    75  MET75      -0.1393
     81  CE       -10.8300  -18.2250   -3.3820 C.3    75  MET75       0.0692
     82  N        -14.0200  -13.3200   -2.6940 N.am   76  GLU76      -0.1966
     83  CA       -13.6590  -11.9800   -2.2400 C.3    76  GLU76       0.1733
     84  C        -12.2510  -11.6470   -2.8180 C.2    76  GLU76       0.2616
     85  O        -11.4250  -12.5440   -2.9470 O.2    76  GLU76      -0.2715
     86  CB       -13.6410  -11.9250   -0.6860 C.3    76  GLU76       0.0429
     87  CG       -12.4850  -12.6840   -0.0320 C.3    76  GLU76       0.1163
     88  CD       -12.4710  -12.6170    1.4800 C.2    76  GLU76       0.3649
     89  OE1      -12.6360  -13.6830    2.1160 O.co2  76  GLU76      -0.2457
     90  OE2      -12.3340  -11.5000    2.0300 O.co2  76  GLU76      -0.2457
     91  N        -12.0100  -10.4070   -3.2250 N.am   77  LEU77      -0.1963
     92  CA       -10.6850  -10.0240   -3.7450 C.3    77  LEU77       0.1728
     93  C         -9.7050   -9.8350   -2.5710 C.2    77  LEU77       0.2616
     94  O        -10.0640   -9.2040   -1.5730 O.2    77  LEU77      -0.2715
     95  CB       -10.7890   -8.7200   -4.5820 C.3    77  LEU77       0.0311
     96  CG        -9.4890   -8.2100   -5.2210 C.3    77  LEU77       0.0022
     97  CD1       -9.0670   -9.0880   -6.3940 C.3    77  LEU77       0.0001
     98  CD2       -9.6410   -6.7590   -5.6490 C.3    77  LEU77       0.0001
     99  N         -8.4960  -10.3960   -2.6800 N.am   78  LEU78      -0.1963
    100  CA        -7.4800  -10.2870   -1.6340 C.3    78  LEU78       0.1728
    101  C         -6.3040   -9.4440   -2.1360 C.2    78  LEU78       0.2617
    102  O         -6.3280   -8.9660   -3.2770 O.2    78  LEU78      -0.2715
    103  CB        -7.0480  -11.6990   -1.1790 C.3    78  LEU78       0.0311
    104  CG        -8.1920  -12.5840   -0.6280 C.3    78  LEU78       0.0022
    105  CD1       -7.7740  -13.9890   -0.4880 C.3    78  LEU78       0.0001
    106  CD2       -8.7390  -12.0470    0.6830 C.3    78  LEU78       0.0001
    107  N         -5.3000   -9.2490   -1.2950 N.am   79  GLY79      -0.1941
    108  CA        -4.1380   -8.4460   -1.6540 C.3    79  GLY79       0.1998
    109  C         -3.0760   -9.2190   -2.4120 C.2    79  GLY79       0.2480
    110  O         -3.3520  -10.2750   -2.9970 O.2    79  GLY79      -0.2729
    111  N         -1.8220   -8.7170   -2.4060 N.am   80  PRO80      -0.2726
    112  CA        -0.7610   -9.4330   -3.1220 C.3    80  PRO80       0.1402
    113  C         -0.3550  -10.7480   -2.4530 C.2    80  PRO80       0.2269
    114  O         -0.6050  -10.9530   -1.2700 O.2    80  PRO80      -0.2865
    115  CB         0.3950   -8.4260   -3.1410 C.3    80  PRO80       0.0296
    116  CG         0.1650   -7.5510   -1.9410 C.3    80  PRO80       0.0237
    117  CD        -1.3110   -7.4960   -1.7410 C.3    80  PRO80       0.0939
    118  N         -1.8400  -15.2220    0.2720 N.3   128  LEU128     -0.1245
    119  CA        -2.1130  -13.8480   -0.0770 C.3   128  LEU128      0.1561
    120  C         -2.4260  -13.0700    1.1820 C.2   128  LEU128      0.2260
    121  O         -3.0060  -13.6150    2.1170 O.2   128  LEU128     -0.2867
    122  CB        -3.3320  -13.7240   -1.0220 C.3   128  LEU128      0.0270
    123  CG        -3.3990  -14.3540   -2.4210 C.3   128  LEU128      0.0019
    124  CD1       -4.5340  -13.8020   -3.2400 C.3   128  LEU128      0.0001
    125  CD2       -2.1010  -14.5890   -3.1390 C.3   128  LEU128      0.0001
    126  N         -4.7180  -20.1180   -0.5520 N.3   141  ILE141     -0.1231
    127  CA        -5.5800  -20.2690   -1.7310 C.3   141  ILE141      0.1692
    128  C         -5.1540  -21.4640   -2.5570 C.2   141  ILE141      0.2592
    129  O         -4.1320  -22.0890   -2.2790 O.2   141  ILE141     -0.2718
    130  CB        -5.5790  -18.9950   -2.6410 C.3   141  ILE141      0.0266
    131  CG1       -4.1350  -18.6510   -3.1380 C.3   141  ILE141      0.0019
    132  CG2       -6.2290  -17.8010   -1.9380 C.3   141  ILE141      0.0020
    133  CD1       -4.0500  -18.1190   -4.5230 C.3   141  ILE141      0.0001
    134  N         -5.9430  -21.7190   -3.6260 N.am  142  ASP142     -0.1974
    135  CA        -5.7710  -22.7380   -4.6380 C.3   142  ASP142      0.1709
    136  C         -5.7920  -24.1530   -4.1170 C.2   142  ASP142      0.2293
    137  O         -4.7680  -24.6690   -3.6530 O.2   142  ASP142     -0.2864
    138  CB        -4.5290  -22.5000   -5.4770 C.3   142  ASP142      0.1436
    139  CG        -4.7100  -23.1060   -6.8460 C.2   142  ASP142      0.3671
    140  OD1       -5.3090  -24.2020   -6.9400 O.co2 142  ASP142     -0.2456
    141  OD2       -4.2940  -22.4810   -7.8130 O.co2 142  ASP142     -0.2456
@<TRIPOS>BOND
     1    18    17    1
     2    17    14    1
     3     1     2    1
     4    26    25    2
     5    12    11    2
     6    23    24    1
     7    14    13    1
     8    14    15    1
     9    25    24    1
    10    38    39    2
    11    38    37    1
    12    11    13   am
    13    11    10    1
    14     2     3    1
    15     2     5    1
    16    22    21    2
    17     9     3   am
    18     9    10    1
    19    24    27    1
    20     3     4    2
    21     7     5    1
    22    19    15   am
    23    19    20    1
    24    15    16    2
    25    37    36    1
    26    37    40    1
    27     5     6    1
    28    21    20    1
    29    41    40    1
    30    41    42    1
    31    27    28    1
    32    27    29    1
    33     6     8    1
    34    43    42    1
    35    43    44    1
    36    28    30    1
    37    66    67    1
    38    69    68    2
    39    67    68    1
    40    67    70    1
    41    33    32    1
    42    33    34    2
    43    70    71    1
    44    52    51   ar
    45    32    31    1
    46    32    35    1
    47   141   139   ar
    48    49    50    1
    49    49    46    1
    50    51    53   ar
    51    51    50    1
    52   140   139   ar
    53    45    46    1
    54    71    72    1
    55   139   138    1
    56    73    72    1
    57    97    96    1
    58    46    47    1
    59    98    96    1
    60    74    75    1
    61   138   135    1
    62    47    48    2
    63    96    95    1
    64    77    76    2
    65   135   136    1
    66   135   134    1
    67    95    92    1
    68   133   131    1
    69    78    75    1
    70    78    79    1
    71    75    76    1
    72   136   137    2
    73    63    61   ar
    74    63    64   ar
    75    76    82   am
    76    92    91    1
    77    92    93    1
    78    65    64    1
    79   134   128   am
    80    61    59   ar
    81    81    80    1
    82   102   101    2
    83   124   123    1
    84    64    62   ar
    85    91    84   am
    86    80    79    1
    87   115   112    1
    88   115   116    1
    89   125   123    1
    90   131   130    1
    91   112   113    1
    92   112   111    1
    93   110   109    2
    94    85    84    2
    95    84    83    1
    96    82    83    1
    97    99    93   am
    98    99   100    1
    99   130   132    1
   100   130   127    1
   101    93    94    2
   102   128   129    2
   103   128   127    1
   104   113   114    2
   105   123   122    1
   106   109   111   am
   107   109   108    1
   108   111   117    1
   109    83    86    1
   110    59    58    1
   111    59    60   ar
   112   101   100    1
   113   101   107   am
   114   116   117    1
   115    62    60   ar
   116   127   126    1
   117    58    55    1
   118   108   107    1
   119   100   103    1
   120   103   104    1
   121    54    55    1
   122   122   119    1
   123    86    87    1
   124   104   105    1
   125   104   106    1
   126    55    56    1
   127   119   118    1
   128   119   120    1
   129    87    88    1
   130    56    57    2
   131   120   121    2
   132    88    90   ar
   133    88    89   ar
