@<TRIPOS>MOLECULE
tmp/4kbfA00.pdb
 128 122 0 0 0
SMALL
GASTEIGER

@<TRIPOS>ATOM
      1  N         21.8240  -57.4230    4.5010 N.3     3  PHE3       -0.1241
      2  CA        21.2160  -57.7760    3.2080 C.3     3  PHE3        0.1605
      3  C         20.5100  -59.1450    3.2530 C.2     3  PHE3        0.2264
      4  O         19.4710  -59.3450    2.6210 O.2     3  PHE3       -0.2867
      5  CB        22.2560  -57.7850    2.0780 C.3     3  PHE3        0.0534
      6  CG        22.6830  -56.4100    1.6210 C.ar    3  PHE3       -0.0203
      7  CD1       21.7530  -55.5050    1.1370 C.ar    3  PHE3       -0.0042
      8  CD2       24.0240  -56.0410    1.6480 C.ar    3  PHE3       -0.0042
      9  CE1       22.1380  -54.2480    0.7060 C.ar    3  PHE3       -0.0003
     10  CE2       24.4240  -54.7850    1.2170 C.ar    3  PHE3       -0.0003
     11  CZ        23.4720  -53.8850    0.7390 C.ar    3  PHE3       -0.0000
     12  N         31.0720  -60.4110   -2.9650 N.3    19  ARG19      -0.1245
     13  CA        31.7400  -59.1190   -3.0710 C.3    19  ARG19       0.1563
     14  C         31.9620  -58.5080   -1.6860 C.2    19  ARG19       0.2260
     15  O         32.3790  -57.3580   -1.5640 O.2    19  ARG19      -0.2867
     16  CB        30.9200  -58.1700   -3.9510 C.3    19  ARG19       0.0307
     17  CG        30.7370  -58.6500   -5.3870 C.3    19  ARG19       0.0489
     18  CD        29.6700  -57.8370   -6.1020 C.3    19  ARG19       0.2205
     19  NE        30.0200  -56.4230   -6.1700 N.pl3  19  ARG19      -0.0865
     20  CZ        29.1390  -55.4360   -6.3060 C.cat  19  ARG19       0.5346
     21  NH1       27.8370  -55.7010   -6.3740 N.pl3  19  ARG19       0.1354
     22  NH2       29.5580  -54.1790   -6.3550 N.pl3  19  ARG19       0.1354
     23  N         29.7760  -57.6920    0.4900 N.3    21  LEU21      -0.1231
     24  CA        28.7300  -56.7320    0.8420 C.3    21  LEU21       0.1693
     25  C         27.7020  -57.3700    1.7710 C.2    21  LEU21       0.2593
     26  O         27.0040  -58.2980    1.3710 O.2    21  LEU21      -0.2718
     27  CB        28.0290  -56.2370   -0.4220 C.3    21  LEU21       0.0284
     28  CG        28.9210  -55.4940   -1.4200 C.3    21  LEU21       0.0019
     29  CD1       28.1810  -55.2730   -2.7240 C.3    21  LEU21       0.0001
     30  CD2       29.4030  -54.1730   -0.8300 C.3    21  LEU21       0.0001
     31  N         27.5970  -56.8650    3.0000 N.am   22  THR22      -0.1939
     32  CA        26.7300  -57.4870    4.0040 C.3    22  THR22       0.2028
     33  C         25.7140  -56.5340    4.6140 C.2    22  THR22       0.2643
     34  O         24.6550  -56.9590    5.0740 O.2    22  THR22      -0.2714
     35  CB        27.5490  -58.0890    5.1610 C.3    22  THR22       0.1808
     36  OG1       28.2480  -57.0430    5.8500 O.3    22  THR22      -0.2208
     37  CG2       28.5410  -59.1080    4.6410 C.3    22  THR22       0.0379
     38  N         26.0340  -55.2430    4.6140 N.am   23  THR23      -0.1937
     39  CA        25.2570  -54.2660    5.3690 C.3    23  THR23       0.2013
     40  C         24.8610  -53.0650    4.5140 C.2    23  THR23       0.2484
     41  O         25.7200  -52.3910    3.9450 O.2    23  THR23      -0.2729
     42  CB        26.0520  -53.7670    6.5930 C.3    23  THR23       0.1807
     43  OG1       26.5800  -54.8900    7.3050 O.3    23  THR23      -0.2208
     44  CG2       25.1550  -52.9680    7.5220 C.3    23  THR23       0.0379
     45  N         23.5540  -52.7970    4.4180 N.am   24  PRO24      -0.2715
     46  CA        23.0740  -51.6460    3.6410 C.3    24  PRO24       0.1536
     47  C         23.5970  -50.3180    4.1770 C.2    24  PRO24       0.2599
     48  O         23.7790  -50.1450    5.3890 O.2    24  PRO24      -0.2715
     49  CB        21.5530  -51.7050    3.8120 C.3    24  PRO24       0.0310
     50  CG        21.2560  -53.0970    4.2570 C.3    24  PRO24       0.0237
     51  CD        22.4500  -53.5740    5.0110 C.3    24  PRO24       0.0939
     52  N         23.8520  -49.3900    3.2610 N.am   25  THR25      -0.1951
     53  CA        24.1210  -48.0030    3.6230 C.3    25  THR25       0.1897
     54  C         22.7780  -47.3670    3.9860 C.2    25  THR25       0.2313
     55  O         21.7360  -47.9830    3.7600 O.2    25  THR25      -0.2863
     56  CB        24.7370  -47.2530    2.4270 C.3    25  THR25       0.1794
     57  OG1       23.8090  -47.2800    1.3420 O.3    25  THR25      -0.2208
     58  CG2       26.0380  -47.9250    1.9900 C.3    25  THR25       0.0378
     59  N         20.2460  -47.2240    1.1780 N.3    28  GLN28      -0.1245
     60  CA        19.7890  -48.5750    0.8530 C.3    28  GLN28       0.1566
     61  C         18.7940  -49.0690    1.9020 C.2    28  GLN28       0.2260
     62  O         17.7290  -49.5850    1.5590 O.2    28  GLN28      -0.2867
     63  CB        20.9770  -49.5370    0.7180 C.3    28  GLN28       0.0367
     64  CG        21.8850  -49.2100   -0.4570 C.3    28  GLN28       0.0905
     65  CD        23.2780  -49.8190   -0.3110 C.2    28  GLN28       0.2608
     66  OE1       23.5650  -50.5090    0.6630 O.2    28  GLN28      -0.2717
     67  NE2       24.1520  -49.5370   -1.2690 N.am   28  GLN28      -0.0878
     68  N         29.0150  -41.4240   -2.7680 N.3    48  GLY48      -0.1210
     69  CA        29.4710  -42.4660   -1.8660 C.3    48  GLY48       0.1956
     70  C         28.3850  -42.9290   -0.9190 C.2    48  GLY48       0.2613
     71  O         28.6710  -43.4620    0.1520 O.2    48  GLY48      -0.2717
     72  N         27.1320  -42.7330   -1.3110 N.am   49  THR49      -0.1938
     73  CA        26.0230  -43.1080   -0.4430 C.3    49  THR49       0.2028
     74  C         25.5560  -44.5280   -0.7250 C.2    49  THR49       0.2643
     75  O         24.7990  -45.1000    0.0610 O.2    49  THR49      -0.2714
     76  CB        24.8180  -42.1530   -0.6020 C.3    49  THR49       0.1808
     77  OG1       24.2820  -42.2690   -1.9280 O.3    49  THR49      -0.2208
     78  CG2       25.2380  -40.7080   -0.3400 C.3    49  THR49       0.0379
     79  N         26.0050  -45.0820   -1.8500 N.am   50  GLY50      -0.1939
     80  CA        25.5600  -46.3840   -2.3160 C.3    50  GLY50       0.2014
     81  C         24.2120  -46.3490   -3.0180 C.2    50  GLY50       0.2639
     82  O         23.4310  -47.2980   -2.9400 O.2    50  GLY50      -0.2714
     83  N         23.9210  -45.2640   -3.7230 N.am   51  LYS51      -0.1963
     84  CA        22.6130  -45.1590   -4.3550 C.3    51  LYS51       0.1728
     85  C         22.4710  -46.1070   -5.5440 C.2    51  LYS51       0.2617
     86  O         21.3650  -46.5030   -5.8920 O.2    51  LYS51      -0.2715
     87  CB        22.2980  -43.7190   -4.7620 C.3    51  LYS51       0.0311
     88  CG        23.3130  -43.0870   -5.6810 C.3    51  LYS51       0.0038
     89  CD        22.9220  -41.6360   -5.9560 C.3    51  LYS51       0.0206
     90  CE        24.0550  -40.8580   -6.6150 C.3    51  LYS51       0.1093
     91  NZ        24.3830  -41.4120   -7.9530 N.3    51  LYS51      -0.1314
     92  N         23.5850  -46.4640   -6.1710 N.am   52  THR52      -0.1937
     93  CA        23.5160  -47.3970   -7.2970 C.3    52  THR52       0.2028
     94  C         22.9110  -48.7470   -6.8890 C.2    52  THR52       0.2642
     95  O         22.0140  -49.2520   -7.5470 O.2    52  THR52      -0.2714
     96  CB        24.8830  -47.6080   -7.9550 C.3    52  THR52       0.1808
     97  OG1       25.3810  -46.3390   -8.4020 O.3    52  THR52      -0.2208
     98  CG2       24.7550  -48.5440   -9.1540 C.3    52  THR52       0.0379
     99  N         23.4000  -49.3190   -5.7950 N.am   53  LEU53      -0.1977
    100  CA        22.8580  -50.5830   -5.3100 C.3    53  LEU53       0.1596
    101  C         21.4110  -50.4100   -4.8230 C.2    53  LEU53       0.2287
    102  O         20.5990  -51.3510   -4.8670 O.2    53  LEU53      -0.2864
    103  CB        23.7730  -51.1230   -4.2050 C.3    53  LEU53       0.0297
    104  CG        23.6830  -52.5770   -3.7660 C.3    53  LEU53       0.0022
    105  CD1       23.9700  -53.4520   -4.9390 C.3    53  LEU53       0.0001
    106  CD2       24.6870  -52.8490   -2.6540 C.3    53  LEU53       0.0001
    107  N         29.6800  -47.2200  -15.2950 N.3    87  GLN87      -0.1245
    108  CA        29.8460  -47.6390  -13.9020 C.3    87  GLN87       0.1566
    109  C         28.5890  -48.3170  -13.3840 C.2    87  GLN87       0.2260
    110  O         28.6520  -49.3220  -12.6730 O.2    87  GLN87      -0.2867
    111  CB        30.1790  -46.4420  -13.0000 C.3    87  GLN87       0.0367
    112  CG        31.4890  -45.7320  -13.3380 C.3    87  GLN87       0.0905
    113  CD        31.6800  -44.4310  -12.5650 C.2    87  GLN87       0.2608
    114  OE1       32.5230  -43.6050  -12.9210 O.2    87  GLN87      -0.2717
    115  NE2       30.9040  -44.2480  -11.5010 N.am   87  GLN87      -0.0878
    116  N         27.9530  -52.2420  -12.2750 N.3    91  GLU91      -0.1245
    117  CA        27.4030  -52.6060  -10.9810 C.3    91  GLU91       0.1567
    118  C         26.1450  -53.4670  -11.1290 C.2    91  GLU91       0.2260
    119  O         25.9920  -54.4660  -10.4280 O.2    91  GLU91      -0.2867
    120  CB        27.1100  -51.3540  -10.1450 C.3    91  GLU91       0.0388
    121  CG        26.8950  -51.6330   -8.6610 C.3    91  GLU91       0.1160
    122  CD        27.4820  -50.5540   -7.7560 C.2    91  GLU91       0.3649
    123  OE1       28.0130  -49.5490   -8.2770 O.co2  91  GLU91      -0.2457
    124  OE2       27.4160  -50.7150   -6.5170 O.co2  91  GLU91      -0.2457
    125  N         29.0160  -39.4470  -10.2270 N.3   333  GLY333     -0.1225
    126  CA        29.8450  -40.5840   -9.8670 C.3   333  GLY333      0.1811
    127  C         31.2590  -40.2470   -9.4160 C.2   333  GLY333      0.2280
    128  O         31.9700  -41.1240   -8.9230 O.2   333  GLY333     -0.2866
@<TRIPOS>BOND
     1   107   108    1
     2   108   109    1
     3   108   111    1
     4   109   110    2
     5   112   111    1
     6   112   113    1
     7   114   113    2
     8   113   115   am
     9   116   117    1
    10   118   117    1
    11   118   119    2
    12   117   120    1
    13   125   126    1
    14   120   121    1
    15   126   127    1
    16   127   128    2
    17    98    96    1
    18   121   122    1
    19    97    96    1
    20   123   122   ar
    21    96    93    1
    22    91    90    1
    23   122   124   ar
    24    95    94    2
    25    93    94    1
    26    93    92    1
    27    94    99   am
    28    90    89    1
    29    21    20    1
    30    22    20    1
    31    20    19    2
    32    92    85   am
    33    19    18    1
    34    18    17    1
    35    89    88    1
    36    86    85    2
    37    99   100    1
    38    88    87    1
    39    85    84    1
    40    17    16    1
    41   100   101    1
    42   100   103    1
    43   105   104    1
    44   102   101    2
    45    87    84    1
    46    84    83    1
    47   103   104    1
    48    16    13    1
    49   104   106    1
    50    83    81   am
    51    13    12    1
    52    13    14    1
    53    81    82    2
    54    81    80    1
    55    68    69    1
    56    29    28    1
    57    80    79    1
    58    77    76    1
    59    69    70    1
    60    79    74   am
    61    14    15    2
    62    28    30    1
    63    28    27    1
    64    72    70   am
    65    72    73    1
    66    67    65   am
    67    70    71    2
    68    74    73    1
    69    74    75    2
    70    76    73    1
    71    76    78    1
    72    64    65    1
    73    64    63    1
    74    27    24    1
    75    65    66    2
    76    23    24    1
    77     9    11   ar
    78     9     7   ar
    79    63    60    1
    80    11    10   ar
    81    24    25    1
    82    60    59    1
    83    60    61    1
    84     7     6   ar
    85    10     8   ar
    86    57    56    1
    87    26    25    2
    88    62    61    2
    89     6     8   ar
    90     6     5    1
    91    25    31   am
    92    58    56    1
    93     5     2    1
    94    56    53    1
    95     4     3    2
    96    31    32    1
    97     2     3    1
    98     2     1    1
    99    52    53    1
   100    52    47   am
   101    53    54    1
   102    46    49    1
   103    46    47    1
   104    46    45    1
   105    55    54    2
   106    49    50    1
   107    41    40    2
   108    32    33    1
   109    32    35    1
   110    47    48    2
   111    50    51    1
   112    45    40   am
   113    45    51    1
   114    40    39    1
   115    33    38   am
   116    33    34    2
   117    38    39    1
   118    37    35    1
   119    35    36    1
   120    39    42    1
   121    42    43    1
   122    42    44    1
