@<TRIPOS>MOLECULE
tmp/4kbkB00.pdb
 160 149 0 0 0
SMALL
GASTEIGER

@<TRIPOS>ATOM
      1  N         -9.1290    3.5920   17.7030 N.3    13  ILE13      -0.1245
      2  CA        -7.6820    3.6870   17.4390 C.3    13  ILE13       0.1561
      3  C         -7.3430    4.6950   16.3230 C.2    13  ILE13       0.2260
      4  O         -6.4530    5.5250   16.5040 O.2    13  ILE13      -0.2867
      5  CB        -7.0460    2.2770   17.1630 C.3    13  ILE13       0.0252
      6  CG1       -7.3970    1.2180   18.2610 C.3    13  ILE13       0.0019
      7  CG2       -5.5230    2.3510   16.9280 C.3    13  ILE13       0.0019
      8  CD1       -6.8680    1.4490   19.6990 C.3    13  ILE13       0.0001
      9  N         -8.6520    5.6280   11.7590 N.3    15  SER15      -0.1202
     10  CA        -9.6630    5.7510   10.7050 C.3    15  SER15       0.2020
     11  C         -9.1920    5.2300    9.3520 C.2    15  SER15       0.2619
     12  O         -8.0390    5.4420    8.9640 O.2    15  SER15      -0.2717
     13  CB       -10.1320    7.1990   10.5650 C.3    15  SER15       0.2103
     14  OG       -11.3240    7.2960    9.8010 O.3    15  SER15      -0.2182
     15  N        -10.1110    4.5890    8.6370 N.am   16  GLY16      -0.1956
     16  CA        -9.8980    4.0790    7.2870 C.3    16  GLY16       0.1869
     17  C        -10.4950    5.0140    6.2540 C.2    16  GLY16       0.2309
     18  O        -10.9360    6.1140    6.5930 O.2    16  GLY16      -0.2863
     19  N        -11.7440    2.7180   12.9980 N.3    21  ILE21      -0.1245
     20  CA       -11.1050    1.5110   13.5200 C.3    21  ILE21       0.1561
     21  C        -11.1270    1.5670   15.0460 C.2    21  ILE21       0.2260
     22  O        -11.0570    2.6560   15.6250 O.2    21  ILE21      -0.2867
     23  CB        -9.6710    1.3330   12.9410 C.3    21  ILE21       0.0252
     24  CG1       -9.6190    1.5650   11.3960 C.3    21  ILE21       0.0019
     25  CG2       -9.0390   -0.0020   13.3380 C.3    21  ILE21       0.0019
     26  CD1      -10.5490    0.7180   10.5220 C.3    21  ILE21       0.0001
     27  N        -10.1250   -1.0970   18.7710 N.3    23  LEU23      -0.1245
     28  CA        -9.4910   -2.3070   19.2700 C.3    23  LEU23       0.1561
     29  C        -10.6140   -3.1890   19.7860 C.2    23  LEU23       0.2260
     30  O        -11.7190   -2.6990   19.9950 O.2    23  LEU23      -0.2867
     31  CB        -8.5000   -1.9980   20.3830 C.3    23  LEU23       0.0270
     32  CG        -7.2530   -2.8830   20.3600 C.3    23  LEU23       0.0019
     33  CD1       -6.1970   -2.3230   19.3820 C.3    23  LEU23       0.0001
     34  CD2       -6.6940   -3.0720   21.7700 C.3    23  LEU23       0.0001
     35  N         -8.8880   -6.2440   15.6000 N.3    34  ALA34      -0.1245
     36  CA        -9.0900   -4.8860   15.0860 C.3    34  ALA34       0.1562
     37  C        -10.4800   -4.9180   14.5140 C.2    34  ALA34       0.2260
     38  O        -10.8360   -5.8840   13.8240 O.2    34  ALA34      -0.2867
     39  CB        -8.0620   -4.5760   13.9950 C.3    34  ALA34       0.0290
     40  N        -13.6250   -2.6780   12.4500 N.3    36  LYS36      -0.1245
     41  CA       -14.0120   -1.5330   11.6330 C.3    36  LYS36       0.1561
     42  C        -15.5190   -1.4010   11.6860 C.2    36  LYS36       0.2260
     43  O        -16.2310   -2.3620   11.4020 O.2    36  LYS36      -0.2867
     44  CB       -13.5400   -1.7070   10.1720 C.3    36  LYS36       0.0271
     45  CG       -13.7590   -0.4750    9.3060 C.3    36  LYS36       0.0035
     46  CD       -13.0950   -0.6410    7.9550 C.3    36  LYS36       0.0206
     47  CE       -13.1890    0.5950    7.1010 C.3    36  LYS36       0.1093
     48  NZ       -12.2860    0.5030    5.9180 N.3    36  LYS36      -0.1314
     49  N        -11.9340   -8.4550    0.5550 N.3    54  TYR54      -0.1241
     50  CA       -11.0780   -9.1690    1.5110 C.3    54  TYR54       0.1605
     51  C        -11.3180  -10.6840    1.4120 C.2    54  TYR54       0.2264
     52  O        -10.3470  -11.4350    1.3980 O.2    54  TYR54      -0.2867
     53  CB       -11.3230   -8.6910    2.9530 C.3    54  TYR54       0.0534
     54  CG       -10.5950   -7.4280    3.3480 C.ar   54  TYR54      -0.0201
     55  CD1       -9.2130   -7.4230    3.5230 C.ar   54  TYR54      -0.0009
     56  CD2      -11.2940   -6.2540    3.6340 C.ar   54  TYR54      -0.0009
     57  CE1       -8.5360   -6.2740    3.9280 C.ar   54  TYR54       0.0417
     58  CE2      -10.6280   -5.0990    4.0450 C.ar   54  TYR54       0.0417
     59  CZ        -9.2450   -5.1130    4.1790 C.ar   54  TYR54       0.1957
     60  OH        -8.5660   -4.0100    4.6400 O.3    54  TYR54      -0.2866
     61  N        -16.9690   -5.1800   10.7770 N.3    78  MET78      -0.1245
     62  CA       -15.9820   -6.0920   10.2340 C.3    78  MET78       0.1570
     63  C        -14.8630   -6.2960   11.2910 C.2    78  MET78       0.2261
     64  O        -14.3290   -5.3290   11.8300 O.2    78  MET78      -0.2867
     65  CB       -15.4430   -5.6210    8.8930 C.3    78  MET78       0.0387
     66  CG       -14.7180   -6.7290    8.1340 C.3    78  MET78       0.0595
     67  SD       -14.2590   -6.3070    6.4250 S.3    78  MET78      -0.1393
     68  CE       -13.1940   -4.9740    6.7060 C.3    78  MET78       0.0692
     69  N        -11.1680   -8.0110   12.0370 N.3    80  MET80      -0.1230
     70  CA        -9.9400   -8.4190   11.3780 C.3    80  MET80       0.1702
     71  C         -8.9190   -8.8890   12.4210 C.2    80  MET80       0.2595
     72  O         -8.9240   -8.3910   13.5540 O.2    80  MET80      -0.2718
     73  CB        -9.3690   -7.1970   10.5990 C.3    80  MET80       0.0401
     74  CG        -8.0880   -7.4880    9.8110 C.3    80  MET80       0.0596
     75  SD        -7.3430   -6.0630    8.9430 S.3    80  MET80      -0.1393
     76  CE        -8.4090   -5.9830    7.5680 C.3    80  MET80       0.0692
     77  N         -7.9840   -9.7750   12.0190 N.am   81  GLU81      -0.1920
     78  CA        -6.8720  -10.1630   12.8950 C.3    81  GLU81       0.1949
     79  C         -6.0540   -8.9020   13.2210 C.2    81  GLU81       0.2659
     80  O         -5.9250   -8.0130   12.3760 O.2    81  GLU81      -0.2711
     81  CB        -5.9800  -11.2260   12.2180 C.2    81  GLU81       0.0111
     82  CG        -5.1920  -10.7500   10.9940 C.2    81  GLU81       0.0838
     83  CD        -4.2210  -11.7400   10.3870 C.2    81  GLU81       0.3877
     84  OE1       -4.2900  -11.9450    9.1560 O.co2  81  GLU81      -0.2406
     85  OE2       -3.3960  -12.3150   11.1340 O.co2  81  GLU81      -0.2406
     86  N         -5.5310   -8.8150   14.4330 N.am   82  LEU82      -0.1961
     87  CA        -4.7360   -7.6600   14.8410 C.3    82  LEU82       0.1728
     88  C         -3.3880   -7.6840   14.1350 C.2    82  LEU82       0.2616
     89  O         -2.7240   -8.7330   14.0810 O.2    82  LEU82      -0.2715
     90  CB        -4.5500   -7.6120   16.3760 C.3    82  LEU82       0.0311
     91  CG        -3.8720   -6.3470   16.9440 C.3    82  LEU82       0.0022
     92  CD1       -4.8080   -5.1530   16.9270 C.3    82  LEU82       0.0001
     93  CD2       -3.3960   -6.5940   18.3650 C.3    82  LEU82       0.0001
     94  N         -3.0320   -6.5500   13.5270 N.am   83  LEU83      -0.1963
     95  CA        -1.7570   -6.4340   12.8250 C.3    83  LEU83       0.1728
     96  C         -0.8940   -5.4760   13.5880 C.2    83  LEU83       0.2617
     97  O         -1.3610   -4.8350   14.5350 O.2    83  LEU83      -0.2715
     98  CB        -1.9520   -5.9470   11.3660 C.3    83  LEU83       0.0311
     99  CG        -2.7410   -6.8940   10.4300 C.3    83  LEU83       0.0022
    100  CD1       -3.0240   -6.2340    9.0920 C.3    83  LEU83       0.0001
    101  CD2       -2.0500   -8.2390   10.2670 C.3    83  LEU83       0.0001
    102  N          0.3590   -5.3810   13.1740 N.am   84  GLY84      -0.1941
    103  CA         1.3190   -4.4940   13.7970 C.3    84  GLY84       0.1998
    104  C          1.2390   -3.0870   13.2710 C.2    84  GLY84       0.2480
    105  O          0.2820   -2.7270   12.5820 O.2    84  GLY84      -0.2729
    106  N          2.2670   -2.2650   13.5510 N.am   85  PRO85      -0.2726
    107  CA         2.2330   -0.8770   13.0740 C.3    85  PRO85       0.1402
    108  C          2.3590   -0.7590   11.5600 C.2    85  PRO85       0.2269
    109  O          2.8570   -1.6690   10.8970 O.2    85  PRO85      -0.2865
    110  CB         3.4190   -0.2470   13.7860 C.3    85  PRO85       0.0296
    111  CG         4.3510   -1.3850   14.0060 C.3    85  PRO85       0.0237
    112  CD         3.4860   -2.5360   14.3400 C.3    85  PRO85       0.0939
    113  N          4.0460    4.5770   10.5680 N.3    89  ASP89      -0.1239
    114  CA         4.3650    4.5720   12.0130 C.3    89  ASP89       0.1674
    115  C          5.8140    4.1360   12.2510 C.2    89  ASP89       0.2266
    116  O          6.5310    4.7690   13.0340 O.2    89  ASP89      -0.2867
    117  CB         3.4130    3.6560   12.7830 C.3    89  ASP89       0.1410
    118  CG         1.9640    4.1060   12.7870 C.2    89  ASP89       0.3668
    119  OD1        1.7200    5.3180   12.6050 O.co2  89  ASP89      -0.2456
    120  OD2        1.0720    3.2430   12.9840 O.co2  89  ASP89      -0.2456
    121  N          0.7160    4.1860    5.0220 N.3   130  ASP130     -0.1225
    122  CA        -0.3580    3.9110    5.9870 C.3   130  ASP130      0.1805
    123  C         -1.1600    2.6310    5.6520 C.2   130  ASP130      0.2597
    124  O         -1.8210    2.0870    6.5340 O.2   130  ASP130     -0.2718
    125  CB        -1.3240    5.1210    6.0770 C.3   130  ASP130      0.1424
    126  CG        -0.7520    6.3060    6.8440 C.2   130  ASP130      0.3668
    127  OD1       -0.2380    6.0960    7.9870 O.co2 130  ASP130     -0.2456
    128  OD2       -0.9770    7.4600    6.4100 O.co2 130  ASP130     -0.2456
    129  N         -1.1090    2.1540    4.3940 N.am  131  ASN131     -0.1974
    130  CA        -1.8800    0.9680    3.9660 C.3   131  ASN131      0.1688
    131  C         -1.0700   -0.3040    3.9080 C.2   131  ASN131      0.2292
    132  O         -1.5740   -1.3300    3.4430 O.2   131  ASN131     -0.2864
    133  CB        -2.6160    1.2240    2.6520 C.3   131  ASN131      0.1181
    134  CG        -3.8030    2.1330    2.8450 C.2   131  ASN131      0.2629
    135  OD1       -4.2740    2.3390    3.9680 O.2   131  ASN131     -0.2716
    136  ND2       -4.2850    2.7400    1.7730 N.am  131  ASN131     -0.0877
    137  N          0.9820   -2.7010    6.6430 N.3   133  LEU133     -0.1245
    138  CA         1.1920   -2.9000    8.0810 C.3   133  LEU133      0.1561
    139  C          2.0400   -4.1420    8.2990 C.2   133  LEU133      0.2260
    140  O          1.8390   -5.1410    7.6160 O.2   133  LEU133     -0.2867
    141  CB        -0.1940   -3.0610    8.7710 C.3   133  LEU133      0.0270
    142  CG        -0.9110   -1.7820    9.2740 C.3   133  LEU133      0.0019
    143  CD1       -1.3780   -0.8980    8.1450 C.3   133  LEU133      0.0001
    144  CD2       -2.1310   -2.1250   10.1450 C.3   133  LEU133      0.0001
    145  N         -3.5800   -3.3780    3.3990 N.3   146  ILE146     -0.1231
    146  CA        -4.9330   -3.1760    3.9070 C.3   146  ILE146      0.1692
    147  C         -5.6820   -2.1320    3.0910 C.2   146  ILE146      0.2592
    148  O         -5.0940   -1.4620    2.2460 O.2   146  ILE146     -0.2718
    149  CB        -4.9470   -2.7850    5.4180 C.3   146  ILE146      0.0266
    150  CG1       -4.2720   -1.4290    5.6720 C.3   146  ILE146      0.0019
    151  CG2       -4.3680   -3.8890    6.2990 C.3   146  ILE146      0.0020
    152  CD1       -4.8340   -0.6400    6.7660 C.3   146  ILE146      0.0001
    153  N         -6.9760   -1.9650    3.4310 N.am  147  ASP147     -0.1974
    154  CA        -7.8960   -0.9750    2.9410 C.3   147  ASP147      0.1709
    155  C         -8.2210   -1.1460    1.4740 C.2   147  ASP147      0.2293
    156  O         -7.4650   -0.6910    0.6000 O.2   147  ASP147     -0.2864
    157  CB        -7.4110    0.4570    3.2530 C.3   147  ASP147      0.1436
    158  CG        -8.5700    1.4120    3.4260 C.2   147  ASP147      0.3671
    159  OD1       -9.4550    1.4420    2.5380 O.co2 147  ASP147     -0.2456
    160  OD2       -8.6210    2.0970    4.4690 O.co2 147  ASP147     -0.2456
@<TRIPOS>BOND
     1    49    50    1
     2   156   155    2
     3    52    51    2
     4    51    50    1
     5   155   154    1
     6    50    53    1
     7   136   134   am
     8   148   147    2
     9   159   158   ar
    10   133   134    1
    11   133   130    1
    12   134   135    2
    13   154   157    1
    14   154   153    1
    15    53    54    1
    16   147   153   am
    17   147   146    1
    18   157   158    1
    19    54    55   ar
    20    54    56   ar
    21   145   146    1
    22   158   160   ar
    23   132   131    2
    24    55    57   ar
    25    56    58   ar
    26   146   149    1
    27   131   130    1
    28    57    59   ar
    29   130   129    1
    30    58    59   ar
    31    59    60    1
    32   129   123   am
    33   121   122    1
    34   149   150    1
    35   149   151    1
    36   123   122    1
    37   123   124    2
    38   150   152    1
    39    48    47    1
    40   122   125    1
    41   125   126    1
    42    17    18    2
    43    17    16    1
    44   128   126   ar
    45    67    68    1
    46    67    66    1
    47   137   138    1
    48   126   127   ar
    49    47    46    1
    50    16    15    1
    51    76    75    1
    52   140   139    2
    53    46    45    1
    54   138   139    1
    55   138   141    1
    56    66    65    1
    57   143   142    1
    58    15    11   am
    59   141   142    1
    60    65    62    1
    61    75    74    1
    62    12    11    2
    63   100    99    1
    64    84    83   ar
    65   142   144    1
    66    45    44    1
    67    11    10    1
    68    14    13    1
    69    74    73    1
    70    44    41    1
    71    62    61    1
    72    62    63    1
    73   101    99    1
    74    83    82    1
    75    83    85   ar
    76    99    98    1
    77    26    24    1
    78    13    10    1
    79   113   114    1
    80    73    70    1
    81    10     9    1
    82   109   108    2
    83    82    81    2
    84    63    64    2
    85    98    95    1
    86    70    69    1
    87    70    71    1
    88    24    23    1
    89    43    42    2
    90   108   107    1
    91    41    42    1
    92    41    40    1
    93   114   115    1
    94   114   117    1
    95    77    71   am
    96    77    78    1
    97    81    78    1
    98   115   116    2
    99    80    79    2
   100    71    72    2
   101   105   104    2
   102   119   118   ar
   103   117   118    1
   104   118   120   ar
   105    95    94    1
   106    95    96    1
   107    78    79    1
   108    23    25    1
   109    23    20    1
   110    19    20    1
   111   107   106    1
   112   107   110    1
   113   102    96   am
   114   102   103    1
   115    79    86   am
   116   104   106   am
   117   104   103    1
   118    20    21    1
   119    94    88   am
   120   106   112    1
   121    96    97    2
   122   110   111    1
   123    38    37    2
   124    39    36    1
   125   111   112    1
   126    89    88    2
   127    88    87    1
   128    86    87    1
   129    37    36    1
   130    87    90    1
   131    21    22    2
   132    36    35    1
   133     3     4    2
   134     3     2    1
   135    90    91    1
   136    92    91    1
   137     7     5    1
   138    91    93    1
   139     5     2    1
   140     5     6    1
   141     2     1    1
   142     6     8    1
   143    27    28    1
   144    28    29    1
   145    28    31    1
   146    33    32    1
   147    29    30    2
   148    32    31    1
   149    32    34    1
