@<TRIPOS>MOLECULE
tmp/4kbnA00.pdb
 182 175 0 0 0
SMALL
GASTEIGER

@<TRIPOS>ATOM
      1  N         24.8080    1.5790   20.3190 N.3     7  ILE7       -0.1231
      2  CA        23.8140    1.8000   19.2860 C.3     7  ILE7        0.1692
      3  C         23.0430    3.0750   19.5960 C.2     7  ILE7        0.2592
      4  O         22.5960    3.2860   20.7220 O.2     7  ILE7       -0.2718
      5  CB        22.8930    0.5670   19.0860 C.3     7  ILE7        0.0266
      6  CG1       21.9530    0.7770   17.8980 C.3     7  ILE7        0.0019
      7  CG2       22.1310    0.2280   20.3630 C.3     7  ILE7        0.0020
      8  CD1       21.3240   -0.5090   17.3970 C.3     7  ILE7        0.0001
      9  N         22.9320    3.9420   18.5960 N.am    8  VAL8       -0.1966
     10  CA        22.3450    5.2560   18.7910 C.3     8  VAL8        0.1727
     11  C         21.7050    5.7470   17.4950 C.2     8  VAL8        0.2616
     12  O         22.1320    5.3750   16.4030 O.2     8  VAL8       -0.2715
     13  CB        23.4120    6.2650   19.2880 C.3     8  VAL8        0.0290
     14  CG1       24.4570    6.5270   18.2090 C.3     8  VAL8        0.0023
     15  CG2       22.7700    7.5620   19.7520 C.3     8  VAL8        0.0023
     16  N         20.6660    6.5650   17.6240 N.am    9  ALA9       -0.1977
     17  CA        20.0910    7.2640   16.4850 C.3     9  ALA9        0.1597
     18  C         20.2400    8.7510   16.7600 C.2     9  ALA9        0.2287
     19  O         19.8870    9.2250   17.8400 O.2     9  ALA9       -0.2864
     20  CB        18.6320    6.8920   16.3140 C.3     9  ALA9        0.0319
     21  N         12.3120   10.6830   22.2200 N.3    22  LEU22      -0.1245
     22  CA        13.0850   10.9560   21.0150 C.3    22  LEU22       0.1561
     23  C         12.6530   12.2960   20.4280 C.2    22  LEU22       0.2260
     24  O         11.4970   12.6930   20.5720 O.2    22  LEU22      -0.2867
     25  CB        12.8960    9.8400   19.9840 C.3    22  LEU22       0.0270
     26  CG        13.1620    8.4030   20.4380 C.3    22  LEU22       0.0019
     27  CD1       12.9870    7.4400   19.2750 C.3    22  LEU22       0.0001
     28  CD2       14.5510    8.2670   21.0470 C.3    22  LEU22       0.0001
     29  N         12.3820   13.0240   17.2970 N.3    24  TRP24      -0.1241
     30  CA        11.5960   12.7930   16.0890 C.3    24  TRP24       0.1605
     31  C         10.4060   11.8770   16.3600 C.2    24  TRP24       0.2264
     32  O         10.3970   11.1450   17.3500 O.2    24  TRP24      -0.2867
     33  CB        12.4870   12.1850   15.0030 C.3    24  TRP24       0.0550
     34  CG        13.3540   11.0790   15.5080 C.ar   24  TRP24       0.0003
     35  CD1       13.0290    9.7580   15.5990 C.ar   24  TRP24       0.0946
     36  CD2       14.6940   11.1990   15.9990 C.ar   24  TRP24       0.0152
     37  NE1       14.0850    9.0460   16.1170 N.ar   24  TRP24      -0.2442
     38  CE2       15.1190    9.9080   16.3700 C.ar   24  TRP24       0.0810
     39  CE3       15.5750   12.2730   16.1590 C.ar   24  TRP24       0.0012
     40  CZ2       16.3880    9.6620   16.8910 C.ar   24  TRP24       0.0191
     41  CZ3       16.8360   12.0250   16.6770 C.ar   24  TRP24       0.0001
     42  CH2       17.2290   10.7300   17.0370 C.ar   24  TRP24       0.0015
     43  N          9.8200    5.9910   14.3180 N.3    27  LEU27      -0.1245
     44  CA        10.1750    5.3390   13.0630 C.3    27  LEU27       0.1561
     45  C         10.1900    3.8370   13.3140 C.2    27  LEU27       0.2260
     46  O         11.0890    3.3190   13.9800 O.2    27  LEU27      -0.2867
     47  CB        11.5360    5.8310   12.5690 C.3    27  LEU27       0.0270
     48  CG        11.6720    7.3560   12.4830 C.3    27  LEU27       0.0019
     49  CD1       13.0920    7.7660   12.1220 C.3    27  LEU27       0.0001
     50  CD2       10.6790    7.9180   11.4820 C.3    27  LEU27       0.0001
     51  N         13.2190    1.6770   12.0520 N.3    30  GLU30      -0.1231
     52  CA        14.4090    2.0990   12.7780 C.3    30  GLU30       0.1699
     53  C         14.4070    1.4670   14.1650 C.2    30  GLU30       0.2592
     54  O         15.4450    1.0350   14.6630 O.2    30  GLU30      -0.2718
     55  CB        14.4730    3.6240   12.8800 C.3    30  GLU30       0.0402
     56  CG        15.8890    4.1780   12.9070 C.3    30  GLU30       0.1161
     57  CD        16.6030    3.8860   14.2130 C.2    30  GLU30       0.3649
     58  OE1       17.7870    3.4940   14.1660 O.co2  30  GLU30      -0.2457
     59  OE2       15.9780    4.0370   15.2830 O.co2  30  GLU30      -0.2457
     60  N         13.2320    1.4100   14.7820 N.am   31  PHE31      -0.1976
     61  CA        13.0880    0.7590   16.0780 C.3    31  PHE31       0.1639
     62  C         13.3320   -0.7500   15.9900 C.2    31  PHE31       0.2290
     63  O         13.9950   -1.3260   16.8520 O.2    31  PHE31      -0.2864
     64  CB        11.7110    1.0450   16.6850 C.3    31  PHE31       0.0560
     65  CG        11.4930    0.3900   18.0190 C.ar   31  PHE31      -0.0200
     66  CD1       12.1200    0.8760   19.1550 C.ar   31  PHE31      -0.0042
     67  CD2       10.6720   -0.7200   18.1360 C.ar   31  PHE31      -0.0042
     68  CE1       11.9260    0.2730   20.3840 C.ar   31  PHE31      -0.0003
     69  CE2       10.4740   -1.3280   19.3620 C.ar   31  PHE31      -0.0003
     70  CZ        11.1020   -0.8310   20.4870 C.ar   31  PHE31      -0.0000
     71  N         15.1700   -2.2510   13.8760 N.3    33  TYR33      -0.1227
     72  CA        16.6090   -2.3920   13.6950 C.3    33  TYR33       0.1736
     73  C         17.2920   -2.3710   15.0560 C.2    33  TYR33       0.2595
     74  O         18.1610   -3.1950   15.3390 O.2    33  TYR33      -0.2718
     75  CB        17.1410   -1.2660   12.8050 C.3    33  TYR33       0.0548
     76  CG        18.6510   -1.1900   12.6770 C.ar   33  TYR33      -0.0200
     77  CD1       19.3910   -0.3050   13.4530 C.ar   33  TYR33      -0.0009
     78  CD2       19.3330   -1.9820   11.7620 C.ar   33  TYR33      -0.0009
     79  CE1       20.7700   -0.2230   13.3300 C.ar   33  TYR33       0.0417
     80  CE2       20.7120   -1.9050   11.6320 C.ar   33  TYR33       0.0417
     81  CZ        21.4230   -1.0240   12.4190 C.ar   33  TYR33       0.1957
     82  OH        22.7920   -0.9420   12.2940 O.3    33  TYR33      -0.2866
     83  N         16.8860   -1.4250   15.8960 N.am   34  PHE34      -0.1976
     84  CA        17.4070   -1.3320   17.2540 C.3    34  PHE34       0.1639
     85  C         17.1060   -2.6110   18.0310 C.2    34  PHE34       0.2290
     86  O         17.9740   -3.1320   18.7310 O.2    34  PHE34      -0.2864
     87  CB        16.8330   -0.1050   17.9670 C.3    34  PHE34       0.0560
     88  CG        17.0780   -0.0910   19.4490 C.ar   34  PHE34      -0.0200
     89  CD1       18.2870    0.3490   19.9590 C.ar   34  PHE34      -0.0042
     90  CD2       16.0930   -0.5010   20.3330 C.ar   34  PHE34      -0.0042
     91  CE1       18.5160    0.3690   21.3220 C.ar   34  PHE34      -0.0003
     92  CE2       16.3150   -0.4850   21.6970 C.ar   34  PHE34      -0.0003
     93  CZ        17.5280   -0.0470   22.1930 C.ar   34  PHE34      -0.0000
     94  N         22.1580    0.8680   30.1240 N.3    52  MET52      -0.1245
     95  CA        21.5540    2.1690   29.8830 C.3    52  MET52       0.1570
     96  C         21.6080    3.0680   31.1100 C.2    52  MET52       0.2261
     97  O         21.7290    2.5910   32.2390 O.2    52  MET52      -0.2867
     98  CB        20.1010    2.0110   29.4320 C.3    52  MET52       0.0387
     99  CG        19.1410    1.6480   30.5480 C.3    52  MET52       0.0595
    100  SD        17.5370    1.1220   29.9260 S.3    52  MET52      -0.1393
    101  CE        17.8880   -0.5720   29.4620 C.3    52  MET52       0.0692
    102  N         17.1810    7.1050   30.5740 N.3    56  THR56      -0.1218
    103  CA        16.7860    6.2730   29.4430 C.3    56  THR56       0.1862
    104  C         15.8660    5.1400   29.8940 C.2    56  THR56       0.2287
    105  O         14.8720    4.8380   29.2330 O.2    56  THR56      -0.2866
    106  CB        18.0080    5.7060   28.6910 C.3    56  THR56       0.1770
    107  OG1       18.7870    6.7860   28.1590 O.3    56  THR56      -0.2211
    108  CG2       17.5680    4.7950   27.5560 C.3    56  THR56       0.0375
    109  N         12.5710    6.4100   30.3980 N.3    59  SER59      -0.1202
    110  CA        12.0240    6.8470   29.1190 C.3    59  SER59       0.2020
    111  C         11.2960    5.7010   28.4230 C.2    59  SER59       0.2619
    112  O         10.5050    5.9200   27.5080 O.2    59  SER59      -0.2717
    113  CB        13.1270    7.4100   28.2180 C.3    59  SER59       0.2103
    114  OG        13.8320    6.3710   27.5640 O.3    59  SER59      -0.2182
    115  N         11.5710    4.4770   28.8620 N.am   60  ILE60      -0.1966
    116  CA        10.8780    3.3010   28.3460 C.3    60  ILE60       0.1712
    117  C          9.5550    3.1310   29.0810 C.2    60  ILE60       0.2458
    118  O          9.5120    3.2160   30.3120 O.2    60  ILE60      -0.2730
    119  CB        11.7100    2.0120   28.5410 C.3    60  ILE60       0.0289
    120  CG1       13.1490    2.2030   28.0530 C.3    60  ILE60       0.0022
    121  CG2       11.0480    0.8200   27.8490 C.3    60  ILE60       0.0023
    122  CD1       14.0460    1.0110   28.3360 C.3    60  ILE60       0.0001
    123  N          8.4650    2.9130   28.3290 N.am   61  PRO61      -0.2727
    124  CA         7.1510    2.6510   28.9260 C.3    61  PRO61       0.1402
    125  C          7.1900    1.4420   29.8560 C.2    61  PRO61       0.2269
    126  O          7.7490    0.4140   29.4750 O.2    61  PRO61      -0.2865
    127  CB         6.2720    2.3470   27.7090 C.3    61  PRO61       0.0296
    128  CG         6.9150    3.0880   26.5920 C.3    61  PRO61       0.0237
    129  CD         8.3950    2.9950   26.8590 C.3    61  PRO61       0.0939
    130  N          6.9320   -2.1090   28.8400 N.3    64  ASN64      -0.1240
    131  CA         7.9750   -2.6310   27.9710 C.3    64  ASN64       0.1653
    132  C          9.2850   -2.7870   28.7320 C.2    64  ASN64       0.2266
    133  O         10.3300   -3.0580   28.1420 O.2    64  ASN64      -0.2867
    134  CB         8.1540   -1.7240   26.7550 C.3    64  ASN64       0.1155
    135  CG         6.9130   -1.6740   25.8820 C.2    64  ASN64       0.2627
    136  OD1        6.2710   -2.6950   25.6350 O.2    64  ASN64      -0.2716
    137  ND2        6.5620   -0.4790   25.4220 N.am   64  ASN64      -0.0877
    138  N         13.4510   -4.5590   28.8880 N.3    67  LEU67      -0.1245
    139  CA        13.4850   -4.9120   27.4730 C.3    67  LEU67       0.1561
    140  C         13.5250   -6.4240   27.2980 C.2    67  LEU67       0.2260
    141  O         14.4450   -7.0890   27.7700 O.2    67  LEU67      -0.2867
    142  CB        14.6820   -4.2580   26.7830 C.3    67  LEU67       0.0270
    143  CG        14.7290   -2.7330   26.8930 C.3    67  LEU67       0.0019
    144  CD1       15.9000   -2.1720   26.1050 C.3    67  LEU67       0.0001
    145  CD2       13.4160   -2.1270   26.4170 C.3    67  LEU67       0.0001
    146  N         23.0230    1.3990   25.1660 N.3   115  VAL115     -0.1245
    147  CA        21.8990    2.0220   24.4720 C.3   115  VAL115      0.1561
    148  C         21.5830    3.4450   24.9420 C.2   115  VAL115      0.2260
    149  O         20.4800    3.9440   24.7220 O.2   115  VAL115     -0.2867
    150  CB        20.6230    1.1500   24.5530 C.3   115  VAL115      0.0252
    151  CG1       20.8800   -0.2280   23.9630 C.3   115  VAL115      0.0019
    152  CG2       20.1430    1.0330   25.9910 C.3   115  VAL115      0.0019
    153  N         27.2230    6.7700   26.6010 N.3   121  TYR121     -0.1241
    154  CA        27.9340    6.6990   25.3260 C.3   121  TYR121      0.1605
    155  C         29.3630    7.2110   25.4590 C.2   121  TYR121      0.2264
    156  O         30.3010    6.5880   24.9610 O.2   121  TYR121     -0.2867
    157  CB        27.2120    7.5200   24.2530 C.3   121  TYR121      0.0534
    158  CG        25.9120    6.9260   23.7580 C.ar  121  TYR121     -0.0201
    159  CD1       24.7700    7.7100   23.6420 C.ar  121  TYR121     -0.0009
    160  CD2       25.8330    5.5920   23.3790 C.ar  121  TYR121     -0.0009
    161  CE1       23.5810    7.1770   23.1800 C.ar  121  TYR121      0.0417
    162  CE2       24.6470    5.0500   22.9150 C.ar  121  TYR121      0.0417
    163  CZ        23.5240    5.8480   22.8180 C.ar  121  TYR121      0.1957
    164  OH        22.3430    5.3130   22.3580 O.3   121  TYR121     -0.2866
    165  N         27.0720    1.6000   16.2900 N.3   134  PHE134     -0.1241
    166  CA        26.0030    1.5590   15.3060 C.3   134  PHE134      0.1605
    167  C         25.2270    2.8640   15.3750 C.2   134  PHE134      0.2264
    168  O         24.4590    3.1030   16.3070 O.2   134  PHE134     -0.2867
    169  CB        25.1020    0.3450   15.5400 C.3   134  PHE134      0.0534
    170  CG        25.7680   -0.9630   15.2170 C.ar  134  PHE134     -0.0203
    171  CD1       26.6590   -1.5440   16.1060 C.ar  134  PHE134     -0.0042
    172  CD2       25.5250   -1.5970   14.0100 C.ar  134  PHE134     -0.0042
    173  CE1       27.2810   -2.7430   15.8030 C.ar  134  PHE134     -0.0003
    174  CE2       26.1460   -2.7930   13.7010 C.ar  134  PHE134     -0.0003
    175  CZ        27.0240   -3.3680   14.5990 C.ar  134  PHE134     -0.0000
    176  N         22.7020    5.5340   13.5950 N.3   136  THR136     -0.1218
    177  CA        21.7080    5.9110   12.6060 C.3   136  THR136      0.1862
    178  C         21.6980    7.4250   12.4530 C.2   136  THR136      0.2287
    179  O         21.3810    8.1530   13.3940 O.2   136  THR136     -0.2866
    180  CB        20.3050    5.4160   12.9840 C.3   136  THR136      0.1770
    181  OG1       20.3110    3.9860   13.0850 O.3   136  THR136     -0.2211
    182  CG2       19.2930    5.8400   11.9290 C.3   136  THR136      0.0375
@<TRIPOS>BOND
     1    50    48    1
     2    80    78   ar
     3    80    81   ar
     4    78    76   ar
     5   182   180    1
     6    51    52    1
     7    49    48    1
     8    82    81    1
     9    81    79   ar
    10   178   177    1
    11   178   179    2
    12    48    47    1
    13    47    44    1
    14   177   180    1
    15   177   176    1
    16    76    75    1
    17    76    77   ar
    18    52    55    1
    19    52    53    1
    20    75    72    1
    21    55    56    1
    22    56    57    1
    23   180   181    1
    24    44    45    1
    25    44    43    1
    26    45    46    2
    27    79    77   ar
    28    72    71    1
    29    72    73    1
    30   174   172   ar
    31   174   175   ar
    32   172   170   ar
    33    53    54    2
    34    53    60   am
    35    58    57   ar
    36    57    59   ar
    37   175   173   ar
    38    60    61    1
    39    33    34    1
    40    33    30    1
    41    73    74    2
    42    73    83   am
    43   170   169    1
    44   170   171   ar
    45   166   167    1
    46   166   169    1
    47   166   165    1
    48   167   168    2
    49    34    35   ar
    50    34    36   ar
    51    35    37   ar
    52   173   171   ar
    53    83    84    1
    54    62    61    1
    55    62    63    2
    56    36    39   ar
    57    36    38   ar
    58    61    64    1
    59    30    31    1
    60    30    29    1
    61    37    38   ar
    62    39    41   ar
    63    20    17    1
    64    31    32    2
    65    38    40   ar
    66    12    11    2
    67    17    18    1
    68    17    16    1
    69    41    42   ar
    70    64    65    1
    71    18    19    2
    72    40    42   ar
    73    84    87    1
    74    84    85    1
    75     8     6    1
    76    11    16   am
    77    11    10    1
    78     6     5    1
    79    87    88    1
    80    65    67   ar
    81    65    66   ar
    82    85    86    2
    83    67    69   ar
    84    14    13    1
    85     9    10    1
    86     9     3   am
    87    10    13    1
    88     5     2    1
    89     5     7    1
    90    66    68   ar
    91    27    26    1
    92     2     3    1
    93     2     1    1
    94    13    15    1
    95    69    70   ar
    96    88    89   ar
    97    88    90   ar
    98     3     4    2
    99    89    91   ar
   100    25    26    1
   101    25    22    1
   102    90    92   ar
   103    68    70   ar
   104    23    24    2
   105    23    22    1
   106    26    28    1
   107    22    21    1
   108    91    93   ar
   109    92    93   ar
   110   164   163    1
   111   163   162   ar
   112   163   161   ar
   113   162   160   ar
   114   161   159   ar
   115   160   158   ar
   116   159   158   ar
   117   158   157    1
   118   151   150    1
   119   157   154    1
   120   147   150    1
   121   147   148    1
   122   147   146    1
   123   150   152    1
   124   149   148    2
   125   156   155    2
   126   154   155    1
   127   154   153    1
   128   137   135   am
   129   136   135    2
   130   135   134    1
   131   144   143    1
   132   145   143    1
   133   128   129    1
   134   128   127    1
   135   134   131    1
   136   142   143    1
   137   142   139    1
   138   129   123    1
   139   140   139    1
   140   140   141    2
   141   139   138    1
   142   112   111    2
   143   108   106    1
   144   114   113    1
   145   127   124    1
   146   121   119    1
   147   131   132    1
   148   131   130    1
   149   120   122    1
   150   120   119    1
   151   133   132    2
   152   107   106    1
   153   113   110    1
   154   123   124    1
   155   123   117   am
   156   116   119    1
   157   116   115    1
   158   116   117    1
   159   111   115   am
   160   111   110    1
   161   106   103    1
   162   124   125    1
   163   117   118    2
   164   110   109    1
   165   105   104    2
   166    98    95    1
   167    98    99    1
   168   103   104    1
   169   103   102    1
   170   101   100    1
   171   126   125    2
   172    95    94    1
   173    95    96    1
   174   100    99    1
   175    96    97    2
