@<TRIPOS>MOLECULE
tmp/4kbsB01.pdb
 227 218 0 0 0
SMALL
GASTEIGER

@<TRIPOS>ATOM
      1  N        -15.3180  -12.4740    7.7990 N.3    30  TRP30      -0.1241
      2  CA       -15.6410  -11.0680    7.5990 C.3    30  TRP30       0.1605
      3  C        -17.1270  -10.8970    7.3310 C.2    30  TRP30       0.2264
      4  O        -17.7340   -9.9240    7.7740 O.2    30  TRP30      -0.2867
      5  CB       -14.8160  -10.4710    6.4530 C.3    30  TRP30       0.0550
      6  CG       -13.8360   -9.4070    6.8890 C.ar   30  TRP30       0.0003
      7  CD1      -12.4750   -9.4280    6.7330 C.ar   30  TRP30       0.0946
      8  CD2      -14.1450   -8.1620    7.5290 C.ar   30  TRP30       0.0152
      9  NE1      -11.9200   -8.2730    7.2370 N.ar   30  TRP30      -0.2442
     10  CE2      -12.9240   -7.4800    7.7320 C.ar   30  TRP30       0.0810
     11  CE3      -15.3360   -7.5560    7.9500 C.ar   30  TRP30       0.0012
     12  CZ2      -12.8600   -6.2340    8.3500 C.ar   30  TRP30       0.0191
     13  CZ3      -15.2740   -6.3040    8.5530 C.ar   30  TRP30       0.0001
     14  CH2      -14.0420   -5.6590    8.7520 C.ar   30  TRP30       0.0015
     15  N        -21.9150   -5.7890   12.3890 N.3    37  LEU37      -0.1245
     16  CA       -21.8450   -4.3430   12.2150 C.3    37  LEU37       0.1561
     17  C        -23.1780   -3.7750   11.7430 C.2    37  LEU37       0.2260
     18  O        -23.6040   -2.7240   12.1970 O.2    37  LEU37      -0.2867
     19  CB       -20.7360   -3.9650   11.2300 C.3    37  LEU37       0.0270
     20  CG       -19.3070   -4.1660   11.7480 C.3    37  LEU37       0.0019
     21  CD1      -18.2920   -3.9530   10.6460 C.3    37  LEU37       0.0001
     22  CD2      -19.0090   -3.2570   12.9440 C.3    37  LEU37       0.0001
     23  N        -23.3440    2.2050   10.7940 N.3    44  PHE44      -0.1241
     24  CA       -22.4630    1.0530   10.6550 C.3    44  PHE44       0.1605
     25  C        -22.8180    0.2900    9.3900 C.2    44  PHE44       0.2264
     26  O        -21.9410   -0.2220    8.6920 O.2    44  PHE44      -0.2867
     27  CB       -22.5570    0.1440   11.8830 C.3    44  PHE44       0.0534
     28  CG       -21.8510    0.6900   13.0840 C.ar   44  PHE44      -0.0203
     29  CD1      -22.4960    1.5580   13.9480 C.ar   44  PHE44      -0.0042
     30  CD2      -20.5370    0.3490   13.3410 C.ar   44  PHE44      -0.0042
     31  CE1      -21.8470    2.0670   15.0490 C.ar   44  PHE44      -0.0003
     32  CE2      -19.8790    0.8540   14.4470 C.ar   44  PHE44      -0.0003
     33  CZ       -20.5370    1.7150   15.3030 C.ar   44  PHE44      -0.0000
     34  N        -23.8720    1.6790    6.8100 N.3    46  PHE46      -0.1227
     35  CA       -23.3910    2.4790    5.6990 C.3    46  PHE46       0.1736
     36  C        -21.9140    2.2320    5.4050 C.2    46  PHE46       0.2595
     37  O        -21.5450    1.9610    4.2720 O.2    46  PHE46      -0.2718
     38  CB       -23.6440    3.9650    5.9350 C.3    46  PHE46       0.0547
     39  CG       -23.2540    4.8200    4.7730 C.ar   46  PHE46      -0.0202
     40  CD1      -24.1170    4.9860    3.7030 C.ar   46  PHE46      -0.0042
     41  CD2      -22.0160    5.4380    4.7390 C.ar   46  PHE46      -0.0042
     42  CE1      -23.7560    5.7670    2.6240 C.ar   46  PHE46      -0.0003
     43  CE2      -21.6530    6.2240    3.6660 C.ar   46  PHE46      -0.0003
     44  CZ       -22.5230    6.3880    2.6090 C.ar   46  PHE46      -0.0000
     45  N        -21.0600    2.3190    6.4180 N.am   47  ILE47      -0.1966
     46  CA       -19.6370    2.1240    6.1550 C.3    47  ILE47       0.1727
     47  C        -19.3180    0.6810    5.7770 C.2    47  ILE47       0.2616
     48  O        -18.3700    0.4270    5.0390 O.2    47  ILE47      -0.2715
     49  CB       -18.7550    2.5910    7.3170 C.3    47  ILE47       0.0290
     50  CG1      -18.9360    1.6830    8.5370 C.3    47  ILE47       0.0022
     51  CG2      -19.0610    4.0570    7.6370 C.3    47  ILE47       0.0023
     52  CD1      -18.0290    2.0380    9.7190 C.3    47  ILE47       0.0001
     53  N        -20.1270   -0.2590    6.2540 N.am   48  SER48      -0.1950
     54  CA       -19.8600   -1.6710    5.9820 C.3    48  SER48       0.1924
     55  C        -20.0590   -2.0200    4.5100 C.2    48  SER48       0.2314
     56  O        -19.6810   -3.1070    4.0730 O.2    48  SER48      -0.2863
     57  CB       -20.7440   -2.5670    6.8530 C.3    48  SER48       0.2116
     58  OG       -22.0580   -2.6290    6.3260 O.3    48  SER48      -0.2180
     59  N        -18.5160   -0.7760    2.0670 N.3    50  ASP50      -0.1225
     60  CA       -17.1950   -0.8550    1.4520 C.3    50  ASP50       0.1805
     61  C        -16.5500   -2.2160    1.6890 C.2    50  ASP50       0.2597
     62  O        -15.8260   -2.7390    0.8370 O.2    50  ASP50      -0.2718
     63  CB       -16.2780    0.2240    2.0110 C.3    50  ASP50       0.1424
     64  CG       -14.9280    0.2200    1.3410 C.2    50  ASP50       0.3668
     65  OD1      -14.8710    0.5640    0.1430 O.co2  50  ASP50      -0.2456
     66  OD2      -13.9390   -0.1490    1.9980 O.co2  50  ASP50      -0.2456
     67  N        -16.7800   -2.7630    2.8750 N.am   51  VAL51      -0.1980
     68  CA       -16.2690   -4.0830    3.2020 C.3    51  VAL51       0.1595
     69  C        -16.9050   -5.0970    2.2690 C.2    51  VAL51       0.2287
     70  O        -16.2180   -5.9140    1.6480 O.2    51  VAL51      -0.2864
     71  CB       -16.6270   -4.4690    4.6360 C.3    51  VAL51       0.0276
     72  CG1      -16.1610   -5.8980    4.9340 C.3    51  VAL51       0.0022
     73  CG2      -16.0330   -3.4700    5.6210 C.3    51  VAL51       0.0022
     74  N        -15.4790   -4.9850   -1.1380 N.3    54  LYS54      -0.1245
     75  CA       -14.1210   -5.5100   -1.2080 C.3    54  LYS54       0.1561
     76  C        -14.1120   -7.0350   -1.1060 C.2    54  LYS54       0.2260
     77  O        -13.3180   -7.7030   -1.7740 O.2    54  LYS54      -0.2867
     78  CB       -13.2250   -4.8560   -0.1450 C.3    54  LYS54       0.0271
     79  CG       -12.8380   -3.4040   -0.4960 C.3    54  LYS54       0.0035
     80  CD       -12.0140   -2.7510    0.6150 C.3    54  LYS54       0.0206
     81  CE       -11.2520   -1.5230    0.1090 C.3    54  LYS54       0.1093
     82  NZ       -12.1240   -0.5270   -0.5780 N.3    54  LYS54      -0.1314
     83  N         -2.4750    5.0480   -7.6300 N.3    91  ARG91      -0.1245
     84  CA        -3.5480    4.2610   -8.2280 C.3    91  ARG91       0.1563
     85  C         -3.5380    4.3940   -9.7400 C.2    91  ARG91       0.2260
     86  O         -3.8440    5.4570  -10.2790 O.2    91  ARG91      -0.2867
     87  CB        -4.9130    4.6880   -7.6880 C.3    91  ARG91       0.0307
     88  CG        -5.2130    4.1960   -6.2870 C.3    91  ARG91       0.0489
     89  CD        -6.7000    4.2970   -6.0030 C.3    91  ARG91       0.2205
     90  NE        -7.3670    2.9950   -6.0390 N.pl3  91  ARG91      -0.0865
     91  CZ        -8.6870    2.8480   -6.0110 C.cat  91  ARG91       0.5346
     92  NH1       -9.2300    1.6370   -6.0360 N.pl3  91  ARG91       0.1354
     93  NH2       -9.4650    3.9220   -5.9550 N.pl3  91  ARG91       0.1354
     94  N         -3.9130   -4.5480   -2.2710 N.3   100  ARG100     -0.1245
     95  CA        -4.4030   -3.2890   -1.7230 C.3   100  ARG100      0.1563
     96  C         -5.8030   -3.4670   -1.1180 C.2   100  ARG100      0.2260
     97  O         -6.1270   -2.8630   -0.0970 O.2   100  ARG100     -0.2867
     98  CB        -4.3190   -2.1350   -2.7350 C.3   100  ARG100      0.0307
     99  CG        -5.3580   -2.1220   -3.8260 C.3   100  ARG100      0.0489
    100  CD        -6.6070   -1.3580   -3.4160 C.3   100  ARG100      0.2205
    101  NE        -6.4230    0.0840   -3.2480 N.pl3 100  ARG100     -0.0865
    102  CZ        -7.3890    0.8800   -2.7980 C.cat 100  ARG100      0.5346
    103  NH1       -7.1930    2.1830   -2.6460 N.pl3 100  ARG100      0.1354
    104  NH2       -8.5700    0.3560   -2.4880 N.pl3 100  ARG100      0.1354
    105  N         -6.8260   -2.9300    3.0390 N.3   104  ARG104     -0.1245
    106  CA        -7.9300   -2.1490    3.5940 C.3   104  ARG104      0.1563
    107  C         -8.8050   -3.0020    4.5200 C.2   104  ARG104      0.2260
    108  O         -9.1890   -2.5590    5.6000 O.2   104  ARG104     -0.2867
    109  CB        -8.7680   -1.5080    2.4810 C.3   104  ARG104      0.0307
    110  CG        -7.9980   -0.5010    1.6090 C.3   104  ARG104      0.0489
    111  CD        -7.3630    0.5890    2.4590 C.3   104  ARG104      0.2205
    112  NE        -6.9430    1.7620    1.6830 N.pl3 104  ARG104     -0.0865
    113  CZ        -5.8410    1.8180    0.9360 C.cat 104  ARG104      0.5346
    114  NH1       -5.0480    0.7580    0.8330 N.pl3 104  ARG104      0.1354
    115  NH2       -5.5370    2.9310    0.2800 N.pl3 104  ARG104      0.1354
    116  N         -9.2710   -2.3920    8.5720 N.3   108  ALA108     -0.1245
    117  CA       -10.6250   -2.2700    9.1090 C.3   108  ALA108      0.1562
    118  C        -10.8490   -3.3200   10.1870 C.2   108  ALA108      0.2260
    119  O        -11.5040   -3.0670   11.1960 O.2   108  ALA108     -0.2867
    120  CB       -11.6630   -2.4310    8.0010 C.3   108  ALA108      0.0290
    121  N         -9.2730   -2.0900   13.2560 N.3   111  TRP111     -0.1227
    122  CA       -10.1380   -1.1090   13.9000 C.3   111  TRP111      0.1737
    123  C        -11.1500   -1.8110   14.8070 C.2   111  TRP111      0.2595
    124  O        -11.2530   -1.5140   15.9960 O.2   111  TRP111     -0.2718
    125  CB       -10.8590   -0.2660   12.8430 C.3   111  TRP111      0.0564
    126  CG       -11.6360    0.8900   13.3990 C.ar  111  TRP111      0.0003
    127  CD1      -11.6760    1.3090   14.7000 C.ar  111  TRP111      0.0946
    128  CD2      -12.4760    1.7930   12.6610 C.ar  111  TRP111      0.0152
    129  NE1      -12.5010    2.4140   14.8180 N.ar  111  TRP111     -0.2442
    130  CE2      -13.0000    2.7300   13.5820 C.ar  111  TRP111      0.0810
    131  CE3      -12.8370    1.8990   11.3120 C.ar  111  TRP111      0.0012
    132  CZ2      -13.8650    3.7580   13.1940 C.ar  111  TRP111      0.0191
    133  CZ3      -13.7040    2.9160   10.9320 C.ar  111  TRP111      0.0001
    134  CH2      -14.2050    3.8320   11.8690 C.ar  111  TRP111      0.0015
    135  N        -11.9000   -2.7490   14.2440 N.am  112  LEU112     -0.1980
    136  CA       -12.9520   -3.4230   15.0040 C.3   112  LEU112      0.1596
    137  C        -12.3610   -4.2130   16.1740 C.2   112  LEU112      0.2287
    138  O        -12.8920   -4.1850   17.2800 O.2   112  LEU112     -0.2864
    139  CB       -13.7880   -4.3290   14.0890 C.3   112  LEU112      0.0297
    140  CG       -14.9700   -5.0430   14.7510 C.3   112  LEU112      0.0022
    141  CD1      -15.8470   -4.0690   15.5190 C.3   112  LEU112      0.0001
    142  CD2      -15.7850   -5.7850   13.7160 C.3   112  LEU112      0.0001
    143  N        -11.3320   -1.8390   18.9310 N.3   115  PHE115     -0.1241
    144  CA       -12.5510   -1.3850   19.5760 C.3   115  PHE115      0.1605
    145  C        -13.1260   -2.4630   20.4970 C.2   115  PHE115      0.2264
    146  O        -13.4480   -2.1920   21.6480 O.2   115  PHE115     -0.2867
    147  CB       -13.5920   -0.9510   18.5440 C.3   115  PHE115      0.0534
    148  CG       -14.8450   -0.3880   19.1560 C.ar  115  PHE115     -0.0203
    149  CD1      -14.8440    0.8740   19.7360 C.ar  115  PHE115     -0.0042
    150  CD2      -16.0270   -1.1110   19.1420 C.ar  115  PHE115     -0.0042
    151  CE1      -15.9930    1.3990   20.2970 C.ar  115  PHE115     -0.0003
    152  CE2      -17.1820   -0.5900   19.7050 C.ar  115  PHE115     -0.0003
    153  CZ       -17.1640    0.6630   20.2810 C.ar  115  PHE115     -0.0000
    154  N        -13.5760    4.4850   20.2950 N.3   132  CYS132     -0.1235
    155  CA       -13.7930    4.4550   18.8570 C.3   132  CYS132      0.1677
    156  C        -12.7160    5.2530   18.1250 C.2   132  CYS132      0.2270
    157  O        -12.1170    4.7640   17.1650 O.2   132  CYS132     -0.2867
    158  CB       -15.1790    5.0080   18.5350 C.3   132  CYS132      0.0956
    159  SG       -15.5210    5.2090   16.7880 S.3   132  CYS132     -0.0801
    160  N         -7.1050    2.5680   10.8520 N.3   140  LEU140     -0.1245
    161  CA        -7.5140    2.8950    9.4880 C.3   140  LEU140      0.1561
    162  C         -7.3590    4.3730    9.1370 C.2   140  LEU140      0.2260
    163  O         -7.3660    4.7440    7.9610 O.2   140  LEU140     -0.2867
    164  CB        -8.9740    2.4750    9.2910 C.3   140  LEU140      0.0270
    165  CG        -9.5800    2.4940    7.8850 C.3   140  LEU140      0.0019
    166  CD1       -8.8200    1.5820    6.9350 C.3   140  LEU140      0.0001
    167  CD2      -11.0560    2.0940    7.9470 C.3   140  LEU140      0.0001
    168  N         -5.3390    5.9520    6.1870 N.3   143  TYR143     -0.1227
    169  CA        -5.7230    5.7070    4.8050 C.3   143  TYR143      0.1736
    170  C         -6.7920    6.6820    4.3280 C.2   143  TYR143      0.2595
    171  O         -7.1700    6.6670    3.1660 O.2   143  TYR143     -0.2718
    172  CB        -6.1380    4.2340    4.6280 C.3   143  TYR143      0.0548
    173  CG        -5.0270    3.3210    5.1000 C.ar  143  TYR143     -0.0200
    174  CD1       -4.0060    2.9350    4.2360 C.ar  143  TYR143     -0.0009
    175  CD2       -4.9550    2.9090    6.4260 C.ar  143  TYR143     -0.0009
    176  CE1       -2.9650    2.1330    4.6680 C.ar  143  TYR143      0.0417
    177  CE2       -3.9160    2.1170    6.8700 C.ar  143  TYR143      0.0417
    178  CZ        -2.9260    1.7290    5.9850 C.ar  143  TYR143      0.1957
    179  OH        -1.8940    0.9320    6.4230 O.3   143  TYR143     -0.2866
    180  N         -7.2460    7.5530    5.2270 N.am  144  HIS144     -0.1975
    181  CA        -8.3050    8.5070    4.9130 C.3   144  HIS144      0.1656
    182  C         -7.8200    9.9560    4.9560 C.2   144  HIS144      0.2291
    183  O         -6.9390   10.2970    5.7420 O.2   144  HIS144     -0.2864
    184  CB        -9.4600    8.3390    5.8920 C.3   144  HIS144      0.0771
    185  CG       -10.1480    7.0140    5.7840 C.ar  144  HIS144      0.0820
    186  ND1      -11.0000    6.5390    6.7550 N.ar  144  HIS144     -0.2267
    187  CD2      -10.1190    6.0710    4.8130 C.ar  144  HIS144      0.1154
    188  CE1      -11.4650    5.3580    6.3900 C.ar  144  HIS144      0.1986
    189  NE2      -10.9470    5.0510    5.2150 N.ar  144  HIS144     -0.2212
    190  N        -10.3810   15.3750    5.9950 N.3   147  VAL147     -0.1231
    191  CA       -11.8020   15.7240    6.0630 C.3   147  VAL147      0.1692
    192  C        -12.6260   14.5300    6.5630 C.2   147  VAL147      0.2591
    193  O        -13.5340   14.6840    7.3850 O.2   147  VAL147     -0.2718
    194  CB       -12.3390   16.2830    4.7150 C.3   147  VAL147      0.0266
    195  CG1      -12.2250   15.2460    3.5990 C.3   147  VAL147      0.0020
    196  CG2      -13.7770   16.7740    4.8660 C.3   147  VAL147      0.0020
    197  N        -12.2880   13.3410    6.0760 N.am  148  VAL148     -0.1980
    198  CA       -12.9440   12.1150    6.5100 C.3   148  VAL148      0.1595
    199  C        -12.5900   11.7660    7.9540 C.2   148  VAL148      0.2287
    200  O        -13.4670   11.4430    8.7690 O.2   148  VAL148     -0.2864
    201  CB       -12.5710   10.9510    5.5880 C.3   148  VAL148      0.0276
    202  CG1      -13.0390    9.6320    6.1680 C.3   148  VAL148      0.0022
    203  CG2      -13.1640   11.1780    4.1880 C.3   148  VAL148      0.0022
    204  N        -14.5930   13.7320   10.2590 N.3   151  ALA151     -0.1245
    205  CA       -15.9700   13.2520   10.1950 C.3   151  ALA151      0.1562
    206  C        -16.1300   11.9950   11.0460 C.2   151  ALA151      0.2260
    207  O        -17.0980   11.8560   11.7910 O.2   151  ALA151     -0.2867
    208  CB       -16.3620   12.9750    8.7590 C.3   151  ALA151      0.0290
    209  N        -18.9610   10.1080   13.5650 N.3   156  PHE156     -0.1241
    210  CA       -19.2210    8.6740   13.6510 C.3   156  PHE156      0.1605
    211  C        -19.0180    8.1400   15.0670 C.2   156  PHE156      0.2264
    212  O        -19.8620    7.4150   15.5990 O.2   156  PHE156     -0.2867
    213  CB       -18.3320    7.9010   12.6800 C.3   156  PHE156      0.0534
    214  CG       -18.4920    6.4030   12.7740 C.ar  156  PHE156     -0.0203
    215  CD1      -19.5080    5.7550   12.0860 C.ar  156  PHE156     -0.0042
    216  CD2      -17.6290    5.6470   13.5490 C.ar  156  PHE156     -0.0042
    217  CE1      -19.6560    4.3780   12.1680 C.ar  156  PHE156     -0.0003
    218  CE2      -17.7710    4.2690   13.6340 C.ar  156  PHE156     -0.0003
    219  CZ       -18.7850    3.6360   12.9450 C.ar  156  PHE156     -0.0000
    220  N        -21.1680    7.4490   20.0390 N.3   159  LEU159     -0.1245
    221  CA       -21.7850    6.1220   20.0700 C.3   159  LEU159      0.1561
    222  C        -22.6060    5.8410   21.3290 C.2   159  LEU159      0.2260
    223  O        -22.4150    6.4920   22.3610 O.2   159  LEU159     -0.2867
    224  CB       -20.7050    5.0430   19.9290 C.3   159  LEU159      0.0270
    225  CG       -19.8580    5.0310   18.6580 C.3   159  LEU159      0.0019
    226  CD1      -18.7690    3.9670   18.7680 C.3   159  LEU159      0.0001
    227  CD2      -20.7350    4.7910   17.4430 C.3   159  LEU159      0.0001
@<TRIPOS>BOND
     1    86    85    2
     2    85    84    1
     3    84    87    1
     4    84    83    1
     5    87    88    1
     6    88    89    1
     7    90    91    2
     8    90    89    1
     9    92    91    1
    10    91    93    1
    11    99   100    1
    12    99    98    1
    13   100   101    1
    14   101   102    2
    15   102   103    1
    16   102   104    1
    17    98    95    1
    18    94    95    1
    19    77    76    2
    20    95    96    1
    21    75    74    1
    22    75    76    1
    23    75    78    1
    24    96    97    2
    25    82    81    1
    26    79    78    1
    27    79    80    1
    28    81    80    1
    29    65    64   ar
    30   115   113    1
    31   114   113    1
    32    62    61    2
    33   113   112    2
    34    64    66   ar
    35    64    63    1
    36    60    61    1
    37    60    63    1
    38    60    59    1
    39   110   111    1
    40   110   109    1
    41    70    69    2
    42   112   111    1
    43    61    67   am
    44    69    68    1
    45   109   106    1
    46    44    42   ar
    47    44    43   ar
    48    42    40   ar
    49    67    68    1
    50   105   106    1
    51   171   170    2
    52    68    71    1
    53   106   107    1
    54   195   194    1
    55    43    41   ar
    56    40    39   ar
    57    56    55    2
    58   203   201    1
    59   174   176   ar
    60   174   173   ar
    61    37    36    2
    62   170   169    1
    63   170   180   am
    64    55    54    1
    65   107   108    2
    66   172   169    1
    67   172   173    1
    68    71    72    1
    69    71    73    1
    70   176   178   ar
    71   194   196    1
    72   194   191    1
    73    41    39   ar
    74    39    38    1
    75   169   168    1
    76   187   189   ar
    77   187   185   ar
    78   181   182    1
    79   181   180    1
    80   181   184    1
    81   182   183    2
    82    48    47    2
    83   173   175   ar
    84   189   188   ar
    85    36    35    1
    86    36    45   am
    87   201   202    1
    88   201   198    1
    89    35    38    1
    90    35    34    1
    91    47    46    1
    92    47    53   am
    93   185   184    1
    94   185   186   ar
    95    54    53    1
    96    54    57    1
    97   178   179    1
    98   178   177   ar
    99   190   191    1
   100   191   192    1
   101   197   198    1
   102   197   192   am
   103    46    45    1
   104    46    49    1
   105    58    57    1
   106   188   186   ar
   107   175   177   ar
   108     5     6    1
   109     5     2    1
   110   198   199    1
   111   192   193    2
   112     7     6   ar
   113     7     9   ar
   114     6     8   ar
   115   166   165    1
   116     9    10   ar
   117    49    51    1
   118    49    50    1
   119     3     2    1
   120     3     4    2
   121     8    10   ar
   122     8    11   ar
   123     2     1    1
   124    10    12   ar
   125   165   167    1
   126   165   164    1
   127    11    13   ar
   128   199   200    2
   129   163   162    2
   130   120   117    1
   131    12    14   ar
   132    50    52    1
   133    13    14   ar
   134   116   117    1
   135    26    25    2
   136   208   205    1
   137   117   118    1
   138   162   161    1
   139   164   161    1
   140    25    24    1
   141   161   160    1
   142   118   119    2
   143   205   204    1
   144   205   206    1
   145    21    20    1
   146    24    23    1
   147    24    27    1
   148   133   131   ar
   149   133   134   ar
   150   206   207    2
   151    19    20    1
   152    19    16    1
   153   131   128   ar
   154    17    18    2
   155    17    16    1
   156    20    22    1
   157   134   132   ar
   158    27    28    1
   159   215   217   ar
   160   215   214   ar
   161   217   219   ar
   162    16    15    1
   163   128   126   ar
   164   128   130   ar
   165   213   214    1
   166   213   210    1
   167   214   216   ar
   168   125   126    1
   169   125   122    1
   170   219   218   ar
   171    28    30   ar
   172    28    29   ar
   173   132   130   ar
   174   121   122    1
   175    30    32   ar
   176   126   127   ar
   177   216   218   ar
   178   209   210    1
   179   130   129   ar
   180   210   211    1
   181   142   140    1
   182   122   123    1
   183    29    31   ar
   184   139   140    1
   185   139   136    1
   186   135   123   am
   187   135   136    1
   188    32    33   ar
   189   127   129   ar
   190   140   141    1
   191   123   124    2
   192   136   137    1
   193    31    33   ar
   194   211   212    2
   195   137   138    2
   196   159   158    1
   197   157   156    2
   198   227   225    1
   199   156   155    1
   200   158   155    1
   201   147   148    1
   202   147   144    1
   203   225   226    1
   204   225   224    1
   205   155   154    1
   206   143   144    1
   207   150   148   ar
   208   150   152   ar
   209   148   149   ar
   210   144   145    1
   211   152   153   ar
   212   149   151   ar
   213   224   221    1
   214   220   221    1
   215   221   222    1
   216   153   151   ar
   217   145   146    2
   218   222   223    2
