@<TRIPOS>MOLECULE
tmp/4kbsB00.pdb
 89 85 0 0 0
SMALL
GASTEIGER

@<TRIPOS>ATOM
      1  N        -25.6080    3.8690   10.4930 N.3    43  ILE43      -0.1245
      2  CA       -24.2780    4.3640   10.1440 C.3    43  ILE43       0.1561
      3  C        -23.2510    3.2370    9.9610 C.2    43  ILE43       0.2260
      4  O        -22.3890    3.3050    9.0800 O.2    43  ILE43      -0.2867
      5  CB       -23.7570    5.4000   11.1480 C.3    43  ILE43       0.0252
      6  CG1      -22.4290    5.9730   10.6560 C.3    43  ILE43       0.0019
      7  CG2      -23.6170    4.7890   12.5330 C.3    43  ILE43       0.0019
      8  CD1      -22.4740    6.4210    9.2120 C.3    43  ILE43       0.0001
      9  N        -23.8720    1.6790    6.8100 N.3    46  PHE46      -0.1227
     10  CA       -23.3910    2.4790    5.6990 C.3    46  PHE46       0.1736
     11  C        -21.9140    2.2320    5.4050 C.2    46  PHE46       0.2595
     12  O        -21.5450    1.9610    4.2720 O.2    46  PHE46      -0.2718
     13  CB       -23.6440    3.9650    5.9350 C.3    46  PHE46       0.0547
     14  CG       -23.2540    4.8200    4.7730 C.ar   46  PHE46      -0.0202
     15  CD1      -24.1170    4.9860    3.7030 C.ar   46  PHE46      -0.0042
     16  CD2      -22.0160    5.4380    4.7390 C.ar   46  PHE46      -0.0042
     17  CE1      -23.7560    5.7670    2.6240 C.ar   46  PHE46      -0.0003
     18  CE2      -21.6530    6.2240    3.6660 C.ar   46  PHE46      -0.0003
     19  CZ       -22.5230    6.3880    2.6090 C.ar   46  PHE46      -0.0000
     20  N        -21.0600    2.3190    6.4180 N.am   47  ILE47      -0.1980
     21  CA       -19.6370    2.1240    6.1550 C.3    47  ILE47       0.1595
     22  C        -19.3180    0.6810    5.7770 C.2    47  ILE47       0.2287
     23  O        -18.3700    0.4270    5.0390 O.2    47  ILE47      -0.2864
     24  CB       -18.7550    2.5910    7.3170 C.3    47  ILE47       0.0276
     25  CG1      -18.9360    1.6830    8.5370 C.3    47  ILE47       0.0022
     26  CG2      -19.0610    4.0570    7.6370 C.3    47  ILE47       0.0022
     27  CD1      -18.0290    2.0380    9.7190 C.3    47  ILE47       0.0001
     28  N        -20.6520   -1.1030    3.7460 N.3    49  LYS49      -0.1231
     29  CA       -20.8580   -1.3260    2.3120 C.3    49  LYS49       0.1693
     30  C        -19.5220   -1.5190    1.6160 C.2    49  LYS49       0.2592
     31  O        -19.4030   -2.3090    0.6770 O.2    49  LYS49      -0.2718
     32  CB       -21.5620   -0.1350    1.6590 C.3    49  LYS49       0.0285
     33  CG       -23.0670   -0.0670    1.8080 C.3    49  LYS49       0.0035
     34  CD       -23.5370    1.2760    1.2220 C.3    49  LYS49       0.0206
     35  CE       -25.0330    1.3700    1.0960 C.3    49  LYS49       0.1093
     36  NZ       -25.3930    2.6890    0.5130 N.3    49  LYS49      -0.1314
     37  N        -18.5160   -0.7760    2.0670 N.am   50  ASP50      -0.1974
     38  CA       -17.1950   -0.8550    1.4520 C.3    50  ASP50       0.1709
     39  C        -16.5500   -2.2160    1.6890 C.2    50  ASP50       0.2293
     40  O        -15.8260   -2.7390    0.8370 O.2    50  ASP50      -0.2864
     41  CB       -16.2780    0.2240    2.0110 C.3    50  ASP50       0.1436
     42  CG       -14.9280    0.2200    1.3410 C.2    50  ASP50       0.3671
     43  OD1      -14.8710    0.5640    0.1430 O.co2  50  ASP50      -0.2456
     44  OD2      -13.9390   -0.1490    1.9980 O.co2  50  ASP50      -0.2456
     45  N         -7.2460    7.5530    5.2270 N.3   144  HIS144     -0.1241
     46  CA        -8.3050    8.5070    4.9130 C.3   144  HIS144      0.1621
     47  C         -7.8200    9.9560    4.9560 C.2   144  HIS144      0.2264
     48  O         -6.9390   10.2970    5.7420 O.2   144  HIS144     -0.2867
     49  CB        -9.4600    8.3390    5.8920 C.3   144  HIS144      0.0745
     50  CG       -10.1480    7.0140    5.7840 C.ar  144  HIS144      0.0817
     51  ND1      -11.0000    6.5390    6.7550 N.ar  144  HIS144     -0.2268
     52  CD2      -10.1190    6.0710    4.8130 C.ar  144  HIS144      0.1154
     53  CE1      -11.4650    5.3580    6.3900 C.ar  144  HIS144      0.1986
     54  NE2      -10.9470    5.0510    5.2150 N.ar  144  HIS144     -0.2212
     55  N        -12.2880   13.3410    6.0760 N.3   148  VAL148     -0.1245
     56  CA       -12.9440   12.1150    6.5100 C.3   148  VAL148      0.1561
     57  C        -12.5900   11.7660    7.9540 C.2   148  VAL148      0.2260
     58  O        -13.4670   11.4430    8.7690 O.2   148  VAL148     -0.2867
     59  CB       -12.5710   10.9510    5.5880 C.3   148  VAL148      0.0252
     60  CG1      -13.0390    9.6320    6.1680 C.3   148  VAL148      0.0019
     61  CG2      -13.1640   11.1780    4.1880 C.3   148  VAL148      0.0019
     62  N        -14.5930   13.7320   10.2590 N.3   151  ALA151     -0.1231
     63  CA       -15.9700   13.2520   10.1950 C.3   151  ALA151      0.1694
     64  C        -16.1300   11.9950   11.0460 C.2   151  ALA151      0.2591
     65  O        -17.0980   11.8560   11.7910 O.2   151  ALA151     -0.2718
     66  CB       -16.3620   12.9750    8.7590 C.3   151  ALA151      0.0304
     67  N        -15.1680   11.0830   10.9370 N.am  152  VAL152     -0.1980
     68  CA       -15.2120    9.8340   11.6940 C.3   152  VAL152      0.1595
     69  C        -15.0630   10.0540   13.1930 C.2   152  VAL152      0.2287
     70  O        -15.8910    9.5800   13.9770 O.2   152  VAL152     -0.2864
     71  CB       -14.1190    8.8410   11.2400 C.3   152  VAL152      0.0276
     72  CG1      -14.0850    7.6190   12.1680 C.3   152  VAL152      0.0022
     73  CG2      -14.3330    8.4180    9.7940 C.3   152  VAL152      0.0022
     74  N        -17.9110   12.7720   14.4180 N.3   155  ALA155     -0.1231
     75  CA       -19.3070   12.4380   14.1770 C.3   155  ALA155      0.1694
     76  C        -19.6060   10.9520   14.3600 C.2   155  ALA155      0.2592
     77  O        -20.4120   10.5740   15.2090 O.2   155  ALA155     -0.2718
     78  CB       -19.7220   12.9040   12.7920 C.3   155  ALA155      0.0304
     79  N        -18.9610   10.1080   13.5650 N.am  156  PHE156     -0.1976
     80  CA       -19.2210    8.6740   13.6510 C.3   156  PHE156      0.1639
     81  C        -19.0180    8.1400   15.0670 C.2   156  PHE156      0.2290
     82  O        -19.8620    7.4150   15.5990 O.2   156  PHE156     -0.2864
     83  CB       -18.3320    7.9010   12.6800 C.3   156  PHE156      0.0560
     84  CG       -18.4920    6.4030   12.7740 C.ar  156  PHE156     -0.0200
     85  CD1      -19.5080    5.7550   12.0860 C.ar  156  PHE156     -0.0042
     86  CD2      -17.6290    5.6470   13.5490 C.ar  156  PHE156     -0.0042
     87  CE1      -19.6560    4.3780   12.1680 C.ar  156  PHE156     -0.0003
     88  CE2      -17.7710    4.2690   13.6340 C.ar  156  PHE156     -0.0003
     89  CZ       -18.7850    3.6360   12.9450 C.ar  156  PHE156     -0.0000
@<TRIPOS>BOND
     1    43    42   ar
     2    36    35    1
     3    31    30    2
     4    40    39    2
     5    35    34    1
     6    34    33    1
     7    42    44   ar
     8    42    41    1
     9    38    39    1
    10    38    41    1
    11    38    37    1
    12    30    37   am
    13    30    29    1
    14    32    33    1
    15    32    29    1
    16    29    28    1
    17    19    17   ar
    18    19    18   ar
    19    17    15   ar
    20    18    16   ar
    21    15    14   ar
    22    61    59    1
    23    12    11    2
    24    16    14   ar
    25    14    13    1
    26    52    54   ar
    27    52    50   ar
    28    46    47    1
    29    46    45    1
    30    46    49    1
    31    47    48    2
    32    23    22    2
    33    54    53   ar
    34    11    10    1
    35    11    20   am
    36    59    60    1
    37    59    56    1
    38    10    13    1
    39    10     9    1
    40    22    21    1
    41    50    49    1
    42    50    51   ar
    43    55    56    1
    44    21    20    1
    45    21    24    1
    46    53    51   ar
    47    56    57    1
    48    24    26    1
    49    24    25    1
    50    57    58    2
    51    25    27    1
    52    66    63    1
    53     4     3    2
    54     8     6    1
    55    73    71    1
    56     3     2    1
    57     2     1    1
    58     2     5    1
    59    63    62    1
    60    63    64    1
    61     6     5    1
    62    67    64   am
    63    67    68    1
    64    64    65    2
    65     5     7    1
    66    71    68    1
    67    71    72    1
    68    68    69    1
    69    85    87   ar
    70    85    84   ar
    71    87    89   ar
    72    83    84    1
    73    83    80    1
    74    84    86   ar
    75    78    75    1
    76    89    88   ar
    77    69    70    2
    78    86    88   ar
    79    79    80    1
    80    79    76   am
    81    80    81    1
    82    75    76    1
    83    75    74    1
    84    76    77    2
    85    81    82    2
