@<TRIPOS>MOLECULE
tmp/4kbzA00.pdb
 243 230 0 0 0
SMALL
GASTEIGER

@<TRIPOS>ATOM
      1  N        -18.8850   12.9840   -8.8270 N.3    57  VAL57      -0.1231
      2  CA       -19.4430   14.2940   -9.1360 C.3    57  VAL57       0.1692
      3  C        -18.8010   14.9520  -10.3560 C.2    57  VAL57       0.2592
      4  O        -19.5010   15.3740  -11.2790 O.2    57  VAL57      -0.2718
      5  CB       -19.3050   15.2500   -7.9290 C.3    57  VAL57       0.0266
      6  CG1      -20.2730   16.4130   -8.0740 C.3    57  VAL57       0.0020
      7  CG2      -19.5570   14.4950   -6.6320 C.3    57  VAL57       0.0020
      8  N        -17.4740   15.0340  -10.3600 N.am   58  SER58      -0.1952
      9  CA       -16.7430   15.6640  -11.4580 C.3    58  SER58       0.1924
     10  C        -16.6940   14.8410  -12.7450 C.2    58  SER58       0.2314
     11  O        -16.9580   15.3580  -13.8310 O.2    58  SER58      -0.2863
     12  CB       -15.3110   15.9850  -11.0170 C.3    58  SER58       0.2116
     13  OG       -15.2970   16.8710   -9.9120 O.3    58  SER58      -0.2180
     14  N        -10.1000   13.3010   -8.8130 N.3    68  ARG68      -0.1245
     15  CA       -10.0250   13.5120   -7.3770 C.3    68  ARG68       0.1563
     16  C        -10.3660   12.2490   -6.5930 C.2    68  ARG68       0.2260
     17  O        -11.0850   11.3760   -7.0840 O.2    68  ARG68      -0.2867
     18  CB       -10.9950   14.6290   -7.0000 C.3    68  ARG68       0.0307
     19  CG       -12.3790   14.4380   -7.6100 C.3    68  ARG68       0.0489
     20  CD       -13.2220   15.6910   -7.5100 C.3    68  ARG68       0.2205
     21  NE       -13.5420   16.0320   -6.1310 N.pl3  68  ARG68      -0.0865
     22  CZ       -14.3230   17.0490   -5.7810 C.cat  68  ARG68       0.5346
     23  NH1      -14.8590   17.8240   -6.7140 N.pl3  68  ARG68       0.1354
     24  NH2      -14.5730   17.2930   -4.5020 N.pl3  68  ARG68       0.1354
     25  N        -17.4560   14.1300   -0.4300 N.3    72  ILE72      -0.1245
     26  CA       -18.0800   15.4130   -0.1310 C.3    72  ILE72       0.1561
     27  C        -19.5750   15.4030    0.1560 C.2    72  ILE72       0.2260
     28  O        -20.2690   14.4020    0.0010 O.2    72  ILE72      -0.2867
     29  CB       -17.8720   16.4240   -1.2940 C.3    72  ILE72       0.0252
     30  CG1      -18.6630   15.9610   -2.5270 C.3    72  ILE72       0.0019
     31  CG2      -16.3880   16.5330   -1.6360 C.3    72  ILE72       0.0019
     32  CD1      -18.6790   16.9600   -3.6860 C.3    72  ILE72       0.0001
     33  N        -22.8070   18.7490    0.3460 N.3    74  TRP74      -0.1241
     34  CA       -23.1170   20.1710    0.2980 C.3    74  TRP74       0.1605
     35  C        -23.9360   20.5390    1.5220 C.2    74  TRP74       0.2264
     36  O        -24.9620   19.9160    1.7930 O.2    74  TRP74      -0.2867
     37  CB       -23.9180   20.5130   -0.9560 C.3    74  TRP74       0.0550
     38  CG       -23.1340   20.4050   -2.1970 C.ar   74  TRP74       0.0003
     39  CD1      -23.0350   19.3170   -3.0180 C.ar   74  TRP74       0.0946
     40  CD2      -22.3170   21.4250   -2.7750 C.ar   74  TRP74       0.0152
     41  NE1      -22.2060   19.6010   -4.0790 N.ar   74  TRP74      -0.2442
     42  CE2      -21.7510   20.8900   -3.9530 C.ar   74  TRP74       0.0810
     43  CE3      -22.0050   22.7440   -2.4120 C.ar   74  TRP74       0.0012
     44  CZ2      -20.8940   21.6280   -4.7720 C.ar   74  TRP74       0.0191
     45  CZ3      -21.1500   23.4790   -3.2270 C.ar   74  TRP74       0.0001
     46  CH2      -20.6050   22.9190   -4.3940 C.ar   74  TRP74       0.0015
     47  N        -19.2160   23.3020    0.3130 N.3   115  MET115     -0.1245
     48  CA       -18.8330   21.9510   -0.0870 C.3   115  MET115      0.1570
     49  C        -17.8420   21.4260    0.9460 C.2   115  MET115      0.2261
     50  O        -16.6730   21.8290    0.9720 O.2   115  MET115     -0.2867
     51  CB       -18.1770   21.9250   -1.4640 C.3   115  MET115      0.0387
     52  CG       -17.8830   20.4950   -1.9410 C.3   115  MET115      0.0595
     53  SD       -16.7570   20.3980   -3.3550 S.3   115  MET115     -0.1393
     54  CE       -15.1450   20.5120   -2.5070 C.3   115  MET115      0.0692
     55  N        -15.5180   18.6900    2.3060 N.3   117  ALA117     -0.1245
     56  CA       -14.7860   17.5760    1.7200 C.3   117  ALA117      0.1562
     57  C        -13.8760   16.8620    2.7060 C.2   117  ALA117      0.2260
     58  O        -13.4670   17.4180    3.7260 O.2   117  ALA117     -0.2867
     59  CB       -13.9580   18.0660    0.5280 C.3   117  ALA117      0.0290
     60  N        -10.4220   14.2190    2.5550 N.3   119  TYR119     -0.1241
     61  CA        -9.3980   13.5170    1.7940 C.3   119  TYR119      0.1605
     62  C         -8.8520   12.4610    2.7470 C.2   119  TYR119      0.2264
     63  O         -8.0710   12.7690    3.6400 O.2   119  TYR119     -0.2867
     64  CB        -8.2840   14.4690    1.3770 C.3   119  TYR119      0.0534
     65  CG        -8.7090   15.4750    0.3450 C.ar  119  TYR119     -0.0201
     66  CD1       -9.5150   16.5570    0.6890 C.ar  119  TYR119     -0.0009
     67  CD2       -8.3170   15.3380   -0.9850 C.ar  119  TYR119     -0.0009
     68  CE1       -9.9180   17.4760   -0.2660 C.ar  119  TYR119      0.0417
     69  CE2       -8.7140   16.2520   -1.9490 C.ar  119  TYR119      0.0417
     70  CZ        -9.5120   17.3180   -1.5860 C.ar  119  TYR119      0.1957
     71  OH        -9.8940   18.2230   -2.5510 O.3   119  TYR119     -0.2866
     72  N         -6.1190   15.9010   -5.3610 N.3   126  TYR126     -0.1241
     73  CA        -6.8140   16.4560   -6.5150 C.3   126  TYR126      0.1605
     74  C         -5.7790   16.9020   -7.5430 C.2   126  TYR126      0.2264
     75  O         -4.8480   17.6320   -7.2150 O.2   126  TYR126     -0.2867
     76  CB        -7.6840   17.6380   -6.0620 C.3   126  TYR126      0.0534
     77  CG        -8.8900   17.9220   -6.9340 C.ar  126  TYR126     -0.0201
     78  CD1      -10.0610   18.4440   -6.3790 C.ar  126  TYR126     -0.0009
     79  CD2       -8.8650   17.6820   -8.3100 C.ar  126  TYR126     -0.0009
     80  CE1      -11.1780   18.7210   -7.1700 C.ar  126  TYR126      0.0417
     81  CE2       -9.9770   17.9570   -9.1090 C.ar  126  TYR126      0.0417
     82  CZ       -11.1290   18.4760   -8.5310 C.ar  126  TYR126      0.1957
     83  OH       -12.2310   18.7490   -9.3100 O.3   126  TYR126     -0.2866
     84  N         -5.6550   21.7980  -11.6650 N.3   129  HIS129     -0.1226
     85  CA        -6.8200   22.3180  -12.3720 C.3   129  HIS129      0.1752
     86  C         -7.1320   23.7820  -12.0650 C.2   129  HIS129      0.2596
     87  O         -6.5450   24.4000  -11.1710 O.2   129  HIS129     -0.2718
     88  CB        -8.0480   21.5100  -11.9740 C.3   129  HIS129      0.0759
     89  CG        -8.3800   21.6380  -10.5190 C.ar  129  HIS129      0.0818
     90  ND1       -7.6570   20.9970   -9.5370 N.ar  129  HIS129     -0.2268
     91  CD2       -9.2910   22.4030   -9.8770 C.ar  129  HIS129      0.1154
     92  CE1       -8.1080   21.3640   -8.3510 C.ar  129  HIS129      0.1986
     93  NE2       -9.0990   22.2160   -8.5270 N.ar  129  HIS129     -0.2212
     94  N         -8.0990   24.3010  -12.8140 N.am  130  VAL130     -0.1966
     95  CA        -8.6100   25.6590  -12.6650 C.3   130  VAL130      0.1727
     96  C        -10.0750   25.4450  -12.2740 C.2   130  VAL130      0.2616
     97  O        -10.7950   24.7100  -12.9580 O.2   130  VAL130     -0.2715
     98  CB        -8.5430   26.4320  -14.0020 C.3   130  VAL130      0.0290
     99  CG1       -9.2190   27.7800  -13.8580 C.3   130  VAL130      0.0023
    100  CG2       -7.0830   26.6090  -14.4320 C.3   130  VAL130      0.0023
    101  N        -10.5110   26.0550  -11.1700 N.am  131  ASP131     -0.1971
    102  CA       -11.8910   25.8890  -10.7070 C.3   131  ASP131      0.1709
    103  C        -12.9390   26.3360  -11.7200 C.2   131  ASP131      0.2293
    104  O        -13.9040   25.6170  -11.9800 O.2   131  ASP131     -0.2864
    105  CB       -12.1280   26.6530   -9.3940 C.3   131  ASP131      0.1436
    106  CG       -11.4660   25.9900   -8.1920 C.2   131  ASP131      0.3671
    107  OD1      -10.7980   24.9510   -8.3570 O.co2 131  ASP131     -0.2456
    108  OD2      -11.6200   26.5190   -7.0710 O.co2 131  ASP131     -0.2456
    109  N        -12.7860   27.5730  -15.4470 N.3   133  PRO133     -0.2116
    110  CA       -12.1150   27.8360  -16.7200 C.3   133  PRO133      0.1372
    111  C        -13.0060   28.3870  -17.8270 C.2   133  PRO133      0.2244
    112  O        -12.5250   29.0710  -18.7320 O.2   133  PRO133     -0.2868
    113  CB       -11.5470   26.4710  -17.0880 C.3   133  PRO133      0.0268
    114  CG       -12.6110   25.5570  -16.6060 C.3   133  PRO133      0.0207
    115  CD       -12.9450   26.1220  -15.2370 C.3   133  PRO133      0.0892
    116  N        -18.0010   30.1890  -15.6210 N.3   136  ASP136     -0.1239
    117  CA       -19.2290   29.6600  -15.0500 C.3   136  ASP136      0.1674
    118  C        -19.8500   30.5730  -13.9970 C.2   136  ASP136      0.2266
    119  O        -20.8510   30.2110  -13.3680 O.2   136  ASP136     -0.2867
    120  CB       -18.9980   28.2560  -14.4710 C.3   136  ASP136      0.1410
    121  CG       -18.0130   28.2330  -13.3110 C.2   136  ASP136      0.3668
    122  OD1      -17.4120   27.1630  -13.0990 O.co2 136  ASP136     -0.2456
    123  OD2      -17.8460   29.2510  -12.6050 O.co2 136  ASP136     -0.2456
    124  N        -18.2900   31.8320  -11.1330 N.3   138  ARG138     -0.1245
    125  CA       -17.5750   31.8890   -9.8570 C.3   138  ARG138      0.1563
    126  C        -16.2940   32.7010   -9.9730 C.2   138  ARG138      0.2260
    127  O        -15.4150   32.3760  -10.7750 O.2   138  ARG138     -0.2867
    128  CB       -17.2900   30.4700   -9.3790 C.3   138  ARG138      0.0307
    129  CG       -18.5720   29.6760   -9.1220 C.3   138  ARG138      0.0489
    130  CD       -18.2600   28.2360   -8.7590 C.3   138  ARG138      0.2205
    131  NE       -17.6900   27.5120   -9.8900 N.pl3 138  ARG138     -0.0865
    132  CZ       -16.9620   26.4070   -9.7830 C.cat 138  ARG138      0.5346
    133  NH1      -16.7020   25.8850   -8.5910 N.pl3 138  ARG138      0.1354
    134  NH2      -16.4810   25.8290  -10.8700 N.pl3 138  ARG138      0.1354
    135  N        -12.6930   31.7890   -4.8770 N.3   141  THR141     -0.1218
    136  CA       -12.7710   30.5190   -4.1870 C.3   141  THR141      0.1862
    137  C        -12.3580   30.7930   -2.7520 C.2   141  THR141      0.2287
    138  O        -11.3680   31.4830   -2.5020 O.2   141  THR141     -0.2866
    139  CB       -11.8300   29.4890   -4.8120 C.3   141  THR141      0.1770
    140  OG1      -12.2110   29.2850   -6.1800 O.3   141  THR141     -0.2211
    141  CG2      -11.9050   28.1540   -4.0590 C.3   141  THR141      0.0375
    142  N        -11.6590   28.7950    0.9150 N.3   143  ILE143     -0.1245
    143  CA       -11.4910   27.4910    1.5550 C.3   143  ILE143      0.1561
    144  C        -11.1230   27.6230    3.0240 C.2   143  ILE143      0.2260
    145  O        -10.2250   28.3830    3.3810 O.2   143  ILE143     -0.2867
    146  CB       -10.3720   26.6590    0.8700 C.3   143  ILE143      0.0252
    147  CG1      -10.7000   26.4570   -0.6140 C.3   143  ILE143      0.0019
    148  CG2      -10.2090   25.3210    1.5810 C.3   143  ILE143      0.0019
    149  CD1       -9.7230   25.5560   -1.3600 C.3   143  ILE143      0.0001
    150  N         -9.8200   25.5130    6.3660 N.3   145  TYR145     -0.1241
    151  CA        -9.1630   24.2860    6.8170 C.3   145  TYR145      0.1605
    152  C         -9.4370   23.9630    8.2800 C.2   145  TYR145      0.2264
    153  O         -9.5480   24.8600    9.1170 O.2   145  TYR145     -0.2867
    154  CB        -7.6560   24.3880    6.5790 C.3   145  TYR145      0.0534
    155  CG        -7.2890   24.4870    5.1170 C.ar  145  TYR145     -0.0201
    156  CD1       -7.3480   23.3680    4.2860 C.ar  145  TYR145     -0.0009
    157  CD2       -6.8930   25.7040    4.5610 C.ar  145  TYR145     -0.0009
    158  CE1       -7.0140   23.4570    2.9220 C.ar  145  TYR145      0.0417
    159  CE2       -6.5600   25.8100    3.2080 C.ar  145  TYR145      0.0417
    160  CZ        -6.6220   24.6840    2.3960 C.ar  145  TYR145      0.1957
    161  OH        -6.3110   24.7940    1.0600 O.3   145  TYR145     -0.2866
    162  N         -1.5330   22.6230   -0.6260 N.3   159  LEU159     -0.1245
    163  CA        -2.2310   23.1700   -1.7740 C.3   159  LEU159      0.1561
    164  C         -1.1870   24.0590   -2.4400 C.2   159  LEU159      0.2260
    165  O         -0.7310   25.0460   -1.8550 O.2   159  LEU159     -0.2867
    166  CB        -3.4400   24.0100   -1.3570 C.3   159  LEU159      0.0270
    167  CG        -4.0620   24.7580   -2.5450 C.3   159  LEU159      0.0019
    168  CD1       -4.5960   23.7570   -3.5590 C.3   159  LEU159      0.0001
    169  CD2       -5.1640   25.6800   -2.0640 C.3   159  LEU159      0.0001
    170  N         -8.8110   33.0090   -3.2630 N.3   182  PHE182     -0.1241
    171  CA        -8.0600   33.1080   -4.5100 C.3   182  PHE182      0.1605
    172  C         -9.0030   33.1760   -5.7090 C.2   182  PHE182      0.2264
    173  O        -10.0950   32.5880   -5.6840 O.2   182  PHE182     -0.2867
    174  CB        -7.0090   31.9770   -4.6370 C.3   182  PHE182      0.0534
    175  CG        -7.5720   30.5780   -4.7490 C.ar  182  PHE182     -0.0203
    176  CD1       -8.0290   30.0850   -5.9770 C.ar  182  PHE182     -0.0042
    177  CD2       -7.5630   29.7230   -3.6500 C.ar  182  PHE182     -0.0042
    178  CE1       -8.4570   28.7480   -6.1060 C.ar  182  PHE182     -0.0003
    179  CE2       -7.9860   28.3930   -3.7650 C.ar  182  PHE182     -0.0003
    180  CZ        -8.4350   27.9030   -4.9930 C.ar  182  PHE182     -0.0000
    181  N         -4.1910   25.2140   -9.8620 N.3   190  HIS190     -0.1241
    182  CA        -3.7010   24.7000   -8.5920 C.3   190  HIS190      0.1621
    183  C         -3.8520   23.1880   -8.4890 C.2   190  HIS190      0.2264
    184  O         -4.5900   22.5720   -9.2580 O.2   190  HIS190     -0.2867
    185  CB        -4.4210   25.3850   -7.4150 C.3   190  HIS190      0.0745
    186  CG        -5.9130   25.2380   -7.4390 C.ar  190  HIS190      0.0817
    187  ND1       -6.7230   25.9560   -8.2970 N.ar  190  HIS190     -0.2268
    188  CD2       -6.7390   24.4310   -6.7320 C.ar  190  HIS190      0.1154
    189  CE1       -7.9810   25.5930   -8.1170 C.ar  190  HIS190      0.1986
    190  NE2       -8.0190   24.6680   -7.1740 N.ar  190  HIS190     -0.2212
    191  N         -3.7410   19.7500   -5.3950 N.3   192  VAL192     -0.1245
    192  CA        -3.6630   19.3090   -4.0040 C.3   192  VAL192      0.1561
    193  C         -2.6760   18.1490   -3.9360 C.2   192  VAL192      0.2260
    194  O         -2.9790   17.0470   -4.3820 O.2   192  VAL192     -0.2867
    195  CB        -5.0190   18.8020   -3.4890 C.3   192  VAL192      0.0252
    196  CG1       -4.9050   18.4020   -2.0150 C.3   192  VAL192      0.0019
    197  CG2       -6.0750   19.8660   -3.6640 C.3   192  VAL192      0.0019
    198  N         -7.7810   14.4290    5.7150 N.3   199  ARG199     -0.1245
    199  CA        -7.7770   15.8720    5.5170 C.3   199  ARG199      0.1563
    200  C         -9.1890   16.4040    5.2870 C.2   199  ARG199      0.2260
    201  O         -9.8960   15.9250    4.3990 O.2   199  ARG199     -0.2867
    202  CB        -6.8800   16.1540    4.3060 C.3   199  ARG199      0.0307
    203  CG        -6.6600   17.5850    3.8890 C.3   199  ARG199      0.0489
    204  CD        -5.6770   17.5650    2.7110 C.3   199  ARG199      0.2205
    205  NE        -5.3790   18.8780    2.1490 N.pl3 199  ARG199     -0.0865
    206  CZ        -6.2550   19.6460    1.5090 C.cat 199  ARG199      0.5346
    207  NH1       -7.5070   19.2420    1.3430 N.pl3 199  ARG199      0.1354
    208  NH2       -5.8710   20.8190    1.0240 N.pl3 199  ARG199      0.1354
    209  N        -11.7050   19.8940    4.6900 N.3   201  ALA201     -0.1245
    210  CA       -11.7500   21.2880    4.2680 C.3   201  ALA201      0.1562
    211  C        -13.1650   21.6290    3.8160 C.2   201  ALA201      0.2260
    212  O        -13.9430   20.7400    3.4850 O.2   201  ALA201     -0.2867
    213  CB       -10.7560   21.5260    3.1310 C.3   201  ALA201      0.0290
    214  N        -15.1980   24.3590    1.2110 N.3   203  THR203     -0.1218
    215  CA       -15.0820   25.3270    0.1310 C.3   203  THR203      0.1862
    216  C        -16.3820   26.0360   -0.2300 C.2   203  THR203      0.2287
    217  O        -17.4340   25.4070   -0.3440 O.2   203  THR203     -0.2866
    218  CB       -14.5820   24.6350   -1.1550 C.3   203  THR203      0.1770
    219  OG1      -13.3330   23.9920   -0.8910 O.3   203  THR203     -0.2211
    220  CG2      -14.4150   25.6430   -2.2900 C.3   203  THR203      0.0375
    221  N        -17.7860   29.0950   -3.0540 N.3   205  TRP205     -0.1241
    222  CA       -17.4300   29.8670   -4.2480 C.3   205  TRP205      0.1605
    223  C        -18.3780   31.0440   -4.3720 C.2   205  TRP205      0.2264
    224  O        -19.6010   30.8730   -4.2860 O.2   205  TRP205     -0.2867
    225  CB       -17.5510   29.0200   -5.5110 C.3   205  TRP205      0.0550
    226  CG       -16.4600   28.0440   -5.6990 C.ar  205  TRP205      0.0003
    227  CD1      -15.2350   28.2760   -6.2640 C.ar  205  TRP205      0.0946
    228  CD2      -16.4980   26.6550   -5.3650 C.ar  205  TRP205      0.0152
    229  NE1      -14.5120   27.1090   -6.3090 N.ar  205  TRP205     -0.2442
    230  CE2      -15.2620   26.0970   -5.7620 C.ar  205  TRP205      0.0810
    231  CE3      -17.4580   25.8220   -4.7670 C.ar  205  TRP205      0.0012
    232  CZ2      -14.9590   24.7390   -5.5880 C.ar  205  TRP205      0.0191
    233  CZ3      -17.1580   24.4670   -4.5930 C.ar  205  TRP205      0.0001
    234  CH2      -15.9190   23.9420   -5.0040 C.ar  205  TRP205      0.0015
    235  N        -23.0170   23.3930   -7.7960 N.3   221  LYS221     -0.1245
    236  CA       -21.9780   24.3040   -8.2630 C.3   221  LYS221      0.1561
    237  C        -22.5520   25.5190   -9.0020 C.2   221  LYS221      0.2260
    238  O        -21.9640   26.6030   -8.9750 O.2   221  LYS221     -0.2867
    239  CB       -21.0100   23.5470   -9.1760 C.3   221  LYS221      0.0271
    240  CG       -19.8830   24.3900   -9.7270 C.3   221  LYS221      0.0035
    241  CD       -19.0430   23.5970  -10.7260 C.3   221  LYS221      0.0206
    242  CE       -19.8860   23.0970  -11.8940 C.3   221  LYS221      0.1093
    243  NZ       -19.0550   22.4840  -12.9650 N.3   221  LYS221     -0.1314
@<TRIPOS>BOND
     1   112   111    2
     2   111   110    1
     3   113   110    1
     4   113   114    1
     5   110   109    1
     6   114   115    1
     7   116   117    1
     8   109   115    1
     9   117   120    1
    10   117   118    1
    11   120   121    1
    12   100    98    1
    13    98    99    1
    14    98    95    1
    15   118   119    2
    16    11    10    2
    17   121   122   ar
    18   121   123   ar
    19   243   242    1
    20    97    96    2
    21    94    95    1
    22    94    86   am
    23    10     9    1
    24    95    96    1
    25    85    86    1
    26    85    88    1
    27    85    84    1
    28    96   101   am
    29    86    87    2
    30   104   103    2
    31    88    89    1
    32   242   241    1
    33   103   102    1
    34     9    12    1
    35     9     8    1
    36     4     3    2
    37   101   102    1
    38   124   125    1
    39    12    13    1
    40   134   132    1
    41   127   126    2
    42   241   240    1
    43   102   105    1
    44    89    91   ar
    45    89    90   ar
    46     8     3   am
    47     3     2    1
    48   126   125    1
    49   131   132    2
    50   131   130    1
    51    91    93   ar
    52   181   182    1
    53   125   128    1
    54   132   133    1
    55   240   239    1
    56    90    92   ar
    57   105   106    1
    58   128   129    1
    59    83    82    1
    60   184   183    2
    61   239   236    1
    62     2     1    1
    63     2     5    1
    64   129   130    1
    65    81    82   ar
    66    81    79   ar
    67   237   238    2
    68   237   236    1
    69    14    15    1
    70   182   183    1
    71   182   185    1
    72    82    80   ar
    73    93    92   ar
    74   107   106   ar
    75    79    77   ar
    76   187   189   ar
    77   187   186   ar
    78   236   235    1
    79   106   108   ar
    80   189   190   ar
    81     6     5    1
    82     5     7    1
    83    19    20    1
    84    19    18    1
    85    74    75    2
    86    74    73    1
    87    20    21    1
    88   186   185    1
    89   186   188   ar
    90    15    18    1
    91    15    16    1
    92   190   188   ar
    93    80    78   ar
    94    17    16    2
    95    77    78   ar
    96    77    76    1
    97    23    22    1
    98    73    76    1
    99    73    72    1
   100   229   227   ar
   101   229   230   ar
   102   227   226   ar
   103   140   139    1
   104    21    22    2
   105   178   176   ar
   106   178   180   ar
   107   176   175   ar
   108    22    24    1
   109   230   232   ar
   110   230   228   ar
   111   172   173    2
   112   172   171    1
   113   226   225    1
   114   226   228   ar
   115   232   234   ar
   116   225   222    1
   117   191   192    1
   118   228   231   ar
   119   234   233   ar
   120   180   179   ar
   121   135   136    1
   122   139   136    1
   123   139   141    1
   124    44    46   ar
   125    44    42   ar
   126   231   233   ar
   127   175   174    1
   128   175   177   ar
   129   174   171    1
   130   171   170    1
   131    46    45   ar
   132   194   193    2
   133   223   224    2
   134   223   222    1
   135   222   221    1
   136   136   137    1
   137    41    42   ar
   138    41    39   ar
   139   192   193    1
   140   192   195    1
   141    42    40   ar
   142   179   177   ar
   143    32    30    1
   144   197   195    1
   145   168   167    1
   146   195   196    1
   147    53    54    1
   148    53    52    1
   149    45    43   ar
   150    39    38   ar
   151    40    43   ar
   152    40    38   ar
   153   137   138    2
   154    71    70    1
   155   167   169    1
   156   167   166    1
   157    30    29    1
   158   164   165    2
   159   164   163    1
   160   220   218    1
   161    38    37    1
   162    69    70   ar
   163    69    67   ar
   164    52    51    1
   165   163   166    1
   166   163   162    1
   167    31    29    1
   168    70    68   ar
   169    51    48    1
   170   149   147    1
   171    29    26    1
   172   218   219    1
   173   218   215    1
   174    67    65   ar
   175    37    34    1
   176   147   146    1
   177    25    26    1
   178   217   216    2
   179    68    66   ar
   180   216   215    1
   181    26    27    1
   182    48    47    1
   183    48    49    1
   184    28    27    2
   185   215   214    1
   186    34    33    1
   187    34    35    1
   188    65    66   ar
   189    65    64    1
   190    59    56    1
   191   146   143    1
   192   146   148    1
   193   142   143    1
   194    49    50    2
   195   208   206    1
   196   161   160    1
   197   207   206    1
   198    64    61    1
   199   206   205    2
   200    35    36    2
   201   143   144    1
   202    56    55    1
   203    56    57    1
   204    61    60    1
   205    61    62    1
   206   205   204    1
   207   160   158   ar
   208   160   159   ar
   209    57    58    2
   210   204   203    1
   211    62    63    2
   212   158   156   ar
   213   144   145    2
   214   213   210    1
   215   159   157   ar
   216   212   211    2
   217   211   210    1
   218   203   202    1
   219   210   209    1
   220   156   155   ar
   221   202   199    1
   222   201   200    2
   223   157   155   ar
   224   155   154    1
   225   200   199    1
   226   199   198    1
   227   150   151    1
   228   154   151    1
   229   151   152    1
   230   152   153    2
