@<TRIPOS>MOLECULE
tmp/4kc4A01.pdb
 110 106 0 0 0
SMALL
GASTEIGER

@<TRIPOS>ATOM
      1  N         17.5380   26.2600    1.5760 N.3    64  PHE64      -0.1241
      2  CA        17.7460   26.8690    2.8900 C.3    64  PHE64       0.1605
      3  C         18.8070   26.0860    3.6440 C.2    64  PHE64       0.2264
      4  O         18.7370   24.8520    3.7480 O.2    64  PHE64      -0.2867
      5  CB        16.4350   26.9320    3.6810 C.3    64  PHE64       0.0534
      6  CG        15.4740   27.9660    3.1680 C.ar   64  PHE64      -0.0203
      7  CD1       14.8210   27.7880    1.9500 C.ar   64  PHE64      -0.0042
      8  CD2       15.2340   29.1330    3.8900 C.ar   64  PHE64      -0.0042
      9  CE1       13.9370   28.7430    1.4710 C.ar   64  PHE64      -0.0003
     10  CE2       14.3600   30.0940    3.4050 C.ar   64  PHE64      -0.0003
     11  CZ        13.7120   29.8990    2.1970 C.ar   64  PHE64      -0.0000
     12  N         20.2840   26.6360    7.1610 N.3    66  ILE66      -0.1231
     13  CA        20.2300   27.3570    8.4250 C.3    66  ILE66       0.1692
     14  C         20.9150   26.5110    9.4910 C.2    66  ILE66       0.2591
     15  O         20.7590   25.2890    9.5220 O.2    66  ILE66      -0.2718
     16  CB        18.7600   27.6660    8.8280 C.3    66  ILE66       0.0266
     17  CG1       18.0240   28.4340    7.7160 C.3    66  ILE66       0.0019
     18  CG2       18.6690   28.4070   10.1610 C.3    66  ILE66       0.0020
     19  CD1       18.6360   29.7610    7.3200 C.3    66  ILE66       0.0001
     20  N         21.6870   27.1730   10.3490 N.am   67  LYS67      -0.1980
     21  CA        22.4020   26.5140   11.4430 C.3    67  LYS67       0.1596
     22  C         23.2980   25.3930   10.8900 C.2    67  LYS67       0.2287
     23  O         24.0840   25.6340    9.9710 O.2    67  LYS67      -0.2864
     24  CB        21.4370   26.0520   12.5480 C.3    67  LYS67       0.0298
     25  CG        20.6950   27.2100   13.2090 C.3    67  LYS67       0.0038
     26  CD        19.8500   26.7800   14.4030 C.3    67  LYS67       0.0206
     27  CE        18.4860   26.2690   13.9730 C.3    67  LYS67       0.1093
     28  NZ        17.6260   25.9330   15.1440 N.3    67  LYS67      -0.1314
     29  N         22.8330   22.9730    8.9440 N.3    69  TYR69      -0.1241
     30  CA        22.5470   22.4900    7.5920 C.3    69  TYR69       0.1605
     31  C         23.4390   23.0930    6.5010 C.2    69  TYR69       0.2264
     32  O         23.3780   22.6690    5.3420 O.2    69  TYR69      -0.2867
     33  CB        21.0550   22.6330    7.2560 C.3    69  TYR69       0.0534
     34  CG        20.1990   21.5420    7.8680 C.ar   69  TYR69      -0.0201
     35  CD1       19.9970   21.4750    9.2530 C.ar   69  TYR69      -0.0009
     36  CD2       19.6020   20.5710    7.0720 C.ar   69  TYR69      -0.0009
     37  CE1       19.2240   20.4720    9.8210 C.ar   69  TYR69       0.0417
     38  CE2       18.8210   19.5650    7.6310 C.ar   69  TYR69       0.0417
     39  CZ        18.6350   19.5190    9.0040 C.ar   69  TYR69       0.1957
     40  OH        17.8610   18.5190    9.5650 O.3    69  TYR69      -0.2866
     41  N         13.2810   23.7370   14.6940 N.3   124  TRP124     -0.1241
     42  CA        13.4410   23.2220   13.3290 C.3   124  TRP124      0.1605
     43  C         12.1300   23.2770   12.5370 C.2   124  TRP124      0.2264
     44  O         12.1450   23.4300   11.3140 O.2   124  TRP124     -0.2867
     45  CB        14.0560   21.8130   13.3070 C.3   124  TRP124      0.0550
     46  CG        13.2280   20.7350   13.9600 C.ar  124  TRP124      0.0003
     47  CD1       13.3030   20.3180   15.2580 C.ar  124  TRP124      0.0946
     48  CD2       12.2210   19.9240   13.3340 C.ar  124  TRP124      0.0152
     49  NE1       12.3980   19.3040   15.4840 N.ar  124  TRP124     -0.2442
     50  CE2       11.7240   19.0410   14.3200 C.ar  124  TRP124      0.0810
     51  CE3       11.6900   19.8600   12.0370 C.ar  124  TRP124      0.0012
     52  CZ2       10.7170   18.1080   14.0530 C.ar  124  TRP124      0.0191
     53  CZ3       10.6880   18.9290   11.7710 C.ar  124  TRP124      0.0001
     54  CH2       10.2140   18.0650   12.7760 C.ar  124  TRP124      0.0015
     55  N         11.9510   26.9160   11.2870 N.3   127  VAL127     -0.1231
     56  CA        12.9050   27.0440   10.1790 C.3   127  VAL127      0.1692
     57  C         12.2820   26.4810    8.8980 C.2   127  VAL127      0.2592
     58  O         12.3010   27.1350    7.8510 O.2   127  VAL127     -0.2718
     59  CB        14.2520   26.3370   10.4620 C.3   127  VAL127      0.0266
     60  CG1       15.1780   26.4480    9.2560 C.3   127  VAL127      0.0020
     61  CG2       14.9150   26.9280   11.6980 C.3   127  VAL127      0.0020
     62  N         11.7080   25.2820    8.9960 N.am  128  SER128     -0.1952
     63  CA        11.0680   24.6380    7.8520 C.3   128  SER128      0.1924
     64  C          9.8620   25.4210    7.3380 C.2   128  SER128      0.2314
     65  O          9.7550   25.6760    6.1400 O.2   128  SER128     -0.2863
     66  CB        10.6440   23.2110    8.2140 C.3   128  SER128      0.2116
     67  OG        10.1510   22.5270    7.0780 O.3   128  SER128     -0.2180
     68  N         10.1970   29.0170    5.5280 N.3   131  ARG131     -0.1245
     69  CA        10.6010   29.0010    4.1260 C.3   131  ARG131      0.1563
     70  C          9.5090   29.5740    3.2170 C.2   131  ARG131      0.2260
     71  O          9.8080   30.2740    2.2480 O.2   131  ARG131     -0.2867
     72  CB        10.9550   27.5850    3.6890 C.3   131  ARG131      0.0307
     73  CG        12.1990   27.0490    4.3740 C.3   131  ARG131      0.0489
     74  CD        12.6370   25.7290    3.7670 C.3   131  ARG131      0.2205
     75  NE        11.6820   24.6470    3.9910 N.pl3 131  ARG131     -0.0865
     76  CZ        11.7890   23.4410    3.4410 C.cat 131  ARG131      0.5346
     77  NH1       12.7990   23.1770    2.6200 N.pl3 131  ARG131      0.1354
     78  NH2       10.8830   22.5040    3.7020 N.pl3 131  ARG131      0.1354
     79  N         14.7660   20.8960   -0.4460 N.3   154  ASP154     -0.1225
     80  CA        15.5570   20.6510    0.7740 C.3   154  ASP154      0.1805
     81  C         17.0390   20.5460    0.4180 C.2   154  ASP154      0.2598
     82  O         17.3830   20.1260   -0.6950 O.2   154  ASP154     -0.2718
     83  CB        15.1130   19.3420    1.4500 C.3   154  ASP154      0.1424
     84  CG        13.8080   19.4810    2.2300 C.2   154  ASP154      0.3668
     85  OD1       13.1260   20.5300    2.1490 O.co2 154  ASP154     -0.2456
     86  OD2       13.4500   18.5120    2.9270 O.co2 154  ASP154     -0.2456
     87  N         17.9000   20.9230    1.3700 N.am  155  VAL155     -0.1966
     88  CA        19.3480   20.9740    1.1640 C.3   155  VAL155      0.1727
     89  C         20.0750   19.6630    1.4710 C.2   155  VAL155      0.2616
     90  O         21.1590   19.4240    0.9300 O.2   155  VAL155     -0.2715
     91  CB        20.0090   22.1310    1.9650 C.3   155  VAL155      0.0290
     92  CG1       20.1090   21.8050    3.4550 C.3   155  VAL155      0.0023
     93  CG2       21.3830   22.4580    1.3870 C.3   155  VAL155      0.0023
     94  N         19.4810   18.8310    2.3280 N.am  156  ASP156     -0.1971
     95  CA        20.1260   17.5980    2.8050 C.3   156  ASP156      0.1709
     96  C         19.9350   16.4460    1.8140 C.2   156  ASP156      0.2293
     97  O         19.4680   15.3490    2.1470 O.2   156  ASP156     -0.2864
     98  CB        19.6990   17.2520    4.2470 C.3   156  ASP156      0.1436
     99  CG        18.1870   17.1680    4.4410 C.2   156  ASP156      0.3671
    100  OD1       17.4000   17.6410    3.5990 O.co2 156  ASP156     -0.2456
    101  OD2       17.7790   16.6260    5.4880 O.co2 156  ASP156     -0.2456
    102  N         22.2550    9.2270    6.8430 N.3   289  LYS289     -0.1245
    103  CA        22.5400    9.7410    8.1850 C.3   289  LYS289      0.1561
    104  C         23.9780    9.4850    8.6350 C.2   289  LYS289      0.2260
    105  O         24.3530    8.3540    8.9490 O.2   289  LYS289     -0.2867
    106  CB        21.5600    9.1400    9.1940 C.3   289  LYS289      0.0271
    107  CG        20.0740    9.2840    8.8510 C.3   289  LYS289      0.0035
    108  CD        19.6060   10.7250    8.8430 C.3   289  LYS289      0.0206
    109  CE        18.1380   10.8120    8.4970 C.3   289  LYS289      0.1093
    110  NZ        17.8480   10.2610    7.1440 N.3   289  LYS289     -0.1314
@<TRIPOS>BOND
     1    82    81    2
     2    79    80    1
     3    81    80    1
     4    81    87   am
     5    80    83    1
     6    90    89    2
     7    88    87    1
     8    88    89    1
     9    88    91    1
    10    93    91    1
    11    83    84    1
    12    89    94   am
    13     9     7   ar
    14     9    11   ar
    15     1     2    1
    16    96    97    2
    17    96    95    1
    18     7     6   ar
    19    91    92    1
    20    85    84   ar
    21    11    10   ar
    22    84    86   ar
    23    71    70    2
    24    94    95    1
    25    77    76    1
    26    95    98    1
    27     2     3    1
    28     2     5    1
    29     6     5    1
    30     6     8   ar
    31    70    69    1
    32    10     8   ar
    33    76    78    1
    34    76    75    2
    35   100    99   ar
    36     3     4    2
    37    72    69    1
    38    72    73    1
    39    74    75    1
    40    74    73    1
    41    69    68    1
    42    98    99    1
    43    99   101   ar
    44    32    31    2
    45    65    64    2
    46    31    30    1
    47   102   103    1
    48    36    38   ar
    49    36    34   ar
    50    67    66    1
    51   110   109    1
    52    12    13    1
    53    33    30    1
    54    33    34    1
    55    19    17    1
    56    64    63    1
    57    30    29    1
    58    38    39   ar
    59    17    16    1
    60    58    57    2
    61    63    66    1
    62    63    62    1
    63    34    35   ar
    64   103   104    1
    65   103   106    1
    66    13    16    1
    67    13    14    1
    68   109   108    1
    69   104   105    2
    70    16    18    1
    71   108   107    1
    72   107   106    1
    73    57    62   am
    74    57    56    1
    75    39    40    1
    76    39    37   ar
    77    35    37   ar
    78    60    59    1
    79    14    15    2
    80    14    20   am
    81    23    22    2
    82    56    59    1
    83    56    55    1
    84    20    21    1
    85    59    61    1
    86    22    21    1
    87    44    43    2
    88    21    24    1
    89    53    51   ar
    90    53    54   ar
    91    51    48   ar
    92    43    42    1
    93    24    25    1
    94    54    52   ar
    95    25    26    1
    96    45    42    1
    97    45    46    1
    98    42    41    1
    99    48    46   ar
   100    48    50   ar
   101    46    47   ar
   102    27    26    1
   103    27    28    1
   104    52    50   ar
   105    50    49   ar
   106    47    49   ar
