@<TRIPOS>MOLECULE
tmp/4kc7A00.pdb
 109 106 0 0 0
SMALL
GASTEIGER

@<TRIPOS>ATOM
      1  N         -1.8840   12.4740   12.7180 N.3    10  HIS10      -0.1226
      2  CA        -1.8310   11.1030   12.2860 C.3    10  HIS10       0.1752
      3  C         -0.6190   10.9840   11.3260 C.2    10  HIS10       0.2596
      4  O         -0.3600   11.8960   10.4830 O.2    10  HIS10      -0.2718
      5  CB        -3.1270   10.8160   11.5180 C.3    10  HIS10       0.0759
      6  CG        -3.5380    9.3740   11.5960 C.ar   10  HIS10       0.0818
      7  ND1       -3.1520    8.4660   10.6550 N.ar   10  HIS10      -0.2268
      8  CD2       -4.2040    8.6560   12.5570 C.ar   10  HIS10       0.1154
      9  CE1       -3.6440    7.2750   10.9590 C.ar   10  HIS10       0.1986
     10  NE2       -4.2230    7.3430   12.1380 N.ar   10  HIS10      -0.2212
     11  N          0.1460    9.9260   11.4780 N.am   11  ASP11      -0.1974
     12  CA         1.3240    9.6720   10.6370 C.3    11  ASP11       0.1709
     13  C          2.3790   10.8120   10.7100 C.2    11  ASP11       0.2293
     14  O          2.7250   11.3870    9.6800 O.2    11  ASP11      -0.2864
     15  CB         0.8690    9.4010    9.2270 C.3    11  ASP11       0.1436
     16  CG        -0.2570    8.3790    9.1130 C.2    11  ASP11       0.3671
     17  OD1       -0.1230    7.2620    9.6630 O.co2  11  ASP11      -0.2456
     18  OD2       -1.2970    8.6550    8.5140 O.co2  11  ASP11      -0.2456
     19  N         -1.0100   13.1900    8.0130 N.3    26  THR26      -0.1203
     20  CA        -2.1780   12.9410    7.1910 C.3    26  THR26       0.1994
     21  C         -3.2930   13.9770    7.3750 C.2    26  THR26       0.2617
     22  O         -3.4840   14.4970    8.4550 O.2    26  THR26      -0.2717
     23  CB        -2.5560   11.4930    7.4390 C.3    26  THR26       0.1784
     24  OG1       -1.5100   10.6690    6.8760 O.3    26  THR26      -0.2211
     25  CG2       -3.9660   11.1880    6.9590 C.3    26  THR26       0.0376
     26  N         -3.9850   14.3370    6.2880 N.am   27  HIS27      -0.1975
     27  CA        -5.0300   15.4040    6.3150 C.3    27  HIS27       0.1656
     28  C         -4.4680   16.8070    6.5320 C.2    27  HIS27       0.2291
     29  O         -5.1940   17.7110    6.8700 O.2    27  HIS27      -0.2864
     30  CB        -6.1180   15.1830    7.4090 C.3    27  HIS27       0.0771
     31  CG        -6.6330   13.7750    7.5010 C.ar   27  HIS27       0.0820
     32  ND1       -6.9650   12.9810    6.4190 N.ar   27  HIS27      -0.2267
     33  CD2       -6.8330   13.0060    8.5820 C.ar   27  HIS27       0.1154
     34  CE1       -7.3700   11.7950    6.8340 C.ar   27  HIS27       0.1986
     35  NE2       -7.3050   11.7920    8.1520 N.ar   27  HIS27      -0.2212
     36  N         -2.5640   17.6690    8.8830 N.3    29  GLN29      -0.1245
     37  CA        -2.4660   17.9890   10.3200 C.3    29  GLN29       0.1566
     38  C         -1.0250   18.3980   10.5830 C.2    29  GLN29       0.2260
     39  O         -0.0570   17.6650   10.2760 O.2    29  GLN29      -0.2867
     40  CB        -2.8540   16.7310   11.0820 C.3    29  GLN29       0.0367
     41  CG        -4.3070   16.4570   10.9790 C.3    29  GLN29       0.0905
     42  CD        -4.7760   15.1220   11.5680 C.2    29  GLN29       0.2608
     43  OE1       -4.0030   14.2550   11.9380 O.2    29  GLN29      -0.2717
     44  NE2       -6.1000   14.9630   11.6250 N.am   29  GLN29      -0.0878
     45  N         -2.2610   12.2600    2.2460 N.3    74  TRP74      -0.1241
     46  CA        -1.8150   11.2960    3.2710 C.3    74  TRP74       0.1605
     47  C         -0.3180   11.3400    3.4950 C.2    74  TRP74       0.2264
     48  O          0.4330   11.4940    2.5530 O.2    74  TRP74      -0.2867
     49  CB        -2.2170    9.8500    2.9930 C.3    74  TRP74       0.0550
     50  CG        -3.6980    9.5890    2.9070 C.ar   74  TRP74       0.0003
     51  CD1       -4.6890   10.4030    3.1860 C.ar   74  TRP74       0.0946
     52  CD2       -4.2830    8.3270    2.5810 C.ar   74  TRP74       0.0152
     53  NE1       -5.9020    9.7640    2.9780 N.ar   74  TRP74      -0.2442
     54  CE2       -5.6520    8.4830    2.5960 C.ar   74  TRP74       0.0810
     55  CE3       -3.7540    7.0830    2.2340 C.ar   74  TRP74       0.0012
     56  CZ2       -6.5260    7.4200    2.2810 C.ar   74  TRP74       0.0191
     57  CZ3       -4.6040    6.0220    1.9630 C.ar   74  TRP74       0.0001
     58  CH2       -5.9840    6.2060    2.0070 C.ar   74  TRP74       0.0015
     59  N         -9.2270    4.7430    0.7180 N.3    95  PHE95      -0.1241
     60  CA        -9.0790    3.6190    1.6870 C.3    95  PHE95       0.1605
     61  C         -9.2240    2.2890    1.0260 C.2    95  PHE95       0.2264
     62  O        -10.1320    2.1090    0.2150 O.2    95  PHE95      -0.2867
     63  CB       -10.1010    3.8090    2.7710 C.3    95  PHE95       0.0534
     64  CG        -9.7520    4.9310    3.6980 C.ar   95  PHE95      -0.0203
     65  CD1       -8.8760    4.7370    4.7640 C.ar   95  PHE95      -0.0042
     66  CD2      -10.2930    6.2130    3.4950 C.ar   95  PHE95      -0.0042
     67  CE1       -8.5640    5.8070    5.6280 C.ar   95  PHE95      -0.0003
     68  CE2       -9.9900    7.2830    4.3320 C.ar   95  PHE95      -0.0003
     69  CZ        -9.1380    7.0620    5.4200 C.ar   95  PHE95      -0.0000
     70  N         -3.9000   -0.0420   11.5250 N.3   224  LEU224     -0.1245
     71  CA        -3.8420    1.1810   12.3220 C.3   224  LEU224      0.1561
     72  C         -4.9990    1.2920   13.2760 C.2   224  LEU224      0.2260
     73  O         -4.8900    1.9330   14.2940 O.2   224  LEU224     -0.2867
     74  CB        -3.7010    2.4190   11.4010 C.3   224  LEU224      0.0270
     75  CG        -4.9290    2.7290   10.5570 C.3   224  LEU224      0.0019
     76  CD1       -5.7670    3.7070   11.2740 C.3   224  LEU224      0.0001
     77  CD2       -4.5380    3.2830    9.1730 C.3   224  LEU224      0.0001
     78  N         -3.5200    5.4000   19.4030 N.3   312  ARG312     -0.1245
     79  CA        -4.8440    5.2990   20.0160 C.3   312  ARG312      0.1563
     80  C         -4.6160    4.8490   21.4620 C.2   312  ARG312      0.2260
     81  O         -3.4710    4.6970   21.9470 O.2   312  ARG312     -0.2867
     82  CB        -5.7580    4.3900   19.1810 C.3   312  ARG312      0.0307
     83  CG        -6.1060    5.0140   17.8110 C.3   312  ARG312      0.0489
     84  CD        -6.1760    4.0790   16.6350 C.3   312  ARG312      0.2205
     85  NE        -6.7430    4.7480   15.4410 N.pl3 312  ARG312     -0.0865
     86  CZ        -6.1140    5.5860   14.6270 C.cat 312  ARG312      0.5346
     87  NH1       -4.8490    5.8690   14.7690 N.pl3 312  ARG312      0.1354
     88  NH2       -6.8060    6.2120   13.6980 N.pl3 312  ARG312      0.1354
     89  N        -11.0560    5.0740   18.1060 N.3   318  GLU318     -0.1245
     90  CA       -10.1610    5.5670   17.0490 C.3   318  GLU318      0.1567
     91  C         -9.5020    6.9420   17.3530 C.2   318  GLU318      0.2260
     92  O         -8.8610    7.5820   16.4920 O.2   318  GLU318     -0.2867
     93  CB       -10.9300    5.6170   15.7500 C.3   318  GLU318      0.0388
     94  CG       -11.3610    4.2670   15.1860 C.3   318  GLU318      0.1160
     95  CD       -10.2190    3.2720   15.0070 C.2   318  GLU318      0.3649
     96  OE1       -9.2240    3.6330   14.3520 O.co2 318  GLU318     -0.2457
     97  OE2      -10.2830    2.1820   15.5530 O.co2 318  GLU318     -0.2457
     98  N         -6.9900    9.5600   18.4830 N.3   320  TYR320     -0.1241
     99  CA        -5.5420    9.4450   18.4840 C.3   320  TYR320      0.1605
    100  C         -4.8630   10.7580   18.7990 C.2   320  TYR320      0.2264
    101  O         -5.4500   11.8110   18.6850 O.2   320  TYR320     -0.2867
    102  CB        -5.1350    8.8510   17.1130 C.3   320  TYR320      0.0534
    103  CG        -5.4220    9.7360   15.9490 C.ar  320  TYR320     -0.0201
    104  CD1       -4.5780   10.7780   15.6200 C.ar  320  TYR320     -0.0009
    105  CD2       -6.6010    9.6280   15.2260 C.ar  320  TYR320     -0.0009
    106  CE1       -4.8720   11.6410   14.6290 C.ar  320  TYR320      0.0417
    107  CE2       -6.8990   10.5070   14.2410 C.ar  320  TYR320      0.0417
    108  CZ        -6.0000   11.5020   13.9280 C.ar  320  TYR320      0.1957
    109  OH        -6.3950   12.2670   12.8350 O.3   320  TYR320     -0.2866
@<TRIPOS>BOND
     1    62    61    2
     2    59    60    1
     3    61    60    1
     4    60    63    1
     5    57    58   ar
     6    57    55   ar
     7    58    56   ar
     8    55    52   ar
     9    45    46    1
    10    56    54   ar
    11    48    47    2
    12    52    54   ar
    13    52    50   ar
    14    54    53   ar
    15    63    64    1
    16    50    49    1
    17    50    51   ar
    18    53    51   ar
    19    49    46    1
    20    46    47    1
    21    66    64   ar
    22    66    68   ar
    23    64    65   ar
    24    68    69   ar
    25    65    67   ar
    26    69    67   ar
    27    26    27    1
    28    26    21   am
    29    27    28    1
    30    27    30    1
    31    32    34   ar
    32    32    31   ar
    33    28    29    2
    34    34    35   ar
    35    24    23    1
    36    25    23    1
    37    20    21    1
    38    20    23    1
    39    20    19    1
    40    21    22    2
    41    30    31    1
    42    31    33   ar
    43    35    33   ar
    44    18    16   ar
    45    36    37    1
    46    16    15    1
    47    16    17   ar
    48    77    75    1
    49    15    12    1
    50    14    13    2
    51    39    38    2
    52    37    38    1
    53    37    40    1
    54     4     3    2
    55    75    76    1
    56    75    74    1
    57    12    13    1
    58    12    11    1
    59     7     9   ar
    60     7     6   ar
    61     9    10   ar
    62    41    40    1
    63    41    42    1
    64     3    11   am
    65     3     2    1
    66    74    71    1
    67     5     6    1
    68     5     2    1
    69    70    71    1
    70    42    44   am
    71    42    43    2
    72     6     8   ar
    73    10     8   ar
    74     2     1    1
    75    71    72    1
    76   109   108    1
    77    72    73    2
    78    88    86    1
    79   108   107   ar
    80   108   106   ar
    81   107   105   ar
    82    96    95   ar
    83    86    87    1
    84    86    85    2
    85   106   104   ar
    86    95    94    1
    87    95    97   ar
    88    94    93    1
    89   105   103   ar
    90    85    84    1
    91   104   103   ar
    92    93    90    1
    93   103   102    1
    94    92    91    2
    95    84    83    1
    96    90    91    1
    97    90    89    1
    98   102    99    1
    99    83    82    1
   100    98    99    1
   101    99   100    1
   102   101   100    2
   103    82    79    1
   104    78    79    1
   105    79    80    1
   106    80    81    2
