@<TRIPOS>MOLECULE
tmp/4kc8A00.pdb
 116 112 0 0 0
SMALL
GASTEIGER

@<TRIPOS>ATOM
      1  N         22.4680  -12.0540  207.0420 N.3    10  HIS10      -0.1226
      2  CA        22.3850  -10.6810  206.6130 C.3    10  HIS10       0.1752
      3  C         21.1690  -10.5390  205.5830 C.2    10  HIS10       0.2596
      4  O         21.0190  -11.3540  204.6470 O.2    10  HIS10      -0.2718
      5  CB        23.7590  -10.3240  206.0190 C.3    10  HIS10       0.0759
      6  CG        24.0620   -8.8440  205.9140 C.ar   10  HIS10       0.0818
      7  ND1       23.8590   -8.1170  204.7660 N.ar   10  HIS10      -0.2268
      8  CD2       24.5910   -7.9780  206.8030 C.ar   10  HIS10       0.1154
      9  CE1       24.2780   -6.8790  204.9350 C.ar   10  HIS10       0.1986
     10  NE2       24.7150   -6.7670  206.1680 N.ar   10  HIS10      -0.2212
     11  N         20.3330   -9.5220  205.7610 N.am   11  ASP11      -0.1974
     12  CA        19.1720   -9.1980  204.8680 C.3    11  ASP11       0.1709
     13  C         18.2660  -10.3670  204.8590 C.2    11  ASP11       0.2293
     14  O         18.0830  -10.9810  203.8010 O.2    11  ASP11      -0.2864
     15  CB        19.6470   -8.9070  203.4120 C.3    11  ASP11       0.1436
     16  CG        20.7790   -7.8950  203.3490 C.2    11  ASP11       0.3671
     17  OD1       20.6310   -6.7770  203.8710 O.co2  11  ASP11      -0.2456
     18  OD2       21.8000   -8.1370  202.7210 O.co2  11  ASP11      -0.2456
     19  N         21.5930  -12.6320  202.2330 N.3    26  THR26      -0.1218
     20  CA        22.7440  -12.3940  201.4350 C.3    26  THR26       0.1862
     21  C         23.8720  -13.4060  201.7280 C.2    26  THR26       0.2287
     22  O         23.9860  -13.9650  202.8470 O.2    26  THR26      -0.2866
     23  CB        23.1780  -10.9430  201.6520 C.3    26  THR26       0.1770
     24  OG1       22.1010  -10.0950  201.2230 O.3    26  THR26      -0.2211
     25  CG2       24.4460  -10.6120  200.9050 C.3    26  THR26       0.0375
     26  N         22.8330  -11.6660  196.6620 N.3    74  TRP74      -0.1227
     27  CA        22.3800  -10.8160  197.7350 C.3    74  TRP74       0.1737
     28  C         20.8680  -10.9470  197.8230 C.2    74  TRP74       0.2595
     29  O         20.1760  -11.2490  196.8450 O.2    74  TRP74      -0.2718
     30  CB        22.6950   -9.3970  197.3910 C.3    74  TRP74       0.0564
     31  CG        24.1060   -9.0970  197.1300 C.ar   74  TRP74       0.0003
     32  CD1       25.1840   -9.8940  197.3370 C.ar   74  TRP74       0.0946
     33  CD2       24.6060   -7.8410  196.6860 C.ar   74  TRP74       0.0152
     34  NE1       26.3430   -9.2170  196.9810 N.ar   74  TRP74      -0.2442
     35  CE2       26.0040   -7.9570  196.5720 C.ar   74  TRP74       0.0810
     36  CE3       23.9930   -6.6400  196.3040 C.ar   74  TRP74       0.0012
     37  CZ2       26.7980   -6.9080  196.1440 C.ar   74  TRP74       0.0191
     38  CZ3       24.8010   -5.5830  195.8790 C.ar   74  TRP74       0.0001
     39  CH2       26.1920   -5.7370  195.8090 C.ar   74  TRP74       0.0015
     40  N         20.3770  -10.6660  199.0050 N.am   75  ALA75      -0.1980
     41  CA        18.9580  -10.3590  199.2410 C.3    75  ALA75       0.1597
     42  C         17.9610  -11.4050  198.7640 C.2    75  ALA75       0.2287
     43  O         16.9060  -11.0450  198.2620 O.2    75  ALA75      -0.2864
     44  CB        18.6260   -8.9870  198.6630 C.3    75  ALA75       0.0319
     45  N         29.5340   -3.8850  194.7190 N.3    95  PHE95      -0.1241
     46  CA        29.3300   -2.8400  195.7270 C.3    95  PHE95       0.1605
     47  C         29.1040   -1.4760  195.0820 C.2    95  PHE95       0.2264
     48  O         29.9460   -1.0230  194.3560 O.2    95  PHE95      -0.2867
     49  CB        30.5310   -2.7880  196.6900 C.3    95  PHE95       0.0534
     50  CG        30.1940   -2.3040  198.0840 C.ar   95  PHE95      -0.0203
     51  CD1       28.9800   -1.6630  198.3730 C.ar   95  PHE95      -0.0042
     52  CD2       31.1210   -2.4590  199.1140 C.ar   95  PHE95      -0.0042
     53  CE1       28.6950   -1.2170  199.6650 C.ar   95  PHE95      -0.0003
     54  CE2       30.8420   -2.0130  200.4150 C.ar   95  PHE95      -0.0003
     55  CZ        29.6300   -1.3920  200.6870 C.ar   95  PHE95      -0.0000
     56  N         17.8880   -4.6550  192.4380 N.3   148  LEU148     -0.1231
     57  CA        18.2650   -5.3240  193.6860 C.3   148  LEU148      0.1693
     58  C         17.1000   -5.4080  194.6860 C.2   148  LEU148      0.2592
     59  O         16.1890   -4.6500  194.6610 O.2   148  LEU148     -0.2718
     60  CB        19.3940   -4.6630  194.4860 C.3   148  LEU148      0.0284
     61  CG        20.7370   -4.1960  193.9720 C.3   148  LEU148      0.0019
     62  CD1       21.5690   -3.7330  195.1690 C.3   148  LEU148      0.0001
     63  CD2       21.4470   -5.2610  193.1700 C.3   148  LEU148      0.0001
     64  N         17.2420   -6.3300  195.6100 N.am  149  ASP149     -0.1974
     65  CA        16.4380   -6.2990  196.8140 C.3   149  ASP149      0.1709
     66  C         14.9710   -6.6180  196.5000 C.2   149  ASP149      0.2293
     67  O         14.0830   -5.8360  196.8440 O.2   149  ASP149     -0.2864
     68  CB        16.5900   -4.8980  197.4990 C.3   149  ASP149      0.1436
     69  CG        17.9320   -4.7810  198.2670 C.2   149  ASP149      0.3671
     70  OD1       18.7530   -5.6530  198.0670 O.co2 149  ASP149     -0.2456
     71  OD2       18.1990   -3.8610  199.0330 O.co2 149  ASP149     -0.2456
     72  N         17.3920   -0.1360  195.4050 N.3   166  SER166     -0.1217
     73  CA        18.4160    0.2590  196.3050 C.3   166  SER166      0.1889
     74  C         19.1220    1.4770  195.7450 C.2   166  SER166      0.2288
     75  O         19.7150    1.3660  194.6880 O.2   166  SER166     -0.2866
     76  CB        19.4400   -0.8700  196.4580 C.3   166  SER166      0.2089
     77  OG        20.5200   -0.5370  197.2830 O.3   166  SER166     -0.2183
     78  N         17.0170    1.2910  200.6000 N.3   202  GLU202     -0.1245
     79  CA        17.0630    0.0380  199.9540 C.3   202  GLU202      0.1567
     80  C         16.2190   -0.9120  200.7800 C.2   202  GLU202      0.2260
     81  O         15.6180   -0.5010  201.8070 O.2   202  GLU202     -0.2867
     82  CB        18.4990   -0.4340  199.8930 C.3   202  GLU202      0.0388
     83  CG        19.1290   -0.8210  201.2250 C.3   202  GLU202      0.1160
     84  CD        20.6240   -1.1600  201.0680 C.2   202  GLU202      0.3649
     85  OE1       21.1110   -1.3220  199.8840 O.co2 202  GLU202     -0.2457
     86  OE2       21.3100   -1.2820  202.1160 O.co2 202  GLU202     -0.2457
     87  N         24.5570    0.5130  205.6100 N.3   224  LEU224     -0.1245
     88  CA        24.5050   -0.7000  206.4380 C.3   224  LEU224      0.1561
     89  C         25.6730   -0.8410  207.4210 C.2   224  LEU224      0.2260
     90  O         25.5900   -1.6660  208.3190 O.2   224  LEU224     -0.2867
     91  CB        24.4100   -1.9430  205.5540 C.3   224  LEU224      0.0270
     92  CG        25.6940   -2.3470  204.8260 C.3   224  LEU224      0.0019
     93  CD1       26.6280   -3.1360  205.7440 C.3   224  LEU224      0.0001
     94  CD2       25.4250   -3.1210  203.5360 C.3   224  LEU224      0.0001
     95  N         22.1480    2.9610  209.4940 N.3   230  TYR230     -0.1241
     96  CA        21.0380    2.1830  208.9600 C.3   230  TYR230      0.1605
     97  C         19.9390    2.2430  209.9660 C.2   230  TYR230      0.2264
     98  O         20.1690    2.0850  211.1910 O.2   230  TYR230     -0.2867
     99  CB        21.4310    0.7460  208.7870 C.3   230  TYR230      0.0534
    100  CG        21.0070   -0.0130  207.5280 C.ar  230  TYR230     -0.0201
    101  CD1       21.0160    0.5790  206.2560 C.ar  230  TYR230     -0.0009
    102  CD2       20.8170   -1.4070  207.5950 C.ar  230  TYR230     -0.0009
    103  CE1       20.7670   -0.1700  205.1110 C.ar  230  TYR230      0.0417
    104  CE2       20.5030   -2.1480  206.4600 C.ar  230  TYR230      0.0417
    105  CZ        20.4780   -1.5010  205.2180 C.ar  230  TYR230      0.1957
    106  OH        20.2350   -2.1890  204.0650 O.3   230  TYR230     -0.2866
    107  N         17.4460   -3.7580  207.0250 N.3   293  HIS293     -0.1241
    108  CA        16.9940   -4.5890  205.9370 C.3   293  HIS293      0.1621
    109  C         16.1260   -5.7290  206.3960 C.2   293  HIS293      0.2264
    110  O         16.5530   -6.8850  206.4150 O.2   293  HIS293     -0.2867
    111  CB        18.2280   -5.1530  205.1910 C.3   293  HIS293      0.0745
    112  CG        17.8660   -5.7840  203.8890 C.ar  293  HIS293      0.0817
    113  ND1       18.4750   -5.4390  202.7220 N.ar  293  HIS293     -0.2268
    114  CD2       16.9540   -6.7300  203.5760 C.ar  293  HIS293      0.1154
    115  CE1       17.9360   -6.1120  201.7220 C.ar  293  HIS293      0.1986
    116  NE2       17.0150   -6.9090  202.2180 N.ar  293  HIS293     -0.2212
@<TRIPOS>BOND
     1    56    57    1
     2    63    61    1
     3    57    60    1
     4    57    58    1
     5    61    60    1
     6    61    62    1
     7    48    47    2
     8    59    58    2
     9    58    64   am
    10    75    74    2
    11    45    46    1
    12    47    46    1
    13    72    73    1
    14    64    65    1
    15    46    49    1
    16    74    73    1
    17    39    38   ar
    18    39    37   ar
    19    38    36   ar
    20    37    35   ar
    21    36    33   ar
    22    73    76    1
    23    76    77    1
    24    66    65    1
    25    66    67    2
    26    35    33   ar
    27    35    34   ar
    28    26    27    1
    29    33    31   ar
    30    49    50    1
    31    65    68    1
    32    29    28    2
    33    34    32   ar
    34    31    32   ar
    35    31    30    1
    36    30    27    1
    37    68    69    1
    38    27    28    1
    39    28    40   am
    40    70    69   ar
    41    50    51   ar
    42    50    52   ar
    43    43    42    2
    44    69    71   ar
    45    51    53   ar
    46    44    41    1
    47    42    41    1
    48    40    41    1
    49    52    54   ar
    50    53    55   ar
    51    85    84   ar
    52    82    79    1
    53    82    83    1
    54    79    78    1
    55    79    80    1
    56    54    55   ar
    57    80    81    2
    58    25    23    1
    59    84    83    1
    60    84    86   ar
    61    24    23    1
    62    20    23    1
    63    20    21    1
    64    20    19    1
    65   115   116   ar
    66   115   113   ar
    67    21    22    2
    68   116   114   ar
    69    18    16   ar
    70   113   112   ar
    71    16    15    1
    72    16    17   ar
    73    15    12    1
    74    94    92    1
    75   114   112   ar
    76    14    13    2
    77   112   111    1
    78   106   105    1
    79     4     3    2
    80     7     9   ar
    81     7     6   ar
    82    92    91    1
    83    92    93    1
    84    13    12    1
    85    12    11    1
    86     9    10   ar
    87   103   105   ar
    88   103   101   ar
    89   111   108    1
    90   105   104   ar
    91    91    88    1
    92     3    11   am
    93     3     2    1
    94    87    88    1
    95     6     5    1
    96     6     8   ar
    97   108   109    1
    98   108   107    1
    99     5     2    1
   100    10     8   ar
   101   101   100   ar
   102   109   110    2
   103    88    89    1
   104   104   102   ar
   105     2     1    1
   106    89    90    2
   107   100   102   ar
   108   100    99    1
   109    99    96    1
   110    96    95    1
   111    96    97    1
   112    97    98    2
