@<TRIPOS>MOLECULE
tmp/4kcfA01.pdb
 145 137 0 0 0
SMALL
GASTEIGER

@<TRIPOS>ATOM
      1  N          3.6400   17.3850  -21.9300 N.3    90  LEU90      -0.1245
      2  CA         5.0520   17.0940  -21.6760 C.3    90  LEU90       0.1561
      3  C          5.9520   17.8630  -22.6660 C.2    90  LEU90       0.2260
      4  O          6.9270   18.4940  -22.2600 O.2    90  LEU90      -0.2867
      5  CB         5.2900   15.5680  -21.7540 C.3    90  LEU90       0.0270
      6  CG         6.7190   14.9970  -21.7430 C.3    90  LEU90       0.0019
      7  CD1        7.4130   15.4500  -20.4850 C.3    90  LEU90       0.0001
      8  CD2        6.8570   13.4580  -21.9180 C.3    90  LEU90       0.0001
      9  N          8.6540   21.3530  -22.0300 N.3    94  MET94      -0.1245
     10  CA        10.0620   21.6660  -22.3530 C.3    94  MET94       0.1570
     11  C         10.2370   23.1480  -22.7780 C.2    94  MET94       0.2261
     12  O         11.1810   23.8280  -22.3570 O.2    94  MET94      -0.2867
     13  CB        10.6550   20.7350  -23.4090 C.3    94  MET94       0.0387
     14  CG        10.3850   19.2190  -23.2930 C.3    94  MET94       0.0595
     15  SD        11.1150   18.6630  -21.7560 S.3    94  MET94      -0.1393
     16  CE        10.4900   16.9640  -21.8160 C.3    94  MET94       0.0692
     17  N         15.3970   19.8900  -25.5950 N.3   133  SER133     -0.1217
     18  CA        16.3900   19.7360  -24.5420 C.3   133  SER133      0.1889
     19  C         16.9620   18.3380  -24.6980 C.2   133  SER133      0.2288
     20  O         16.1760   17.3810  -24.7840 O.2   133  SER133     -0.2866
     21  CB        15.7200   19.8790  -23.1750 C.3   133  SER133      0.2089
     22  OG        16.6260   19.3430  -22.2230 O.3   133  SER133     -0.2183
     23  N         19.5890   15.9010  -22.8650 N.3   135  ILE135     -0.1231
     24  CA        20.4910   15.7250  -21.7220 C.3   135  ILE135      0.1692
     25  C         21.2130   14.3870  -21.7040 C.2   135  ILE135      0.2591
     26  O         22.4140   14.3250  -21.4490 O.2   135  ILE135     -0.2718
     27  CB        19.8230   15.9250  -20.3210 C.3   135  ILE135      0.0266
     28  CG1       19.2370   17.3330  -20.1660 C.3   135  ILE135      0.0019
     29  CG2       20.7740   15.4780  -19.1940 C.3   135  ILE135      0.0020
     30  CD1       20.1750   18.5310  -20.0850 C.3   135  ILE135      0.0001
     31  N         20.4670   13.3150  -21.9400 N.am  136  LYS136     -0.1980
     32  CA        20.9860   11.9600  -21.7470 C.3   136  LYS136      0.1596
     33  C         21.6260   11.4000  -23.0120 C.2   136  LYS136      0.2287
     34  O         20.9440   11.2740  -24.0360 O.2   136  LYS136     -0.2864
     35  CB        19.8430   11.0020  -21.3930 C.3   136  LYS136      0.0298
     36  CG        20.2630    9.5650  -21.1040 C.3   136  LYS136      0.0038
     37  CD        19.0680    8.7440  -20.6270 C.3   136  LYS136      0.0206
     38  CE        19.4310    7.9610  -19.3470 C.3   136  LYS136      0.1093
     39  NZ        20.5980    7.0620  -19.5830 N.3   136  LYS136     -0.1314
     40  N         19.5450   10.7310  -26.4560 N.3   160  THR160     -0.1203
     41  CA        18.3080    9.9750  -26.5720 C.3   160  THR160      0.1994
     42  C         17.1870   10.6940  -25.8080 C.2   160  THR160      0.2617
     43  O         17.4630   11.4780  -24.9040 O.2   160  THR160     -0.2717
     44  CB        18.5000    8.4700  -26.1940 C.3   160  THR160      0.1784
     45  OG1       17.2680    7.7660  -26.4160 O.3   160  THR160     -0.2211
     46  CG2       18.9710    8.3220  -24.7490 C.3   160  THR160      0.0376
     47  N         15.9310   10.4730  -26.1800 N.am  161  LEU161     -0.1979
     48  CA        14.7640   11.0120  -25.4470 C.3   161  LEU161      0.1596
     49  C         14.7200   12.5420  -25.5390 C.2   161  LEU161      0.2287
     50  O         15.0150   13.2390  -24.5690 O.2   161  LEU161     -0.2864
     51  CB        14.7260   10.4990  -23.9920 C.3   161  LEU161      0.0297
     52  CG        14.8820    8.9700  -23.8910 C.3   161  LEU161      0.0022
     53  CD1       15.0750    8.5300  -22.4380 C.3   161  LEU161      0.0001
     54  CD2       13.6560    8.2620  -24.4660 C.3   161  LEU161      0.0001
     55  N         12.1250   15.1250  -26.3420 N.3   163  SER163     -0.1217
     56  CA        10.7300   15.3680  -26.6700 C.3   163  SER163      0.1889
     57  C         10.6610   16.6570  -27.4950 C.2   163  SER163      0.2288
     58  O         11.5170   17.5420  -27.3180 O.2   163  SER163     -0.2866
     59  CB         9.9230   15.5790  -25.3740 C.3   163  SER163      0.2089
     60  OG        10.1210   14.4330  -24.5590 O.3   163  SER163     -0.2183
     61  N         10.9600    7.0980  -32.0190 N.3   204  TRP204     -0.1241
     62  CA        10.3280    7.1680  -30.6840 C.3   204  TRP204      0.1605
     63  C          9.2120    6.1610  -30.7670 C.2   204  TRP204      0.2264
     64  O          8.2720    6.3970  -31.5090 O.2   204  TRP204     -0.2867
     65  CB         9.6690    8.5320  -30.3420 C.3   204  TRP204      0.0550
     66  CG         8.8850    8.5530  -29.0150 C.ar  204  TRP204      0.0003
     67  CD1        7.6680    9.1470  -28.7820 C.ar  204  TRP204      0.0946
     68  CD2        9.2760    7.9540  -27.7620 C.ar  204  TRP204      0.0152
     69  NE1        7.2690    8.9350  -27.4780 N.ar  204  TRP204     -0.2442
     70  CE2        8.2450    8.2150  -26.8290 C.ar  204  TRP204      0.0810
     71  CE3       10.3720    7.1700  -27.3540 C.ar  204  TRP204      0.0012
     72  CZ2        8.3050    7.7580  -25.5020 C.ar  204  TRP204      0.0191
     73  CZ3       10.4540    6.7300  -26.0200 C.ar  204  TRP204      0.0001
     74  CH2        9.4010    7.0180  -25.1110 C.ar  204  TRP204      0.0015
     75  N          3.9800    4.7700  -23.2380 N.3   208  GLY208     -0.1210
     76  CA         3.1140    5.9340  -23.2510 C.3   208  GLY208      0.1956
     77  C          3.8510    7.1790  -23.7250 C.2   208  GLY208      0.2611
     78  O          5.0110    7.1180  -24.1380 O.2   208  GLY208     -0.2717
     79  N          3.2060    8.3300  -23.5460 N.am  209  MET209     -0.1979
     80  CA         3.7470    9.6130  -24.0300 C.3   209  MET209      0.1605
     81  C          4.1270    9.3750  -25.5160 C.2   209  MET209      0.2287
     82  O          5.1490    9.8470  -25.9890 O.2   209  MET209     -0.2864
     83  CB         4.9610   10.0910  -23.2280 C.3   209  MET209      0.0413
     84  CG         4.7000   10.4680  -21.7670 C.3   209  MET209      0.0598
     85  SD         3.3250   11.6410  -21.6120 S.3   209  MET209     -0.1393
     86  CE         3.4100   12.0570  -19.8510 C.3   209  MET209      0.0692
     87  N          9.6220   12.0180  -28.8520 N.3   214  THR214     -0.1218
     88  CA        10.7480   11.8260  -27.9360 C.3   214  THR214      0.1862
     89  C         11.8480   10.9740  -28.5950 C.2   214  THR214      0.2287
     90  O         12.2460    9.9110  -28.0910 O.2   214  THR214     -0.2866
     91  CB        10.2340   11.3080  -26.5430 C.3   214  THR214      0.1770
     92  OG1        9.3430   12.2930  -26.0070 O.3   214  THR214     -0.2211
     93  CG2       11.3430   11.1030  -25.4900 C.3   214  THR214      0.0375
     94  N          5.1770    7.7580  -17.0180 N.3   372  ALA372     -0.1245
     95  CA         6.3890    8.3950  -17.5720 C.3   372  ALA372      0.1562
     96  C          7.2750    9.1270  -16.5790 C.2   372  ALA372      0.2260
     97  O          8.5150    9.1350  -16.7220 O.2   372  ALA372     -0.2867
     98  CB         5.9480    9.3270  -18.6980 C.3   372  ALA372      0.0290
     99  N         10.3730    7.7400  -14.9990 N.3   375  PHE375     -0.1227
    100  CA        11.6220    7.5730  -15.7430 C.3   375  PHE375      0.1736
    101  C         12.2620    8.9060  -16.1140 C.2   375  PHE375      0.2595
    102  O         13.0180    8.9690  -17.0780 O.2   375  PHE375     -0.2718
    103  CB        11.3960    6.6430  -16.9470 C.3   375  PHE375      0.0547
    104  CG        10.5710    5.4240  -16.5690 C.ar  375  PHE375     -0.0202
    105  CD1       11.1140    4.4460  -15.7460 C.ar  375  PHE375     -0.0042
    106  CD2        9.2480    5.3010  -16.9460 C.ar  375  PHE375     -0.0042
    107  CE1       10.3540    3.3560  -15.3310 C.ar  375  PHE375     -0.0003
    108  CE2        8.4560    4.2090  -16.5300 C.ar  375  PHE375     -0.0003
    109  CZ         9.0270    3.2420  -15.7080 C.ar  375  PHE375     -0.0000
    110  N         11.9440    9.9920  -15.4220 N.am  376  MET376     -0.1965
    111  CA        12.4680   11.3050  -15.8280 C.3   376  MET376      0.1736
    112  C         13.4300   11.7850  -14.7420 C.2   376  MET376      0.2616
    113  O         13.1100   11.7900  -13.5460 O.2   376  MET376     -0.2715
    114  CB        11.3040   12.2690  -16.0060 C.3   376  MET376      0.0427
    115  CG        10.5700   12.1330  -17.3230 C.3   376  MET376      0.0599
    116  SD         9.1830   13.2690  -17.3830 S.3   376  MET376     -0.1393
    117  CE         8.6770   12.4500  -18.9120 C.3   376  MET376      0.0692
    118  N         14.6440   12.1380  -15.1270 N.am  377  GLN377     -0.1977
    119  CA        15.6580   12.6600  -14.1970 C.3   377  GLN377      0.1601
    120  C         15.5780   14.1750  -14.1780 C.2   377  GLN377      0.2287
    121  O         15.2780   14.7640  -15.2170 O.2   377  GLN377     -0.2864
    122  CB        17.0640   12.3380  -14.7370 C.3   377  GLN377      0.0394
    123  CG        17.2940   10.8280  -14.7780 C.3   377  GLN377      0.0908
    124  CD        17.6550   10.2630  -13.4000 C.2   377  GLN377      0.2608
    125  OE1       17.7960   11.0010  -12.4220 O.2   377  GLN377     -0.2717
    126  NE2       17.8200    8.9440  -13.3260 N.am  377  GLN377     -0.0878
    127  N         15.0550    9.4300  -11.1000 N.3   380  ALA380     -0.1245
    128  CA        14.2050    8.2330  -11.0620 C.3   380  ALA380      0.1562
    129  C         14.3010    7.6660   -9.6270 C.2   380  ALA380      0.2260
    130  O         15.1590    8.0840   -8.8300 O.2   380  ALA380     -0.2867
    131  CB        14.6480    7.1930  -12.1820 C.3   380  ALA380      0.0290
    132  N         26.8550   11.4330  -14.4480 N.3   405  TRP405     -0.1241
    133  CA        26.7680   10.8270  -15.7780 C.3   405  TRP405      0.1605
    134  C         28.0360   11.0690  -16.5880 C.2   405  TRP405      0.2264
    135  O         28.5400   10.1430  -17.2280 O.2   405  TRP405     -0.2867
    136  CB        25.5540   11.3520  -16.5580 C.3   405  TRP405      0.0550
    137  CG        24.2150   10.7870  -16.1410 C.ar  405  TRP405      0.0003
    138  CD1       23.9750    9.8300  -15.1840 C.ar  405  TRP405      0.0946
    139  CD2       22.9340   11.1270  -16.6960 C.ar  405  TRP405      0.0152
    140  NE1       22.6300    9.5670  -15.1080 N.ar  405  TRP405     -0.2442
    141  CE2       21.9660   10.3420  -16.0250 C.ar  405  TRP405      0.0810
    142  CE3       22.5100   12.0190  -17.6920 C.ar  405  TRP405      0.0012
    143  CZ2       20.5940   10.4230  -16.3230 C.ar  405  TRP405      0.0191
    144  CZ3       21.1500   12.0950  -17.9910 C.ar  405  TRP405      0.0001
    145  CH2       20.2070   11.3100  -17.3010 C.ar  405  TRP405      0.0015
@<TRIPOS>BOND
     1    61    62    1
     2    64    63    2
     3    63    62    1
     4    62    65    1
     5    65    66    1
     6    66    67   ar
     7    66    68   ar
     8    87    88    1
     9    67    69   ar
    10    89    90    2
    11    89    88    1
    12    88    91    1
    13    68    71   ar
    14    68    70   ar
    15    57    58    2
    16    57    56    1
    17    69    70   ar
    18    71    73   ar
    19    70    72   ar
    20    56    55    1
    21    56    59    1
    22    41    40    1
    23    41    44    1
    24    41    42    1
    25    91    92    1
    26    91    93    1
    27    45    44    1
    28    44    46    1
    29    47    42   am
    30    47    48    1
    31    73    74   ar
    32    82    81    2
    33    42    43    2
    34    17    18    1
    35    49    48    1
    36    49    50    2
    37    81    80    1
    38    72    74   ar
    39    48    51    1
    40    59    60    1
    41    20    19    2
    42    19    18    1
    43    18    21    1
    44    54    52    1
    45    78    77    2
    46    34    33    2
    47    80    79    1
    48    80    83    1
    49    51    52    1
    50    52    53    1
    51    77    79   am
    52    77    76    1
    53    13    14    1
    54    13    10    1
    55    14    15    1
    56    76    75    1
    57    83    84    1
    58    21    22    1
    59    33    32    1
    60    23    24    1
    61    11    12    2
    62    11    10    1
    63     3     4    2
    64     3     2    1
    65    10     9    1
    66    31    32    1
    67    31    25   am
    68     1     2    1
    69     8     6    1
    70    16    15    1
    71    84    85    1
    72     5     6    1
    73     5     2    1
    74    32    35    1
    75     6     7    1
    76    24    25    1
    77    24    27    1
    78    25    26    2
    79    85    86    1
    80    35    36    1
    81    36    37    1
    82    37    38    1
    83    27    28    1
    84    27    29    1
    85    28    30    1
    86    39    38    1
    87   117   116    1
    88    98    95    1
    89   144   142   ar
    90   144   145   ar
    91   142   139   ar
    92    95    94    1
    93    95    96    1
    94   116   115    1
    95   115   114    1
    96   145   143   ar
    97   135   134    2
    98   102   101    2
    99   103   104    1
   100   103   100    1
   101   106   104   ar
   102   106   108   ar
   103    97    96    2
   104   139   137   ar
   105   139   141   ar
   106   134   133    1
   107   104   105   ar
   108   136   137    1
   109   136   133    1
   110   108   109   ar
   111   143   141   ar
   112   137   138   ar
   113   101   100    1
   114   101   110   am
   115   141   140   ar
   116   114   111    1
   117   111   110    1
   118   111   112    1
   119   133   132    1
   120   105   107   ar
   121   100    99    1
   122   109   107   ar
   123   121   120    2
   124   138   140   ar
   125   118   112   am
   126   118   119    1
   127   123   122    1
   128   123   124    1
   129   112   113    2
   130   122   119    1
   131   119   120    1
   132   124   126   am
   133   124   125    2
   134   131   128    1
   135   127   128    1
   136   128   129    1
   137   129   130    2
