@<TRIPOS>MOLECULE
tmp/4kcgB00.pdb
 207 193 0 0 0
SMALL
GASTEIGER

@<TRIPOS>ATOM
      1  N        -27.2820  -17.9340  -28.6730 N.3    11  ILE11      -0.1245
      2  CA       -27.6660  -18.7580  -27.5340 C.3    11  ILE11       0.1561
      3  C        -27.8300  -20.2340  -27.9960 C.2    11  ILE11       0.2260
      4  O        -28.4110  -20.5330  -29.0600 O.2    11  ILE11      -0.2867
      5  CB       -28.9050  -18.1440  -26.8370 C.3    11  ILE11       0.0252
      6  CG1      -28.5260  -16.7660  -26.2490 C.3    11  ILE11       0.0019
      7  CG2      -29.4520  -19.0450  -25.7330 C.3    11  ILE11       0.0019
      8  CD1      -29.6500  -15.7520  -26.1590 C.3    11  ILE11       0.0001
      9  N        -18.3980  -17.8850  -19.6600 N.3    34  GLU34      -0.1245
     10  CA       -19.1160  -16.6080  -19.4550 C.3    34  GLU34       0.1567
     11  C        -20.0060  -16.6620  -18.1940 C.2    34  GLU34       0.2260
     12  O        -20.7370  -17.6190  -17.9980 O.2    34  GLU34      -0.2867
     13  CB       -19.9560  -16.3000  -20.6820 C.3    34  GLU34       0.0388
     14  CG       -21.4300  -16.0860  -20.3850 C.3    34  GLU34       0.1160
     15  CD       -22.1420  -15.5080  -21.5640 C.2    34  GLU34       0.3649
     16  OE1      -21.5590  -14.6040  -22.1570 O.co2  34  GLU34      -0.2457
     17  OE2      -23.2720  -15.9520  -21.8840 O.co2  34  GLU34      -0.2457
     18  N        -22.9170  -15.2300  -17.1010 N.3    36  VAL36      -0.1245
     19  CA       -24.3450  -15.4490  -17.2390 C.3    36  VAL36       0.1561
     20  C        -24.7010  -16.9340  -17.3420 C.2    36  VAL36       0.2260
     21  O        -25.7790  -17.3510  -16.9060 O.2    36  VAL36      -0.2867
     22  CB       -24.9900  -14.6370  -18.3850 C.3    36  VAL36       0.0252
     23  CG1      -26.4880  -14.9040  -18.4230 C.3    36  VAL36       0.0019
     24  CG2      -24.7580  -13.1510  -18.1840 C.3    36  VAL36       0.0019
     25  N        -27.0910  -19.0510  -15.0960 N.3    40  SER40      -0.1217
     26  CA       -28.2620  -19.7280  -15.7080 C.3    40  SER40       0.1889
     27  C        -28.3790  -21.1590  -15.2080 C.2    40  SER40       0.2288
     28  O        -27.5370  -21.9980  -15.5540 O.2    40  SER40      -0.2866
     29  CB       -28.1990  -19.7400  -17.2480 C.3    40  SER40       0.2089
     30  OG       -27.7750  -18.5090  -17.8120 O.3    40  SER40      -0.2183
     31  N        -31.0450  -12.5540  -13.1730 N.3    52  LEU52      -0.1245
     32  CA       -31.4140  -13.2440  -14.4380 C.3    52  LEU52       0.1561
     33  C        -32.9050  -13.5730  -14.5230 C.2    52  LEU52       0.2260
     34  O        -33.5260  -13.4540  -15.5800 O.2    52  LEU52      -0.2867
     35  CB       -30.5410  -14.5030  -14.6660 C.3    52  LEU52       0.0270
     36  CG       -30.7990  -15.3750  -15.8910 C.3    52  LEU52       0.0019
     37  CD1      -30.7590  -14.5970  -17.2040 C.3    52  LEU52       0.0001
     38  CD2      -29.7810  -16.5000  -15.9250 C.3    52  LEU52       0.0001
     39  N        -34.7630  -10.2620  -14.9050 N.3    55  MET55      -0.1230
     40  CA       -34.6480   -9.8330  -16.2800 C.3    55  MET55       0.1702
     41  C        -35.6540  -10.6050  -17.1540 C.2    55  MET55       0.2592
     42  O        -36.4330  -10.0020  -17.9090 O.2    55  MET55      -0.2718
     43  CB       -33.2040  -10.1110  -16.7100 C.3    55  MET55       0.0401
     44  CG       -32.9540  -10.0900  -18.1880 C.3    55  MET55       0.0596
     45  SD       -32.8650   -8.3910  -18.7020 S.3    55  MET55      -0.1393
     46  CE       -32.5710   -8.5790  -20.4640 C.3    55  MET55       0.0692
     47  N        -35.6320  -11.9360  -17.0450 N.am   56  TYR56      -0.1976
     48  CA       -36.5930  -12.7850  -17.7550 C.3    56  TYR56       0.1639
     49  C        -38.0090  -12.3060  -17.4510 C.2    56  TYR56       0.2290
     50  O        -38.7860  -11.9810  -18.3720 O.2    56  TYR56      -0.2864
     51  CB       -36.4600  -14.2390  -17.3030 C.3    56  TYR56       0.0560
     52  CG       -35.5280  -15.1080  -18.1220 C.ar   56  TYR56      -0.0198
     53  CD1      -34.4580  -15.7850  -17.5150 C.ar   56  TYR56      -0.0009
     54  CD2      -35.7210  -15.2710  -19.5050 C.ar   56  TYR56      -0.0009
     55  CE1      -33.6080  -16.6010  -18.2670 C.ar   56  TYR56       0.0417
     56  CE2      -34.8810  -16.0820  -20.2630 C.ar   56  TYR56       0.0417
     57  CZ       -33.8450  -16.7570  -19.6400 C.ar   56  TYR56       0.1957
     58  OH       -33.0140  -17.5410  -20.3790 O.3    56  TYR56      -0.2866
     59  N        -37.8750   -7.4170  -18.6510 N.3    59  PRO59      -0.2116
     60  CA       -36.6480   -6.8430  -19.2430 C.3    59  PRO59       0.1372
     61  C        -36.4780   -5.3060  -19.2120 C.2    59  PRO59       0.2244
     62  O        -35.3660   -4.8080  -19.0310 O.2    59  PRO59      -0.2868
     63  CB       -36.7120   -7.3270  -20.6970 C.3    59  PRO59       0.0268
     64  CG       -38.1720   -7.5420  -20.9540 C.3    59  PRO59       0.0207
     65  CD       -38.6500   -8.1530  -19.6690 C.3    59  PRO59       0.0892
     66  N        -28.8650   -5.7310  -15.2620 N.3    66  PHE66      -0.1227
     67  CA       -28.3900   -7.0190  -15.7060 C.3    66  PHE66       0.1736
     68  C        -27.1590   -6.8650  -16.5830 C.2    66  PHE66       0.2595
     69  O        -26.1310   -7.5190  -16.3250 O.2    66  PHE66      -0.2718
     70  CB       -29.5270   -7.8110  -16.4020 C.3    66  PHE66       0.0547
     71  CG       -29.0530   -9.0340  -17.1260 C.ar   66  PHE66      -0.0202
     72  CD1      -28.9580  -10.2590  -16.4610 C.ar   66  PHE66      -0.0042
     73  CD2      -28.6800   -8.9670  -18.4670 C.ar   66  PHE66      -0.0042
     74  CE1      -28.4980  -11.3940  -17.1290 C.ar   66  PHE66      -0.0003
     75  CE2      -28.2200  -10.1040  -19.1370 C.ar   66  PHE66      -0.0003
     76  CZ       -28.1260  -11.3100  -18.4680 C.ar   66  PHE66      -0.0000
     77  N        -27.2490   -6.0110  -17.6090 N.am   67  GLN67      -0.1979
     78  CA       -26.1020   -5.7190  -18.4840 C.3    67  GLN67       0.1601
     79  C        -24.8540   -5.2570  -17.7530 C.2    67  GLN67       0.2287
     80  O        -23.7310   -5.7400  -18.0540 O.2    67  GLN67      -0.2864
     81  CB       -26.4260   -4.6800  -19.5460 C.3    67  GLN67       0.0394
     82  CG       -27.2370   -5.1650  -20.7360 C.3    67  GLN67       0.0908
     83  CD       -26.6700   -6.3980  -21.4140 C.2    67  GLN67       0.2608
     84  OE1      -25.5190   -6.4250  -21.8740 O.2    67  GLN67      -0.2717
     85  NE2      -27.4880   -7.4190  -21.5000 N.am   67  GLN67      -0.0878
     86  N        -23.4770   -8.3600  -15.7560 N.3    70  ALA70      -0.1245
     87  CA       -22.9210   -9.3600  -16.6680 C.3    70  ALA70       0.1562
     88  C        -21.5070   -8.9780  -17.0690 C.2    70  ALA70       0.2260
     89  O        -20.6030   -9.8070  -17.0520 O.2    70  ALA70      -0.2867
     90  CB       -23.8360   -9.5450  -17.8880 C.3    70  ALA70       0.0290
     91  N        -17.9640  -10.5090  -16.0520 N.3    74  ARG74      -0.1245
     92  CA       -17.0420  -10.9430  -17.1080 C.3    74  ARG74       0.1563
     93  C        -15.6550  -10.3000  -16.9660 C.2    74  ARG74       0.2260
     94  O        -14.6210  -10.9600  -17.1200 O.2    74  ARG74      -0.2867
     95  CB       -17.5900  -10.6630  -18.5230 C.3    74  ARG74       0.0307
     96  CG       -16.7400  -11.2780  -19.6280 C.3    74  ARG74       0.0489
     97  CD       -17.1000  -10.7650  -21.0320 C.3    74  ARG74       0.2205
     98  NE       -18.5030  -11.0200  -21.3400 N.pl3  74  ARG74      -0.0865
     99  CZ       -19.0280  -12.2180  -21.6080 C.cat  74  ARG74       0.5346
    100  NH1      -18.2730  -13.3330  -21.6570 N.pl3  74  ARG74       0.1354
    101  NH2      -20.3200  -12.2960  -21.8530 N.pl3  74  ARG74       0.1354
    102  N        -17.2780  -15.7460  -25.1940 N.3    98  ARG98      -0.1245
    103  CA       -17.7300  -14.3780  -25.4990 C.3    98  ARG98       0.1563
    104  C        -16.8450  -13.2390  -24.9250 C.2    98  ARG98       0.2260
    105  O        -15.8640  -13.4950  -24.2510 O.2    98  ARG98      -0.2867
    106  CB       -19.2010  -14.1750  -25.1370 C.3    98  ARG98       0.0307
    107  CG       -20.2070  -14.9310  -25.9860 C.3    98  ARG98       0.0489
    108  CD       -21.5410  -14.1900  -25.8630 C.3    98  ARG98       0.2205
    109  NE       -22.6420  -14.7780  -26.6320 N.pl3  98  ARG98      -0.0865
    110  CZ       -23.6570  -15.4640  -26.0960 C.cat  98  ARG98       0.5346
    111  NH1      -23.7170  -15.6560  -24.7930 N.pl3  98  ARG98       0.1354
    112  NH2      -24.6260  -15.9520  -26.8570 N.pl3  98  ARG98       0.1354
    113  N        -21.0930   -8.2230  -24.9700 N.3   103  ASP103     -0.1239
    114  CA       -21.9140   -7.6200  -23.9350 C.3   103  ASP103      0.1674
    115  C        -22.6440   -6.3630  -24.4230 C.2   103  ASP103      0.2266
    116  O        -23.8550   -6.2370  -24.2340 O.2   103  ASP103     -0.2867
    117  CB       -21.0420   -7.2850  -22.7250 C.3   103  ASP103      0.1410
    118  CG       -20.6600   -8.5160  -21.9200 C.2   103  ASP103      0.3668
    119  OD1      -21.4390   -9.4990  -21.8820 O.co2 103  ASP103     -0.2456
    120  OD2      -19.5860   -8.4910  -21.2820 O.co2 103  ASP103     -0.2456
    121  N        -25.5330   -7.5830  -27.2110 N.3   107  PHE107     -0.1241
    122  CA       -26.5980   -7.7170  -26.2310 C.3   107  PHE107      0.1605
    123  C        -27.1210   -6.3730  -25.7230 C.2   107  PHE107      0.2264
    124  O        -28.2870   -6.0700  -25.9180 O.2   107  PHE107     -0.2867
    125  CB       -26.2460   -8.7460  -25.1600 C.3   107  PHE107      0.0534
    126  CG       -25.8850  -10.0840  -25.7560 C.ar  107  PHE107     -0.0203
    127  CD1      -24.5690  -10.3980  -26.0350 C.ar  107  PHE107     -0.0042
    128  CD2      -26.8810  -10.9920  -26.1350 C.ar  107  PHE107     -0.0042
    129  CE1      -24.2320  -11.6170  -26.6240 C.ar  107  PHE107     -0.0003
    130  CE2      -26.5540  -12.2150  -26.7100 C.ar  107  PHE107     -0.0003
    131  CZ       -25.2260  -12.5270  -26.9650 C.ar  107  PHE107     -0.0000
    132  N        -30.9230   -4.6870  -26.6530 N.3   111  LEU111     -0.1245
    133  CA       -31.9530   -4.2950  -25.6940 C.3   111  LEU111      0.1561
    134  C        -32.3110   -2.8330  -25.9130 C.2   111  LEU111      0.2260
    135  O        -33.4740   -2.4890  -25.8970 O.2   111  LEU111     -0.2867
    136  CB       -31.5700   -4.6180  -24.2460 C.3   111  LEU111      0.0270
    137  CG       -31.4440   -6.1370  -24.0550 C.3   111  LEU111      0.0019
    138  CD1      -30.3240   -6.5120  -23.1060 C.3   111  LEU111      0.0001
    139  CD2      -32.7390   -6.7600  -23.5840 C.3   111  LEU111      0.0001
    140  N        -34.4360   -2.9040  -28.7580 N.3   114  SER114     -0.1217
    141  CA       -35.7150   -3.5550  -28.4510 C.3   114  SER114      0.1889
    142  C        -36.5200   -2.6850  -27.5370 C.2   114  SER114      0.2288
    143  O        -37.5510   -3.1260  -27.0340 O.2   114  SER114     -0.2866
    144  CB       -35.5320   -4.9260  -27.7960 C.3   114  SER114      0.2089
    145  OG       -34.7970   -5.7980  -28.6380 O.3   114  SER114     -0.2183
    146  N        -35.9360   -1.9540  -24.5830 N.3   116  SER116     -0.1217
    147  CA       -35.8820   -2.4870  -23.2120 C.3   116  SER116      0.1889
    148  C        -34.9320   -1.6050  -22.3600 C.2   116  SER116      0.2288
    149  O        -34.8140   -1.7810  -21.1470 O.2   116  SER116     -0.2866
    150  CB       -35.4200   -3.9660  -23.2110 C.3   116  SER116      0.2089
    151  OG       -36.0590   -4.7430  -24.2330 O.3   116  SER116     -0.2183
    152  N        -32.5520  -26.4180  -19.6880 N.3   164  ARG164     -0.1245
    153  CA       -32.7160  -25.3900  -18.6270 C.3   164  ARG164      0.1563
    154  C        -34.1530  -24.8740  -18.5610 C.2   164  ARG164      0.2260
    155  O        -34.5900  -24.0950  -19.4270 O.2   164  ARG164     -0.2867
    156  CB       -31.7980  -24.1760  -18.8470 C.3   164  ARG164      0.0307
    157  CG       -30.3280  -24.4240  -18.5670 C.3   164  ARG164      0.0489
    158  CD       -29.5330  -23.5320  -19.4890 C.3   164  ARG164      0.2205
    159  NE       -28.0910  -23.7060  -19.4100 N.pl3 164  ARG164     -0.0865
    160  CZ       -27.2490  -22.7730  -19.8310 C.cat 164  ARG164      0.5346
    161  NH1      -27.7320  -21.6330  -20.3150 N.pl3 164  ARG164      0.1354
    162  NH2      -25.9410  -22.9470  -19.7470 N.pl3 164  ARG164      0.1354
    163  N        -35.2330  -21.2850  -19.8430 N.3   167  GLU167     -0.1245
    164  CA       -34.9020  -20.8870  -21.2330 C.3   167  GLU167      0.1567
    165  C        -35.9810  -21.2860  -22.2590 C.2   167  GLU167      0.2260
    166  O        -35.9680  -20.8280  -23.4090 O.2   167  GLU167     -0.2867
    167  CB       -33.5260  -21.4620  -21.6400 C.3   167  GLU167      0.0388
    168  CG       -32.3040  -20.7570  -20.9990 C.3   167  GLU167      0.1160
    169  CD       -30.9990  -21.0550  -21.7360 C.2   167  GLU167      0.3649
    170  OE1      -31.0130  -22.0020  -22.5550 O.co2 167  GLU167     -0.2457
    171  OE2      -29.9660  -20.3420  -21.5130 O.co2 167  GLU167     -0.2457
    172  N        -37.8120  -18.8170  -24.7860 N.3   170  ILE170     -0.1231
    173  CA       -37.1410  -18.0330  -25.8380 C.3   170  ILE170      0.1678
    174  C        -37.7070  -18.3910  -27.2170 C.2   170  ILE170      0.2434
    175  O        -37.6190  -19.5410  -27.6580 O.2   170  ILE170     -0.2733
    176  CB       -35.6020  -18.0820  -25.7500 C.3   170  ILE170      0.0265
    177  CG1      -35.1380  -17.2410  -24.5520 C.3   170  ILE170      0.0019
    178  CG2      -34.9810  -17.5390  -27.0390 C.3   170  ILE170      0.0020
    179  CD1      -34.0250  -17.8310  -23.6990 C.3   170  ILE170      0.0001
    180  N        -38.3340  -17.4000  -27.8790 N.am  171  PRO171     -0.2729
    181  CA       -39.0250  -17.5830  -29.1590 C.3   171  PRO171      0.1401
    182  C        -38.0480  -17.4160  -30.2940 C.2   171  PRO171      0.2269
    183  O        -36.9370  -16.9560  -30.0590 O.2   171  PRO171     -0.2865
    184  CB       -40.0790  -16.4510  -29.1580 C.3   171  PRO171      0.0296
    185  CG       -39.8490  -15.6500  -27.8900 C.3   171  PRO171      0.0237
    186  CD       -38.4850  -16.0250  -27.3750 C.3   171  PRO171      0.0939
    187  N        -37.8570  -15.3770  -32.7630 N.3   173  GLU173     -0.1231
    188  CA       -37.5350  -13.9970  -33.1990 C.3   173  GLU173      0.1699
    189  C        -36.4130  -13.3220  -32.4220 C.2   173  GLU173      0.2592
    190  O        -35.6730  -12.5010  -32.9760 O.2   173  GLU173     -0.2718
    191  CB       -38.7820  -13.0820  -33.2470 C.3   173  GLU173      0.0402
    192  CG       -38.4760  -11.7090  -33.8630 C.3   173  GLU173      0.1161
    193  CD       -39.6650  -11.0580  -34.5600 C.2   173  GLU173      0.3649
    194  OE1      -40.7650  -11.6550  -34.5700 O.co2 173  GLU173     -0.2457
    195  OE2      -39.5060   -9.9380  -35.1050 O.co2 173  GLU173     -0.2457
    196  N        -36.2890  -13.6500  -31.1390 N.am  174  TYR174     -0.1976
    197  CA       -35.1640  -13.1210  -30.3630 C.3   174  TYR174      0.1639
    198  C        -33.8240  -13.3670  -31.1030 C.2   174  TYR174      0.2290
    199  O        -32.9860  -12.4690  -31.1980 O.2   174  TYR174     -0.2864
    200  CB       -35.1700  -13.7390  -28.9710 C.3   174  TYR174      0.0560
    201  CG       -34.3230  -13.0200  -27.9520 C.ar  174  TYR174     -0.0198
    202  CD1      -33.9760  -11.6760  -28.1180 C.ar  174  TYR174     -0.0009
    203  CD2      -33.9040  -13.6780  -26.7870 C.ar  174  TYR174     -0.0009
    204  CE1      -33.2170  -11.0150  -27.1690 C.ar  174  TYR174      0.0417
    205  CE2      -33.1430  -13.0220  -25.8270 C.ar  174  TYR174      0.0417
    206  CZ       -32.8050  -11.6930  -26.0220 C.ar  174  TYR174      0.1957
    207  OH       -32.0570  -11.0310  -25.0650 O.3   174  TYR174     -0.2866
@<TRIPOS>BOND
     1   195   193   ar
     2   194   193   ar
     3   193   192    1
     4   192   191    1
     5   191   188    1
     6   188   187    1
     7   188   189    1
     8   190   189    2
     9   189   196   am
    10   199   198    2
    11   196   197    1
    12   198   197    1
    13   197   200    1
    14   182   183    2
    15   182   181    1
    16   181   184    1
    17   181   180    1
    18   184   185    1
    19     4     3    2
    20   200   201    1
    21   140   141    1
    22     1     2    1
    23   145   144    1
    24   141   144    1
    25   141   142    1
    26   202   201   ar
    27   202   204   ar
    28     3     2    1
    29   201   203   ar
    30   185   186    1
    31   180   186    1
    32   180   174   am
    33   175   174    2
    34   142   143    2
    35     2     5    1
    36   174   173    1
    37   121   122    1
    38   204   206   ar
    39   178   176    1
    40   131   130   ar
    41   131   129   ar
    42   112   110    1
    43     5     6    1
    44     5     7    1
    45   203   205   ar
    46   130   128   ar
    47   132   133    1
    48   109   110    2
    49   109   108    1
    50   129   127   ar
    51     6     8    1
    52   122   123    1
    53   122   125    1
    54   128   126   ar
    55   110   111    1
    56   127   126   ar
    57   206   205   ar
    58   206   207    1
    59   107   108    1
    60   107   106    1
    61   124   123    2
    62   134   135    2
    63   134   133    1
    64   173   176    1
    65   173   172    1
    66   126   125    1
    67   176   177    1
    68   133   136    1
    69   103   102    1
    70   103   106    1
    71   103   104    1
    72   113   114    1
    73   104   105    2
    74   146   147    1
    75   177   179    1
    76   115   116    2
    77   115   114    1
    78   136   137    1
    79   151   150    1
    80   137   139    1
    81   137   138    1
    82   114   117    1
    83   166   165    2
    84   147   150    1
    85   147   148    1
    86   117   118    1
    87   170   169   ar
    88   148   149    2
    89   165   164    1
    90    16    15   ar
    91   118   119   ar
    92   118   120   ar
    93    17    15   ar
    94    84    83    2
    95   101    99    1
    96   169   171   ar
    97   169   168    1
    98   100    99    1
    99   167   164    1
   100   167   168    1
   101    99    98    2
   102    15    14    1
   103    85    83   am
   104    83    82    1
   105    98    97    1
   106   164   163    1
   107    97    96    1
   108    64    63    1
   109    64    65    1
   110    82    81    1
   111    63    60    1
   112    13    14    1
   113    13    10    1
   114    46    45    1
   115    58    57    1
   116   161   160    1
   117    56    57   ar
   118    56    54   ar
   119   160   162    1
   120   160   159    2
   121   152   153    1
   122    65    59    1
   123     9    10    1
   124    57    55   ar
   125    96    95    1
   126    81    78    1
   127    54    52   ar
   128   158   159    1
   129   158   157    1
   130    10    11    1
   131   155   154    2
   132    60    61    1
   133    60    59    1
   134    61    62    2
   135    75    76   ar
   136    75    73   ar
   137   156   153    1
   138   156   157    1
   139    45    44    1
   140   153   154    1
   141    95    92    1
   142    78    79    1
   143    78    77    1
   144    76    74   ar
   145    73    71   ar
   146    23    22    1
   147    22    24    1
   148    22    19    1
   149    50    49    2
   150    55    53   ar
   151    11    12    2
   152    44    43    1
   153    52    53   ar
   154    52    51    1
   155    80    79    2
   156    42    41    2
   157    90    87    1
   158    30    29    1
   159    48    49    1
   160    48    51    1
   161    48    47    1
   162    77    68   am
   163    20    19    1
   164    20    21    2
   165    29    26    1
   166    19    18    1
   167    37    36    1
   168    41    47   am
   169    41    40    1
   170    74    72   ar
   171    71    72   ar
   172    71    70    1
   173    94    93    2
   174    92    93    1
   175    92    91    1
   176    88    89    2
   177    88    87    1
   178    43    40    1
   179    87    86    1
   180    68    69    2
   181    68    67    1
   182    70    67    1
   183    40    39    1
   184    38    36    1
   185    36    35    1
   186    26    27    1
   187    26    25    1
   188    67    66    1
   189    34    33    2
   190    28    27    2
   191    35    32    1
   192    33    32    1
   193    32    31    1
