@<TRIPOS>MOLECULE
tmp/4kchA02.pdb
 171 167 0 0 0
SMALL
GASTEIGER

@<TRIPOS>ATOM
      1  N          2.8350    8.8390   34.7620 N.3    38  MET38      -0.1230
      2  CA         3.1950    8.4960   33.3810 C.3    38  MET38       0.1702
      3  C          3.0260    9.6450   32.3590 C.2    38  MET38       0.2592
      4  O          3.8700    9.7910   31.4730 O.2    38  MET38      -0.2718
      5  CB         2.5020    7.2040   32.9210 C.3    38  MET38       0.0401
      6  CG         3.0360    5.9700   33.6500 C.3    38  MET38       0.0596
      7  SD         2.9100    4.3710   32.8100 S.3    38  MET38      -0.1393
      8  CE         4.3450    4.3620   31.7350 C.3    38  MET38       0.0692
      9  N          1.9810   10.4690   32.5160 N.am   39  LEU39      -0.1980
     10  CA         1.6390   11.5300   31.5400 C.3    39  LEU39       0.1596
     11  C          1.3550   12.9300   32.1500 C.2    39  LEU39       0.2287
     12  O          0.2120   13.3960   32.1070 O.2    39  LEU39      -0.2864
     13  CB         0.4300   11.0870   30.7000 C.3    39  LEU39       0.0297
     14  CG         0.5100    9.7550   29.9450 C.3    39  LEU39       0.0022
     15  CD1       -0.8570    9.2930   29.4570 C.3    39  LEU39       0.0001
     16  CD2        1.4800    9.8600   28.7820 C.3    39  LEU39       0.0001
     17  N         15.4470    7.5850   28.9910 N.3   106  CYS106     -0.1235
     18  CA        16.1510    6.6300   28.1520 C.3   106  CYS106      0.1677
     19  C         17.4980    6.2440   28.7620 C.2   106  CYS106      0.2270
     20  O         18.3900    7.0890   28.9320 O.2   106  CYS106     -0.2867
     21  CB        16.3580    7.2110   26.7440 C.3   106  CYS106      0.0956
     22  SG        17.1140    5.9840   25.6810 S.3   106  CYS106     -0.0801
     23  N          1.8600    1.4210   17.7130 N.3   168  SER168     -0.1202
     24  CA         2.6560    2.0190   18.7770 C.3   168  SER168      0.2020
     25  C          4.1220    1.6000   18.5970 C.2   168  SER168      0.2618
     26  O          5.0280    2.3370   18.9470 O.2   168  SER168     -0.2717
     27  CB         2.1260    1.6100   20.1530 C.3   168  SER168      0.2103
     28  OG         2.0850    0.1990   20.2720 O.3   168  SER168     -0.2182
     29  N          4.3400    0.4230   18.0180 N.am  169  GLN169     -0.1979
     30  CA         5.6820    0.0060   17.5890 C.3   169  GLN169      0.1601
     31  C          5.5300   -0.6030   16.1980 C.2   169  GLN169      0.2287
     32  O          4.4440   -1.0640   15.8370 O.2   169  GLN169     -0.2864
     33  CB         6.2780   -1.0250   18.5360 C.3   169  GLN169      0.0394
     34  CG         6.5840   -0.5200   19.9290 C.3   169  GLN169      0.0908
     35  CD         6.9740   -1.6470   20.8570 C.2   169  GLN169      0.2608
     36  OE1        7.7480   -2.5490   20.4780 O.2   169  GLN169     -0.2717
     37  NE2        6.4210   -1.6340   22.0570 N.am  169  GLN169     -0.0878
     38  N          4.8610   -5.5500   16.5820 N.3   172  ARG172     -0.1245
     39  CA         4.2240   -6.0300   17.8020 C.3   172  ARG172      0.1563
     40  C          3.3870   -7.2690   17.4740 C.2   172  ARG172      0.2260
     41  O          3.0360   -7.5020   16.3050 O.2   172  ARG172     -0.2867
     42  CB         3.3120   -4.9630   18.4140 C.3   172  ARG172      0.0307
     43  CG         4.0370   -3.9090   19.2120 C.3   172  ARG172      0.0489
     44  CD         3.1260   -3.2980   20.2620 C.3   172  ARG172      0.2205
     45  NE         3.3890   -3.8460   21.5910 N.pl3 172  ARG172     -0.0865
     46  CZ         2.9790   -3.2760   22.7270 C.cat 172  ARG172      0.5346
     47  NH1        2.2880   -2.1390   22.7120 N.pl3 172  ARG172      0.1354
     48  NH2        3.2610   -3.8370   23.8950 N.pl3 172  ARG172      0.1354
     49  N         13.0720   -3.4260   18.5710 N.3   256  PRO256     -0.2116
     50  CA        12.1220   -2.5260   19.1740 C.3   256  PRO256      0.1372
     51  C         12.1610   -1.2050   18.4090 C.2   256  PRO256      0.2244
     52  O         13.2350   -0.6880   18.1370 O.2   256  PRO256     -0.2868
     53  CB        12.6520   -2.3680   20.6050 C.3   256  PRO256      0.0268
     54  CG        14.1470   -2.5060   20.4400 C.3   256  PRO256      0.0207
     55  CD        14.3570   -3.4620   19.2970 C.3   256  PRO256      0.0892
     56  N          9.8060    2.3240   18.1780 N.3   258  VAL258     -0.1245
     57  CA         8.6970    3.0560   18.7300 C.3   258  VAL258      0.1561
     58  C          8.2090    3.9580   17.6540 C.2   258  VAL258      0.2260
     59  O          9.0140    4.6640   17.0180 O.2   258  VAL258     -0.2867
     60  CB         9.1440    3.8650   19.9520 C.3   258  VAL258      0.0252
     61  CG1        8.0640    4.8780   20.3780 C.3   258  VAL258      0.0019
     62  CG2        9.4890    2.9040   21.1000 C.3   258  VAL258      0.0019
     63  N          4.8800    5.7560   17.7920 N.3   260  ASN260     -0.1225
     64  CA         3.7750    6.6560   18.1280 C.3   260  ASN260      0.1785
     65  C          4.1790    7.9960   18.7370 C.2   260  ASN260      0.2597
     66  O          3.3290    8.7450   19.1700 O.2   260  ASN260     -0.2718
     67  CB         2.7070    5.9650   19.0100 C.3   260  ASN260      0.1169
     68  CG         3.2480    5.4500   20.3550 C.2   260  ASN260      0.2627
     69  OD1        2.4620    4.9670   21.1610 O.2   260  ASN260     -0.2716
     70  ND2        4.5720    5.5250   20.5990 N.am  260  ASN260     -0.0877
     71  N          5.4640    8.3270   18.7470 N.am  261  MET261     -0.1979
     72  CA         5.8350    9.5690   19.4190 C.3   261  MET261      0.1605
     73  C          5.9590   10.7440   18.4540 C.2   261  MET261      0.2287
     74  O          5.9800   10.5570   17.2320 O.2   261  MET261     -0.2864
     75  CB         7.0780    9.3730   20.2580 C.3   261  MET261      0.0413
     76  CG         6.8260    8.4660   21.4560 C.3   261  MET261      0.0598
     77  SD         8.2900    8.4360   22.5220 S.3   261  MET261     -0.1393
     78  CE         7.8100    9.7410   23.6640 C.3   261  MET261      0.0692
     79  N         11.3600    5.2760   15.4490 N.3   275  PHE275     -0.1227
     80  CA        12.7660    5.1020   15.7900 C.3   275  PHE275      0.1736
     81  C         12.9720    3.7730   16.4890 C.2   275  PHE275      0.2596
     82  O         12.0660    3.2510   17.1410 O.2   275  PHE275     -0.2718
     83  CB        13.2690    6.2380   16.6810 C.3   275  PHE275      0.0547
     84  CG        12.5350    6.3850   17.9940 C.ar  275  PHE275     -0.0202
     85  CD1       12.9360    5.6810   19.1110 C.ar  275  PHE275     -0.0042
     86  CD2       11.4580    7.2700   18.1140 C.ar  275  PHE275     -0.0042
     87  CE1       12.2890    5.8430   20.3420 C.ar  275  PHE275     -0.0003
     88  CE2       10.8000    7.4360   19.3220 C.ar  275  PHE275     -0.0003
     89  CZ        11.2280    6.7430   20.4500 C.ar  275  PHE275     -0.0000
     90  N         14.1910    3.2630   16.3770 N.am  276  SER276     -0.1938
     91  CA        14.5050    1.9240   16.7770 C.3   276  SER276      0.2055
     92  C         15.9340    1.9120   17.2550 C.2   276  SER276      0.2644
     93  O         16.7020    2.7510   16.8510 O.2   276  SER276     -0.2714
     94  CB        14.3030    0.9380   15.6060 C.3   276  SER276      0.2130
     95  OG        15.3030    1.0540   14.6000 O.3   276  SER276     -0.2179
     96  N         16.2570    0.9730   18.1440 N.am  277  GLY277     -0.1939
     97  CA        17.6090    0.7500   18.6110 C.3   277  GLY277      0.2014
     98  C         17.6610   -0.7470   18.8650 C.2   277  GLY277      0.2639
     99  O         17.5990   -1.5310   17.9270 O.2   277  GLY277     -0.2714
    100  N         17.7340   -1.1320   20.1390 N.am  278  TRP278     -0.1959
    101  CA        17.7370   -2.5300   20.5480 C.3   278  TRP278      0.1771
    102  C         17.2830   -2.7050   21.9860 C.2   278  TRP278      0.2619
    103  O         17.2060   -1.7610   22.7790 O.2   278  TRP278     -0.2715
    104  CB        19.1100   -3.1840   20.3260 C.3   278  TRP278      0.0590
    105  CG        20.2480   -2.5480   21.0770 C.ar  278  TRP278      0.0006
    106  CD1       20.5410   -2.6570   22.4410 C.ar  278  TRP278      0.0946
    107  CD2       21.3060   -1.6880   20.5270 C.ar  278  TRP278      0.0152
    108  NE1       21.6720   -1.9410   22.7560 N.ar  278  TRP278     -0.2442
    109  CE2       22.1690   -1.3230   21.6590 C.ar  278  TRP278      0.0810
    110  CE3       21.6050   -1.1850   19.2540 C.ar  278  TRP278      0.0012
    111  CZ2       23.2940   -0.5130   21.4960 C.ar  278  TRP278      0.0191
    112  CZ3       22.7360   -0.3690   19.1030 C.ar  278  TRP278      0.0001
    113  CH2       23.5660   -0.0530   20.1920 C.ar  278  TRP278      0.0015
    114  N         17.0120   -3.9410   22.3470 N.am  279  TYR279     -0.1974
    115  CA        16.4230   -4.2200   23.6480 C.3   279  TYR279      0.1639
    116  C         17.4010   -4.2690   24.8200 C.2   279  TYR279      0.2290
    117  O         18.5670   -4.6890   24.7020 O.2   279  TYR279     -0.2864
    118  CB        15.6800   -5.5430   23.5660 C.3   279  TYR279      0.0560
    119  CG        14.2260   -5.4440   23.1620 C.ar  279  TYR279     -0.0198
    120  CD1       13.7550   -6.1160   22.0230 C.ar  279  TYR279     -0.0009
    121  CD2       13.3050   -4.7260   23.9330 C.ar  279  TYR279     -0.0009
    122  CE1       12.4140   -6.0700   21.6620 C.ar  279  TYR279      0.0417
    123  CE2       11.9460   -4.6750   23.5820 C.ar  279  TYR279      0.0417
    124  CZ        11.5220   -5.3540   22.4400 C.ar  279  TYR279      0.1957
    125  OH        10.1910   -5.3330   22.0810 O.3   279  TYR279     -0.2866
    126  N         13.0850   -5.6180   29.3410 N.3   283  GLU283     -0.1245
    127  CA        11.8970   -5.1110   28.6390 C.3   283  GLU283      0.1567
    128  C         10.9690   -6.2470   28.1630 C.2   283  GLU283      0.2260
    129  O          9.7390   -6.1450   28.2720 O.2   283  GLU283     -0.2867
    130  CB        12.3020   -4.2680   27.4510 C.3   283  GLU283      0.0388
    131  CG        12.9440   -2.9080   27.7720 C.3   283  GLU283      0.1160
    132  CD        13.3240   -2.1380   26.4930 C.2   283  GLU283      0.3649
    133  OE1       12.4220   -1.4790   25.9750 O.co2 283  GLU283     -0.2457
    134  OE2       14.5000   -2.1860   25.9920 O.co2 283  GLU283     -0.2457
    135  N          8.8260   -7.2340   31.6500 N.3   287  ARG287     -0.1245
    136  CA         7.6080   -6.4670   31.3260 C.3   287  ARG287      0.1563
    137  C          6.6590   -7.1910   30.3490 C.2   287  ARG287      0.2260
    138  O          5.5000   -7.4390   30.6770 O.2   287  ARG287     -0.2867
    139  CB         7.9360   -5.0370   30.8110 C.3   287  ARG287      0.0307
    140  CG         8.7750   -4.1170   31.7340 C.3   287  ARG287      0.0489
    141  CD         8.2630   -3.9380   33.1880 C.3   287  ARG287      0.2205
    142  NE         6.8490   -3.5770   33.2200 N.pl3 287  ARG287     -0.0865
    143  CZ         6.3640   -2.3450   33.0040 C.cat 287  ARG287      0.5346
    144  NH1        7.1890   -1.3140   32.7890 N.pl3 287  ARG287      0.1354
    145  NH2        5.0370   -2.1330   33.0320 N.pl3 287  ARG287      0.1354
    146  N         12.2040    5.7500   35.6040 N.3   369  TRP369     -0.1241
    147  CA        12.2570    5.0200   34.3290 C.3   369  TRP369      0.1605
    148  C         13.5810    4.3850   34.0420 C.2   369  TRP369      0.2264
    149  O         13.6240    3.3410   33.3890 O.2   369  TRP369     -0.2867
    150  CB        11.8450    5.9270   33.1600 C.3   369  TRP369      0.0550
    151  CG        10.3460    5.9310   32.9050 C.ar  369  TRP369      0.0003
    152  CD1        9.3270    6.3920   33.7520 C.ar  369  TRP369      0.0946
    153  CD2        9.6610    5.4320   31.7000 C.ar  369  TRP369      0.0152
    154  NE1        8.0870    6.2000   33.1690 N.ar  369  TRP369     -0.2442
    155  CE2        8.2310    5.6400   31.9190 C.ar  369  TRP369      0.0810
    156  CE3       10.0820    4.8590   30.5120 C.ar  369  TRP369      0.0012
    157  CZ2        7.2940    5.2950   30.9640 C.ar  369  TRP369      0.0191
    158  CZ3        9.1250    4.5090   29.5430 C.ar  369  TRP369      0.0001
    159  CH2        7.7620    4.7180   29.7710 C.ar  369  TRP369      0.0015
    160  N          4.7290   12.5180   23.8600 N.3   397  TYR397     -0.1241
    161  CA         3.6000   11.6710   23.5500 C.3   397  TYR397      0.1605
    162  C          2.5610   12.4580   22.7800 C.2   397  TYR397      0.2264
    163  O          2.5850   13.6910   22.7440 O.2   397  TYR397     -0.2867
    164  CB         2.9600   11.1260   24.8200 C.3   397  TYR397      0.0534
    165  CG         3.9150   10.4380   25.7520 C.ar  397  TYR397     -0.0201
    166  CD1        4.2000   11.0030   27.0070 C.ar  397  TYR397     -0.0009
    167  CD2        4.5410    9.2280   25.4000 C.ar  397  TYR397     -0.0009
    168  CE1        5.0630   10.3840   27.8980 C.ar  397  TYR397      0.0417
    169  CE2        5.4210    8.6010   26.2860 C.ar  397  TYR397      0.0417
    170  CZ         5.6730    9.1890   27.5270 C.ar  397  TYR397      0.1957
    171  OH         6.5180    8.6120   28.4420 O.3   397  TYR397     -0.2866
@<TRIPOS>BOND
     1    95    94    1
     2    79    80    1
     3    94    91    1
     4    80    81    1
     5    80    83    1
     6    32    31    2
     7    31    30    1
     8    41    40    2
     9    90    81   am
    10    90    91    1
    11    81    82    2
    12    38    39    1
    13    83    84    1
    14    91    92    1
    15    93    92    2
    16    59    58    2
    17    74    73    2
    18    92    96   am
    19    40    39    1
    20    30    29    1
    21    30    33    1
    22    58    57    1
    23    23    24    1
    24    63    64    1
    25    39    42    1
    26    99    98    2
    27    84    86   ar
    28    84    85   ar
    29    29    25   am
    30    86    88   ar
    31    64    65    1
    32    64    67    1
    33    52    51    2
    34    96    97    1
    35    56    57    1
    36    51    50    1
    37    42    43    1
    38    73    72    1
    39    33    34    1
    40    49    50    1
    41    49    55    1
    42    25    24    1
    43    25    26    2
    44    97    98    1
    45    57    60    1
    46    65    71   am
    47    65    66    2
    48    71    72    1
    49    24    27    1
    50    98   100   am
    51    67    68    1
    52   112   110   ar
    53   112   113   ar
    54    85    87   ar
    55    50    53    1
    56    43    44    1
    57   110   107   ar
    58    55    54    1
    59    88    89   ar
    60    72    75    1
    61    34    35    1
    62    60    61    1
    63    60    62    1
    64   100   101    1
    65    27    28    1
    66   113   111   ar
    67    75    76    1
    68    44    45    1
    69   104   101    1
    70   104   105    1
    71    87    89   ar
    72    68    70   am
    73    68    69    2
    74    54    53    1
    75    36    35    2
    76   107   105   ar
    77   107   109   ar
    78   101   102    1
    79    35    37   am
    80   105   106   ar
    81    76    77    1
    82   111   109   ar
    83    45    46    2
    84   109   108   ar
    85   122   120   ar
    86   122   124   ar
    87   102   114   am
    88   102   103    2
    89   120   119   ar
    90   125   124    1
    91   114   115    1
    92   124   123   ar
    93   106   108   ar
    94    77    78    1
    95    47    46    1
    96    46    48    1
    97   163   162    2
    98   162   161    1
    99   119   118    1
   100   119   121   ar
   101   161   160    1
   102   161   164    1
   103   118   115    1
   104   123   121   ar
   105   115   116    1
   106   117   116    2
   107   164   165    1
   108   167   165   ar
   109   167   169   ar
   110    22    21    1
   111   165   166   ar
   112   133   132   ar
   113   134   132   ar
   114   169   170   ar
   115   132   131    1
   116    21    18    1
   117   166   168   ar
   118   130   131    1
   119   130   127    1
   120   170   168   ar
   121   170   171    1
   122    18    19    1
   123    18    17    1
   124   128   129    2
   125   128   127    1
   126   127   126    1
   127    19    20    2
   128    16    14    1
   129    15    14    1
   130   158   159   ar
   131   158   156   ar
   132   159   157   ar
   133    14    13    1
   134   137   138    2
   135   137   136    1
   136   156   153   ar
   137    13    10    1
   138   139   136    1
   139   139   140    1
   140   157   155   ar
   141   136   135    1
   142     4     3    2
   143    10    11    1
   144    10     9    1
   145   153   155   ar
   146   153   151   ar
   147   140   141    1
   148     8     7    1
   149   155   154   ar
   150    12    11    2
   151     3     9   am
   152     3     2    1
   153   144   143    1
   154     7     6    1
   155   151   150    1
   156   151   152   ar
   157     5     2    1
   158     5     6    1
   159   143   145    1
   160   143   142    2
   161   150   147    1
   162   154   152   ar
   163   141   142    1
   164     2     1    1
   165   149   148    2
   166   148   147    1
   167   147   146    1
