@<TRIPOS>MOLECULE
tmp/4kciB03.pdb
 198 194 0 0 0
SMALL
GASTEIGER

@<TRIPOS>ATOM
      1  N         17.6990   12.4100   47.6570 N.3    38  MET38      -0.1230
      2  CA        17.5420   11.8760   49.0370 C.3    38  MET38       0.1702
      3  C         17.0740   12.9130   50.0920 C.2    38  MET38       0.2592
      4  O         16.2260   12.5940   50.9200 O.2    38  MET38      -0.2718
      5  CB        18.8490   11.2050   49.5170 C.3    38  MET38       0.0401
      6  CG        18.6570   10.1320   50.5840 C.3    38  MET38       0.0596
      7  SD        18.7700    8.4520   49.9140 S.3    38  MET38      -0.1393
      8  CE        20.4750    8.3660   49.4050 C.3    38  MET38       0.0692
      9  N         17.6510   14.1160   50.0810 N.am   39  LEU39      -0.1980
     10  CA        17.2890   15.2050   51.0160 C.3    39  LEU39       0.1596
     11  C         17.2980   16.5180   50.2170 C.2    39  LEU39       0.2287
     12  O         18.3500   17.1330   50.0540 O.2    39  LEU39      -0.2864
     13  CB        18.2730   15.3150   52.2180 C.3    39  LEU39       0.0297
     14  CG        19.4470   14.3420   52.5060 C.3    39  LEU39       0.0022
     15  CD1       20.6560   15.1040   53.0550 C.3    39  LEU39       0.0001
     16  CD2       19.0780   13.2000   53.4600 C.3    39  LEU39       0.0001
     17  N          3.5380    9.1700   61.4760 N.3   102  TRP102     -0.1241
     18  CA         3.7470    7.8800   60.8060 C.3   102  TRP102      0.1605
     19  C          2.8580    7.8090   59.6090 C.2   102  TRP102      0.2264
     20  O          3.3220    7.5720   58.4780 O.2   102  TRP102     -0.2867
     21  CB         3.5550    6.7370   61.7730 C.3   102  TRP102      0.0550
     22  CG         3.7590    5.3710   61.1850 C.ar  102  TRP102      0.0003
     23  CD1        4.2800    5.0570   59.9480 C.ar  102  TRP102      0.0946
     24  CD2        3.4590    4.0780   61.8030 C.ar  102  TRP102      0.0152
     25  NE1        4.3270    3.7200   59.7720 N.ar  102  TRP102     -0.2442
     26  CE2        3.8600    3.0660   60.8220 C.ar  102  TRP102      0.0810
     27  CE3        2.8900    3.6610   63.0260 C.ar  102  TRP102      0.0012
     28  CZ2        3.6960    1.7090   61.0520 C.ar  102  TRP102      0.0191
     29  CZ3        2.7590    2.2750   63.2700 C.ar  102  TRP102      0.0001
     30  CH2        3.1890    1.3220   62.3300 C.ar  102  TRP102      0.0015
     31  N          7.0190    5.3800   53.5410 N.3   108  CYS108     -0.1235
     32  CA         6.7700    4.1730   54.3800 C.3   108  CYS108      0.1677
     33  C          5.7340    3.2220   53.8030 C.2   108  CYS108      0.2270
     34  O          4.5520    3.5580   53.6830 O.2   108  CYS108     -0.2867
     35  CB         6.2980    4.5440   55.7910 C.3   108  CYS108      0.0956
     36  SG         6.2410    3.1440   56.9530 S.3   108  CYS108     -0.0801
     37  N         20.3290    3.7960   64.4210 N.3   171  GLN171     -0.1245
     38  CA        19.2940    2.9030   64.9170 C.3   171  GLN171      0.1566
     39  C         19.7580    2.3750   66.2620 C.2   171  GLN171      0.2260
     40  O         20.9470    2.4010   66.5440 O.2   171  GLN171     -0.2867
     41  CB        18.9900    1.7310   63.9870 C.3   171  GLN171      0.0367
     42  CG        18.5830    2.0990   62.5760 C.3   171  GLN171      0.0905
     43  CD        18.7500    0.9350   61.6050 C.2   171  GLN171      0.2608
     44  OE1       18.4560   -0.2420   61.9200 O.2   171  GLN171     -0.2717
     45  NE2       19.2430    1.2570   60.4200 N.am  171  GLN171     -0.0878
     46  N         22.5790   -1.8620   65.9480 N.3   174  ARG174     -0.1245
     47  CA        23.3320   -1.9880   64.7090 C.3   174  ARG174      0.1563
     48  C         24.6950   -2.5680   64.9740 C.2   174  ARG174      0.2260
     49  O         25.2450   -2.4010   66.0800 O.2   174  ARG174     -0.2867
     50  CB        23.5160   -0.6030   64.0590 C.3   174  ARG174      0.0307
     51  CG        22.3980   -0.1950   63.1040 C.3   174  ARG174      0.0489
     52  CD        22.7910    0.9650   62.2090 C.3   174  ARG174      0.2205
     53  NE        22.6520    0.6410   60.8020 N.pl3 174  ARG174     -0.0865
     54  CZ        22.7940    1.5160   59.8200 C.cat 174  ARG174      0.5346
     55  NH1       23.0410    2.7760   60.0980 N.pl3 174  ARG174      0.1354
     56  NH2       22.6980    1.1390   58.5530 N.pl3 174  ARG174      0.1354
     57  N         14.1510   -3.4280   63.9200 N.3   258  PRO258     -0.2116
     58  CA        14.6410   -2.2310   63.2940 C.3   258  PRO258      0.1372
     59  C         14.0770   -1.0570   64.0710 C.2   258  PRO258      0.2244
     60  O         12.8910   -1.0060   64.3120 O.2   258  PRO258     -0.2868
     61  CB        14.0630   -2.3040   61.8850 C.3   258  PRO258      0.0268
     62  CG        12.8000   -3.0810   62.0500 C.3   258  PRO258      0.0207
     63  CD        13.0380   -4.0300   63.1690 C.3   258  PRO258      0.0892
     64  N         14.6500    3.1480   64.3650 N.3   260  VAL260     -0.1245
     65  CA        15.3160    4.3240   63.8180 C.3   260  VAL260      0.1561
     66  C         15.3460    5.3690   64.8860 C.2   260  VAL260      0.2260
     67  O         14.3520    5.6140   65.4950 O.2   260  VAL260     -0.2867
     68  CB        14.5970    4.8020   62.5600 C.3   260  VAL260      0.0252
     69  CG1       15.0630    6.1980   62.1450 C.3   260  VAL260      0.0019
     70  CG2       14.7790    3.7570   61.4250 C.3   260  VAL260      0.0019
     71  N         17.3210    8.4960   64.7180 N.3   262  ASN262     -0.1225
     72  CA        17.9370    9.7490   64.3070 C.3   262  ASN262      0.1785
     73  C         17.0230   10.7820   63.6120 C.2   262  ASN262      0.2597
     74  O         17.5090   11.7960   63.1490 O.2   262  ASN262     -0.2718
     75  CB        19.2150    9.5060   63.4890 C.3   262  ASN262      0.1169
     76  CG        18.9810    8.8580   62.1390 C.2   262  ASN262      0.2627
     77  OD1       17.8750    8.4110   61.7200 O.2   262  ASN262     -0.2716
     78  ND2       20.0870    8.7520   61.4350 N.am  262  ASN262     -0.0877
     79  N         15.7060   10.5690   63.6450 N.am  263  MET263     -0.1979
     80  CA        14.8100   11.4850   62.9850 C.3   263  MET263      0.1605
     81  C         14.2360   12.4510   63.9890 C.2   263  MET263      0.2287
     82  O         14.4070   12.2780   65.1780 O.2   263  MET263     -0.2864
     83  CB        13.7490   10.7290   62.1940 C.3   263  MET263      0.0413
     84  CG        14.3700    9.9680   61.0230 C.3   263  MET263      0.0598
     85  SD        13.1000    9.2290   59.9830 S.3   263  MET263     -0.1393
     86  CE        12.9100   10.6490   58.8670 C.3   263  MET263      0.0692
     87  N         11.7680    5.1140   66.9850 N.3   277  PHE277     -0.1227
     88  CA        10.5790    4.2970   66.6790 C.3   277  PHE277      0.1736
     89  C         11.0550    2.9690   66.0770 C.2   277  PHE277      0.2596
     90  O         12.1390    2.8630   65.5490 O.2   277  PHE277     -0.2718
     91  CB         9.6090    5.0460   65.7670 C.3   277  PHE277      0.0547
     92  CG        10.2010    5.4560   64.4260 C.ar  277  PHE277     -0.0202
     93  CD1       10.1590    4.5830   63.3390 C.ar  277  PHE277     -0.0042
     94  CD2       10.7670    6.6940   64.2430 C.ar  277  PHE277     -0.0042
     95  CE1       10.6760    4.9310   62.1100 C.ar  277  PHE277     -0.0003
     96  CE2       11.3050    7.0480   63.0050 C.ar  277  PHE277     -0.0003
     97  CZ        11.2760    6.1590   61.9520 C.ar  277  PHE277     -0.0000
     98  N         10.2040    1.9740   66.1840 N.am  278  SER278     -0.1938
     99  CA        10.5400    0.6180   65.7950 C.3   278  SER278      0.2055
    100  C          9.2650   -0.0600   65.2540 C.2   278  SER278      0.2644
    101  O          8.1430    0.2930   65.6030 O.2   278  SER278     -0.2714
    102  CB        11.1180   -0.1600   66.9970 C.3   278  SER278      0.2130
    103  OG        10.0720   -0.4750   67.9150 O.3   278  SER278     -0.2179
    104  N          9.4650   -0.9980   64.3490 N.am  279  GLY279     -0.1939
    105  CA         8.3720   -1.7950   63.8340 C.3   279  GLY279      0.2014
    106  C          8.9020   -3.2070   63.5840 C.2   279  GLY279      0.2639
    107  O          9.2560   -3.8930   64.5280 O.2   279  GLY279     -0.2714
    108  N          8.9070   -3.6350   62.3250 N.am  280  TRP280     -0.1959
    109  CA         9.5090   -4.9200   61.8960 C.3   280  TRP280      0.1771
    110  C          9.9810   -4.8250   60.4790 C.2   280  TRP280      0.2620
    111  O          9.5560   -3.9360   59.7460 O.2   280  TRP280     -0.2715
    112  CB         8.5680   -6.1060   62.0230 C.3   280  TRP280      0.0590
    113  CG         7.2350   -5.9620   61.3770 C.ar  280  TRP280      0.0006
    114  CD1        6.9160   -6.1470   60.0420 C.ar  280  TRP280      0.0946
    115  CD2        5.9930   -5.5640   62.0080 C.ar  280  TRP280      0.0152
    116  NE1        5.5840   -5.9470   59.8160 N.ar  280  TRP280     -0.2442
    117  CE2        4.9680   -5.6120   60.9620 C.ar  280  TRP280      0.0810
    118  CE3        5.6060   -5.3360   63.3070 C.ar  280  TRP280      0.0012
    119  CZ2        3.6400   -5.3590   61.2280 C.ar  280  TRP280      0.0191
    120  CZ3        4.2540   -5.0550   63.5720 C.ar  280  TRP280      0.0001
    121  CH2        3.2950   -5.0800   62.5640 C.ar  280  TRP280      0.0015
    122  N         10.8880   -5.7350   60.1140 N.am  281  TYR281     -0.1960
    123  CA        11.5900   -5.6820   58.8460 C.3   281  TYR281      0.1771
    124  C         10.7690   -6.2460   57.7170 C.2   281  TYR281      0.2619
    125  O         10.0320   -7.2220   57.8970 O.2   281  TYR281     -0.2715
    126  CB        12.8450   -6.5160   58.8930 C.3   281  TYR281      0.0574
    127  CG        14.0530   -5.7870   59.3390 C.ar  281  TYR281     -0.0198
    128  CD1       14.7230   -6.1170   60.5230 C.ar  281  TYR281     -0.0009
    129  CD2       14.5800   -4.7830   58.5490 C.ar  281  TYR281     -0.0009
    130  CE1       15.8580   -5.4500   60.8800 C.ar  281  TYR281      0.0417
    131  CE2       15.7190   -4.1660   58.8850 C.ar  281  TYR281      0.0417
    132  CZ        16.3600   -4.5020   60.0400 C.ar  281  TYR281      0.1957
    133  OH        17.4760   -3.7850   60.2950 O.3   281  TYR281     -0.2866
    134  N         10.9260   -5.5960   56.5520 N.am  282  MET282     -0.1977
    135  CA        10.6810   -6.1690   55.2710 C.3   282  MET282      0.1605
    136  C         11.9970   -6.8610   54.8520 C.2   282  MET282      0.2287
    137  O         13.1170   -6.3160   55.0020 O.2   282  MET282     -0.2864
    138  CB        10.2790   -5.1010   54.2710 C.3   282  MET282      0.0413
    139  CG         9.8980   -5.5900   52.8530 C.3   282  MET282      0.0598
    140  SD         8.8610   -4.4370   51.8480 S.3   282  MET282     -0.1393
    141  CE        10.1780   -3.5350   51.0370 C.3   282  MET282      0.0692
    142  N         15.0070   -5.3610   53.0780 N.3   285  GLU285     -0.1245
    143  CA        15.8580   -4.3930   53.7250 C.3   285  GLU285      0.1567
    144  C         17.1440   -5.0500   54.2580 C.2   285  GLU285      0.2260
    145  O         18.1730   -4.3810   54.3410 O.2   285  GLU285     -0.2867
    146  CB        15.1870   -3.6750   54.8600 C.3   285  GLU285      0.0388
    147  CG        13.8210   -2.9810   54.5720 C.3   285  GLU285      0.1160
    148  CD        13.2780   -2.4400   55.8960 C.2   285  GLU285      0.3649
    149  OE1       13.8810   -1.4740   56.3790 O.co2 285  GLU285     -0.2457
    150  OE2       12.3670   -3.0210   56.5130 O.co2 285  GLU285     -0.2457
    151  N         19.6250   -4.7990   50.5890 N.3   289  ARG289     -0.1245
    152  CA        20.3870   -3.6020   50.9570 C.3   289  ARG289      0.1563
    153  C         21.5440   -3.9260   51.9230 C.2   289  ARG289      0.2260
    154  O         22.7170   -3.6350   51.6040 O.2   289  ARG289     -0.2867
    155  CB        19.4670   -2.5240   51.5710 C.3   289  ARG289      0.0307
    156  CG        18.2640   -2.1150   50.7020 C.3   289  ARG289      0.0489
    157  CD        18.5960   -1.7220   49.2470 C.3   289  ARG289      0.2205
    158  NE        19.6300   -0.6880   49.1700 N.pl3 289  ARG289     -0.0865
    159  CZ        19.4460    0.5860   49.5030 C.cat 289  ARG289      0.5346
    160  NH1       18.2660    1.0150   49.8750 N.pl3 289  ARG289      0.1354
    161  NH2       20.4520    1.4580   49.4240 N.pl3 289  ARG289      0.1354
    162  N         27.8660   -2.1300   51.5960 N.3   296  ARG296     -0.1245
    163  CA        27.4600   -2.8170   52.8550 C.3   296  ARG296      0.1563
    164  C         28.2090   -4.2000   53.0430 C.2   296  ARG296      0.2260
    165  O         29.3940   -4.3080   52.6990 O.2   296  ARG296     -0.2867
    166  CB        25.9190   -2.8790   52.9230 C.3   296  ARG296      0.0307
    167  CG        25.2380   -1.4980   52.7960 C.3   296  ARG296      0.0489
    168  CD        25.3910   -0.5750   54.0260 C.3   296  ARG296      0.2205
    169  NE        24.9770   -1.1550   55.3400 N.pl3 296  ARG296     -0.0865
    170  CZ        23.7060   -1.4210   55.7190 C.cat 296  ARG296      0.5346
    171  NH1       22.6670   -1.1560   54.8970 N.pl3 296  ARG296      0.1354
    172  NH2       23.4540   -1.9390   56.9430 N.pl3 296  ARG296      0.1354
    173  N         10.7800    5.4460   46.9560 N.3   371  TRP371     -0.1241
    174  CA        11.0350    4.6660   48.1870 C.3   371  TRP371      0.1605
    175  C         10.0860    3.4820   48.4600 C.2   371  TRP371      0.2264
    176  O         10.4800    2.4330   49.0290 O.2   371  TRP371     -0.2867
    177  CB        11.0680    5.6230   49.4100 C.3   371  TRP371      0.0550
    178  CG        12.3820    6.3500   49.6270 C.ar  371  TRP371      0.0003
    179  CD1       13.0080    7.2920   48.8040 C.ar  371  TRP371      0.0946
    180  CD2       13.2620    6.1750   50.7540 C.ar  371  TRP371      0.0152
    181  NE1       14.2220    7.6710   49.3380 N.ar  371  TRP371     -0.2442
    182  CE2       14.4030    7.0410   50.5330 C.ar  371  TRP371      0.0810
    183  CE3       13.2080    5.4210   51.9040 C.ar  371  TRP371      0.0012
    184  CZ2       15.4230    7.1160   51.4340 C.ar  371  TRP371      0.0191
    185  CZ3       14.2480    5.5130   52.8200 C.ar  371  TRP371      0.0001
    186  CH2       15.3310    6.3340   52.5840 C.ar  371  TRP371      0.0015
    187  N         14.4600   14.6500   58.6930 N.3   399  TYR399     -0.1241
    188  CA        15.8500   14.3870   58.8530 C.3   399  TYR399      0.1605
    189  C         16.4480   15.5090   59.6640 C.2   399  TYR399      0.2264
    190  O         15.8330   16.5850   59.8000 O.2   399  TYR399     -0.2867
    191  CB        16.5550   14.3180   57.5070 C.3   399  TYR399      0.0534
    192  CG        16.2950   13.0740   56.7180 C.ar  399  TYR399     -0.0201
    193  CD1       16.1450   13.1420   55.3290 C.ar  399  TYR399     -0.0009
    194  CD2       16.2420   11.8240   57.3210 C.ar  399  TYR399     -0.0009
    195  CE1       15.9550   11.9960   54.5700 C.ar  399  TYR399      0.0417
    196  CE2       16.0180   10.6870   56.5810 C.ar  399  TYR399      0.0417
    197  CZ        15.8780   10.7810   55.2060 C.ar  399  TYR399      0.1957
    198  OH        15.6760    9.6570   54.4600 O.3   399  TYR399     -0.2866
@<TRIPOS>BOND
     1   173   174    1
     2     1     2    1
     3   174   175    1
     4   174   177    1
     5   175   176    2
     6   179   181   ar
     7   179   178   ar
     8     2     5    1
     9     2     3    1
    10   158   157    1
    11   158   159    2
    12   157   156    1
    13   181   182   ar
    14     8     7    1
    15   177   178    1
    16   161   159    1
    17   159   160    1
    18     5     6    1
    19   178   180   ar
    20     7     6    1
    21    12    11    2
    22     9     3   am
    23     9    10    1
    24     3     4    2
    25    11    10    1
    26   182   180   ar
    27   182   184   ar
    28   151   152    1
    29   156   155    1
    30   180   183   ar
    31   152   155    1
    32   152   153    1
    33    10    13    1
    34   141   140    1
    35   184   186   ar
    36   162   163    1
    37   154   153    2
    38   140   139    1
    39   183   185   ar
    40    13    14    1
    41    14    15    1
    42    14    16    1
    43   186   185   ar
    44   165   164    2
    45   167   166    1
    46   167   168    1
    47   139   138    1
    48   163   166    1
    49   163   164    1
    50   142   143    1
    51    31    32    1
    52    34    33    2
    53   143   144    1
    54   143   146    1
    55    33    32    1
    56   168   169    1
    57   144   145    2
    58   138   135    1
    59    32    35    1
    60   198   197    1
    61   195   197   ar
    62   195   193   ar
    63   147   146    1
    64   147   148    1
    65   136   137    2
    66   136   135    1
    67   171   170    1
    68   197   196   ar
    69   135   134    1
    70   193   192   ar
    71   169   170    2
    72   170   172    1
    73    35    36    1
    74   148   149   ar
    75   148   150   ar
    76   134   124   am
    77   196   194   ar
    78   192   194   ar
    79   192   191    1
    80   191   188    1
    81   124   125    2
    82   124   123    1
    83    20    19    2
    84   129   131   ar
    85   129   127   ar
    86    56    54    1
    87   187   188    1
    88   123   126    1
    89   123   122    1
    90   188   189    1
    91    86    85    1
    92   131   132   ar
    93   126   127    1
    94   127   128   ar
    95    19    18    1
    96   189   190    2
    97   111   110    2
    98    25    23   ar
    99    25    26   ar
   100   116   114   ar
   101   116   117   ar
   102    54    55    1
   103    54    53    2
   104    23    22   ar
   105    85    84    1
   106   132   133    1
   107   132   130   ar
   108   114   113   ar
   109   122   110   am
   110    45    43   am
   111   110   109    1
   112   128   130   ar
   113    53    52    1
   114    18    17    1
   115    18    21    1
   116    26    28   ar
   117    26    24   ar
   118   117   119   ar
   119   117   115   ar
   120    84    83    1
   121    28    30   ar
   122    22    21    1
   123    22    24   ar
   124   119   121   ar
   125   113   115   ar
   126   113   112    1
   127    70    68    1
   128    78    76   am
   129    43    44    2
   130    43    42    1
   131    77    76    2
   132    24    27   ar
   133    61    62    1
   134    61    58    1
   135   109   112    1
   136   109   108    1
   137    97    95   ar
   138    97    96   ar
   139   115   118   ar
   140    62    63    1
   141    95    93   ar
   142    76    75    1
   143    69    68    1
   144    83    80    1
   145    52    51    1
   146   108   106   am
   147    30    29   ar
   148    68    65    1
   149   121   120   ar
   150    42    41    1
   151    80    79    1
   152    80    81    1
   153    96    94   ar
   154    27    29   ar
   155    51    50    1
   156    74    73    2
   157    63    57    1
   158    58    57    1
   159    58    59    1
   160   118   120   ar
   161    93    92   ar
   162    75    72    1
   163   106   105    1
   164   106   107    2
   165    73    79   am
   166    73    72    1
   167    65    64    1
   168    65    66    1
   169   105   104    1
   170    41    38    1
   171    81    82    2
   172    50    47    1
   173    59    60    2
   174    94    92   ar
   175    72    71    1
   176   104   100   am
   177    37    38    1
   178    92    91    1
   179    47    48    1
   180    47    46    1
   181    66    67    2
   182    38    39    1
   183    48    49    2
   184   100   101    2
   185   100    99    1
   186    90    89    2
   187    91    88    1
   188    99    98    1
   189    99   102    1
   190    89    98   am
   191    89    88    1
   192    39    40    2
   193    88    87    1
   194   102   103    1
