@<TRIPOS>MOLECULE
tmp/4kcjB03.pdb
 215 210 0 0 0
SMALL
GASTEIGER

@<TRIPOS>ATOM
      1  N          3.6090    9.1750   61.3390 N.3   102  TRP102     -0.1241
      2  CA         3.8820    7.8880   60.6610 C.3   102  TRP102      0.1605
      3  C          2.9950    7.7940   59.4510 C.2   102  TRP102      0.2264
      4  O          3.4670    7.5090   58.3440 O.2   102  TRP102     -0.2867
      5  CB         3.6780    6.7180   61.5980 C.3   102  TRP102      0.0550
      6  CG         3.8390    5.3120   60.9920 C.ar  102  TRP102      0.0003
      7  CD1        4.3520    4.9530   59.7450 C.ar  102  TRP102      0.0946
      8  CD2        3.5420    4.0340   61.6720 C.ar  102  TRP102      0.0152
      9  NE1        4.3550    3.5540   59.5900 N.ar  102  TRP102     -0.2442
     10  CE2        3.8650    2.9580   60.7180 C.ar  102  TRP102      0.0810
     11  CE3        3.0360    3.6910   62.9280 C.ar  102  TRP102      0.0012
     12  CZ2        3.6860    1.6220   61.0360 C.ar  102  TRP102      0.0191
     13  CZ3        2.8470    2.3290   63.2360 C.ar  102  TRP102      0.0001
     14  CH2        3.1880    1.3170   62.3200 C.ar  102  TRP102      0.0015
     15  N          7.1310    5.4240   53.4760 N.3   108  CYS108     -0.1292
     16  CA         6.8160    4.2050   54.2630 C.3   108  CYS108      0.1363
     17  C          5.7520    3.2900   53.6780 C.3   108  CYS108      0.2019
     18  O          4.4960    3.6250   53.6360 O.3   108  CYS108     -0.2188
     19  CB         6.4780    4.5050   55.7360 C.3   108  CYS108      0.0903
     20  SG         6.1950    3.0080   56.7280 S.3   108  CYS108     -0.0805
     21  N         22.2020    5.6610   64.6900 N.3   170  SER170     -0.1202
     22  CA        21.2470    5.8570   63.6420 C.3   170  SER170      0.2020
     23  C         20.0330    4.9120   63.7740 C.2   170  SER170      0.2618
     24  O         18.9590    5.2920   63.3780 O.2   170  SER170     -0.2717
     25  CB        21.9430    5.8580   62.2730 C.3   170  SER170      0.2103
     26  OG        22.3890    4.5700   61.9610 O.3   170  SER170     -0.2182
     27  N         20.2170    3.7060   64.3420 N.am  171  GLN171     -0.1979
     28  CA        19.1390    2.8160   64.7770 C.3   171  GLN171      0.1601
     29  C         19.6190    2.2760   66.1220 C.2   171  GLN171      0.2287
     30  O         20.8350    2.2330   66.3690 O.2   171  GLN171     -0.2864
     31  CB        18.9230    1.6300   63.8210 C.3   171  GLN171      0.0394
     32  CG        18.7210    2.0030   62.3490 C.3   171  GLN171      0.0908
     33  CD        18.7100    0.8170   61.3770 C.2   171  GLN171      0.2608
     34  OE1       18.6090   -0.3580   61.7590 O.2   171  GLN171     -0.2717
     35  NE2       18.7960    1.1310   60.1050 N.am  171  GLN171     -0.0878
     36  N         22.4350   -1.9920   65.8120 N.3   174  ARG174     -0.1245
     37  CA        23.1610   -1.9710   64.5580 C.3   174  ARG174      0.1563
     38  C         24.5180   -2.5670   64.8180 C.2   174  ARG174      0.2260
     39  O         25.0150   -2.5040   65.9530 O.2   174  ARG174     -0.2867
     40  CB        23.2990   -0.5230   64.0270 C.3   174  ARG174      0.0307
     41  CG        22.2350   -0.1010   63.0100 C.3   174  ARG174      0.0489
     42  CD        22.8180    0.7750   61.8920 C.3   174  ARG174      0.2205
     43  NE        22.1000    0.5740   60.6290 N.pl3 174  ARG174     -0.0865
     44  CZ        22.6540    0.6560   59.4280 C.cat 174  ARG174      0.5346
     45  NH1       23.9300    0.9420   59.3150 N.pl3 174  ARG174      0.1354
     46  NH2       21.9360    0.4690   58.3240 N.pl3 174  ARG174      0.1354
     47  N         28.4510    0.4140   56.6050 N.3   190  ALA190     -0.1231
     48  CA        27.6160    1.6260   56.8190 C.3   190  ALA190      0.1694
     49  C         27.8900    2.3290   58.1570 C.2   190  ALA190      0.2592
     50  O         27.6470    3.5170   58.2870 O.2   190  ALA190     -0.2718
     51  CB        26.1380    1.3060   56.7050 C.3   190  ALA190      0.0304
     52  N         28.4320    1.5990   59.1260 N.am  191  ASN191     -0.1974
     53  CA        28.5790    2.1120   60.4730 C.3   191  ASN191      0.1688
     54  C         30.0150    2.4140   60.9130 C.2   191  ASN191      0.2292
     55  O         30.2600    2.6700   62.1120 O.2   191  ASN191     -0.2864
     56  CB        27.8760    1.1540   61.4330 C.3   191  ASN191      0.1181
     57  CG        26.3960    0.9810   61.0740 C.2   191  ASN191      0.2629
     58  OD1       25.7220    1.9650   60.7550 O.2   191  ASN191     -0.2716
     59  ND2       25.8900   -0.2550   61.1380 N.am  191  ASN191     -0.0877
     60  N         14.1620   -3.4760   63.8120 N.3   258  PRO258     -0.2116
     61  CA        14.6650   -2.2570   63.1860 C.3   258  PRO258      0.1372
     62  C         14.1140   -1.0720   63.9690 C.2   258  PRO258      0.2244
     63  O         12.9010   -0.9600   64.1870 O.2   258  PRO258     -0.2868
     64  CB        14.0580   -2.3040   61.7700 C.3   258  PRO258      0.0268
     65  CG        12.7550   -3.0680   61.9480 C.3   258  PRO258      0.0207
     66  CD        13.0070   -4.0460   63.0870 C.3   258  PRO258      0.0892
     67  N         14.5630    3.0140   64.2140 N.3   260  VAL260     -0.1245
     68  CA        15.2410    4.2310   63.6970 C.3   260  VAL260      0.1561
     69  C         15.3070    5.3010   64.7810 C.2   260  VAL260      0.2260
     70  O         14.2910    5.6030   65.4150 O.2   260  VAL260     -0.2867
     71  CB        14.5680    4.7050   62.4120 C.3   260  VAL260      0.0252
     72  CG1       15.0010    6.1390   62.0160 C.3   260  VAL260      0.0019
     73  CG2       14.8610    3.7000   61.2670 C.3   260  VAL260      0.0019
     74  N         17.4980    8.4710   64.5010 N.3   262  ASN262     -0.1225
     75  CA        18.1650    9.7190   64.1260 C.3   262  ASN262      0.1785
     76  C         17.2470   10.7340   63.4720 C.2   262  ASN262      0.2597
     77  O         17.7160   11.7640   62.9740 O.2   262  ASN262     -0.2718
     78  CB        19.4110    9.4550   63.2440 C.3   262  ASN262      0.1169
     79  CG        19.0790    8.6980   61.9630 C.2   262  ASN262      0.2627
     80  OD1       17.9190    8.2950   61.7210 O.2   262  ASN262     -0.2716
     81  ND2       20.1130    8.4580   61.1420 N.am  262  ASN262     -0.0877
     82  N         15.9400   10.4660   63.4760 N.am  263  MET263     -0.1979
     83  CA        15.0040   11.3820   62.8090 C.3   263  MET263      0.1605
     84  C         14.3980   12.3310   63.8190 C.2   263  MET263      0.2287
     85  O         14.4770   12.0760   65.0210 O.2   263  MET263     -0.2864
     86  CB        13.9060   10.6350   62.0240 C.3   263  MET263      0.0413
     87  CG        14.5020    9.8120   60.8600 C.3   263  MET263      0.0598
     88  SD        13.2090    9.1540   59.8180 S.3   263  MET263     -0.1393
     89  CE        12.9820   10.5910   58.7040 C.3   263  MET263      0.0692
     90  N         11.8260    5.0430   66.9300 N.3   277  PHE277     -0.1227
     91  CA        10.5980    4.3230   66.6050 C.3   277  PHE277      0.1736
     92  C         10.9710    2.9870   65.9870 C.2   277  PHE277      0.2596
     93  O         12.0500    2.8280   65.4090 O.2   277  PHE277     -0.2718
     94  CB         9.6700    5.1360   65.6970 C.3   277  PHE277      0.0547
     95  CG        10.2760    5.5150   64.3390 C.ar  277  PHE277     -0.0202
     96  CD1       10.2280    4.6430   63.2630 C.ar  277  PHE277     -0.0042
     97  CD2       10.8350    6.7760   64.1460 C.ar  277  PHE277     -0.0042
     98  CE1       10.7330    5.0120   62.0060 C.ar  277  PHE277     -0.0003
     99  CE2       11.3630    7.1460   62.9090 C.ar  277  PHE277     -0.0003
    100  CZ        11.2940    6.2690   61.8340 C.ar  277  PHE277     -0.0000
    101  N         10.0960    2.0260   66.1360 N.am  278  SER278     -0.1938
    102  CA        10.4090    0.6890   65.6600 C.3   278  SER278      0.2055
    103  C          9.1960    0.0070   65.1140 C.2   278  SER278      0.2644
    104  O          8.0790    0.3290   65.4940 O.2   278  SER278     -0.2714
    105  CB        11.0540   -0.1690   66.7520 C.3   278  SER278      0.2130
    106  OG        10.1390   -0.4470   67.8180 O.3   278  SER278     -0.2179
    107  N          9.4170   -0.9210   64.1840 N.am  279  GLY279     -0.1939
    108  CA         8.3290   -1.7490   63.7250 C.3   279  GLY279      0.2014
    109  C          8.8750   -3.1450   63.5210 C.2   279  GLY279      0.2639
    110  O          9.3490   -3.7730   64.4750 O.2   279  GLY279     -0.2714
    111  N          8.8340   -3.6050   62.2690 N.am  280  TRP280     -0.1959
    112  CA         9.5050   -4.8510   61.8570 C.3   280  TRP280      0.1771
    113  C         10.0690   -4.7630   60.4570 C.2   280  TRP280      0.2620
    114  O          9.7530   -3.8480   59.7120 O.2   280  TRP280     -0.2715
    115  CB         8.5750   -6.0610   61.9330 C.3   280  TRP280      0.0590
    116  CG         7.2360   -5.9250   61.2570 C.ar  280  TRP280      0.0006
    117  CD1        6.9340   -6.1030   59.9050 C.ar  280  TRP280      0.0946
    118  CD2        5.9600   -5.6160   61.8970 C.ar  280  TRP280      0.0152
    119  NE1        5.6010   -5.9260   59.6790 N.ar  280  TRP280     -0.2442
    120  CE2        4.9560   -5.6140   60.8370 C.ar  280  TRP280      0.0810
    121  CE3        5.5620   -5.3240   63.2050 C.ar  280  TRP280      0.0012
    122  CZ2        3.6130   -5.3390   61.0970 C.ar  280  TRP280      0.0191
    123  CZ3        4.2050   -5.0660   63.4610 C.ar  280  TRP280      0.0001
    124  CH2        3.2530   -5.0900   62.4390 C.ar  280  TRP280      0.0015
    125  N         10.8900   -5.7380   60.0730 N.am  281  TYR281     -0.1960
    126  CA        11.5450   -5.6610   58.7710 C.3   281  TYR281      0.1771
    127  C         10.6880   -6.1640   57.6230 C.2   281  TYR281      0.2622
    128  O          9.9280   -7.1220   57.7730 O.2   281  TYR281     -0.2715
    129  CB        12.8030   -6.4890   58.7680 C.3   281  TYR281      0.0574
    130  CG        14.0370   -5.7580   59.1900 C.ar  281  TYR281     -0.0198
    131  CD1       14.7350   -6.1310   60.3610 C.ar  281  TYR281     -0.0009
    132  CD2       14.5350   -4.6900   58.4160 C.ar  281  TYR281     -0.0009
    133  CE1       15.8980   -5.4560   60.7370 C.ar  281  TYR281      0.0417
    134  CE2       15.6970   -4.0480   58.7680 C.ar  281  TYR281      0.0417
    135  CZ        16.3720   -4.4300   59.9330 C.ar  281  TYR281      0.1957
    136  OH        17.5100   -3.7530   60.2530 O.3   281  TYR281     -0.2866
    137  N         10.8750   -5.5300   56.4670 N.am  282  MET282     -0.1931
    138  CA        10.5810   -6.1410   55.1680 C.3   282  MET282      0.1821
    139  C         11.8530   -6.8570   54.7490 C.2   282  MET282      0.2332
    140  O         12.9630   -6.2910   54.8730 O.2   282  MET282     -0.2860
    141  CB        10.1560   -5.0840   54.1340 C.2   282  MET282      0.0096
    142  CG         9.8230   -5.6290   52.7370 C.2   282  MET282      0.0285
    143  SD         8.8110   -4.5330   51.7020 S.3   282  MET282     -0.1125
    144  CE        10.0930   -3.4720   51.0310 C.3   282  MET282      0.0742
    145  N         14.9530   -5.3690   52.9970 N.3   285  GLU285     -0.1245
    146  CA        15.8120   -4.4450   53.6980 C.3   285  GLU285      0.1567
    147  C         17.1310   -5.1240   54.1510 C.2   285  GLU285      0.2260
    148  O         18.1950   -4.5100   54.0200 O.2   285  GLU285     -0.2867
    149  CB        15.1090   -3.8410   54.8960 C.3   285  GLU285      0.0388
    150  CG        13.7980   -3.1130   54.5550 C.3   285  GLU285      0.1160
    151  CD        13.2570   -2.4960   55.8360 C.2   285  GLU285      0.3649
    152  OE1       13.9000   -1.5180   56.2830 O.co2 285  GLU285     -0.2457
    153  OE2       12.2540   -3.0020   56.4030 O.co2 285  GLU285     -0.2457
    154  N         19.5420   -4.9360   50.5430 N.3   289  ARG289     -0.1245
    155  CA        20.3110   -3.7400   50.8680 C.3   289  ARG289      0.1563
    156  C         21.4450   -4.0700   51.8540 C.2   289  ARG289      0.2260
    157  O         22.6290   -3.8920   51.5100 O.2   289  ARG289     -0.2867
    158  CB        19.3840   -2.6080   51.3950 C.3   289  ARG289      0.0307
    159  CG        18.1380   -2.3020   50.4980 C.3   289  ARG289      0.0489
    160  CD        18.4460   -1.8170   49.0650 C.3   289  ARG289      0.2205
    161  NE        19.5340   -0.8410   49.0320 N.pl3 289  ARG289     -0.0865
    162  CZ        19.4040    0.4490   49.3550 C.cat 289  ARG289      0.5346
    163  NH1       18.2140    0.9360   49.6740 N.pl3 289  ARG289      0.1354
    164  NH2       20.4580    1.2680   49.3220 N.pl3 289  ARG289      0.1354
    165  N         24.0260   -4.7390   48.9120 N.3   293  ASP293     -0.1239
    166  CA        24.6510   -3.4800   48.5120 C.3   293  ASP293      0.1674
    167  C         26.1720   -3.7130   48.4590 C.2   293  ASP293      0.2266
    168  O         26.7420   -4.4180   49.3280 O.2   293  ASP293     -0.2867
    169  CB        24.3500   -2.3540   49.4960 C.3   293  ASP293      0.1410
    170  CG        23.0740   -1.5870   49.1680 C.2   293  ASP293      0.3668
    171  OD1       22.8330   -0.5310   49.8330 O.co2 293  ASP293     -0.2456
    172  OD2       22.3130   -2.0100   48.2500 O.co2 293  ASP293     -0.2456
    173  N         28.2870   -1.3330   49.0120 N.3   295  SER295     -0.1202
    174  CA        28.8410   -0.5420   50.1130 C.3   295  SER295      0.2020
    175  C         28.4420   -1.1150   51.4750 C.2   295  SER295      0.2618
    176  O         28.6280   -0.4450   52.4940 O.2   295  SER295     -0.2717
    177  CB        28.3640    0.9080   50.0210 C.3   295  SER295      0.2103
    178  OG        26.9810    1.0040   50.4100 O.3   295  SER295     -0.2182
    179  N         27.8510   -2.3160   51.4950 N.am  296  ARG296     -0.1979
    180  CA        27.4520   -2.9920   52.7650 C.3   296  ARG296      0.1597
    181  C         28.1600   -4.3700   52.9610 C.2   296  ARG296      0.2287
    182  O         29.3730   -4.4790   52.7330 O.2   296  ARG296     -0.2864
    183  CB        25.9160   -3.0660   52.8870 C.3   296  ARG296      0.0334
    184  CG        25.1810   -1.7180   52.7870 C.3   296  ARG296      0.0492
    185  CD        25.3190   -0.8500   54.0370 C.3   296  ARG296      0.2205
    186  NE        24.8690   -1.4660   55.3060 N.pl3 296  ARG296     -0.0865
    187  CZ        23.5920   -1.6240   55.6830 C.cat 296  ARG296      0.5346
    188  NH1       22.6030   -1.2380   54.8650 N.pl3 296  ARG296      0.1354
    189  NH2       23.2980   -2.1650   56.8970 N.pl3 296  ARG296      0.1354
    190  N         10.8850    5.3830   46.8960 N.3   371  TRP371     -0.1241
    191  CA        11.1310    4.6180   48.1050 C.3   371  TRP371      0.1605
    192  C         10.1790    3.4550   48.3160 C.2   371  TRP371      0.2264
    193  O         10.5620    2.4400   48.9000 O.2   371  TRP371     -0.2867
    194  CB        11.1240    5.5600   49.3480 C.3   371  TRP371      0.0550
    195  CG        12.4720    6.2140   49.6250 C.ar  371  TRP371      0.0003
    196  CD1       13.1790    7.1280   48.8090 C.ar  371  TRP371      0.0946
    197  CD2       13.3380    5.9880   50.7960 C.ar  371  TRP371      0.0152
    198  NE1       14.3840    7.4740   49.3960 N.ar  371  TRP371     -0.2442
    199  CE2       14.5420    6.8160   50.5910 C.ar  371  TRP371      0.0810
    200  CE3       13.2120    5.2610   51.9830 C.ar  371  TRP371      0.0012
    201  CZ2       15.5730    6.8620   51.5360 C.ar  371  TRP371      0.0191
    202  CZ3       14.2640    5.3060   52.9390 C.ar  371  TRP371      0.0001
    203  CH2       15.4120    6.1000   52.7210 C.ar  371  TRP371      0.0015
    204  N         14.5280   14.4920   58.4720 N.3   399  TYR399     -0.1241
    205  CA        15.9540   14.3130   58.6800 C.3   399  TYR399      0.1605
    206  C         16.4890   15.4450   59.5180 C.2   399  TYR399      0.2264
    207  O         15.8700   16.5160   59.6150 O.2   399  TYR399     -0.2867
    208  CB        16.7020   14.2490   57.3430 C.3   399  TYR399      0.0534
    209  CG        16.2860   13.0530   56.5180 C.ar  399  TYR399     -0.0201
    210  CD1       16.0100   13.1860   55.1540 C.ar  399  TYR399     -0.0009
    211  CD2       16.1240   11.7850   57.1080 C.ar  399  TYR399     -0.0009
    212  CE1       15.6220   12.0920   54.3880 C.ar  399  TYR399      0.0417
    213  CE2       15.7280   10.6880   56.3550 C.ar  399  TYR399      0.0417
    214  CZ        15.4790   10.8460   54.9990 C.ar  399  TYR399      0.1957
    215  OH        15.0930    9.7710   54.2280 O.3   399  TYR399     -0.2866
@<TRIPOS>BOND
     1   190   191    1
     2   191   192    1
     3   191   194    1
     4   172   170   ar
     5   192   193    2
     6   167   166    1
     7   167   168    2
     8   166   165    1
     9   166   169    1
    10   196   198   ar
    11   196   195   ar
    12   173   174    1
    13   161   160    1
    14   161   162    2
    15   160   159    1
    16   170   169    1
    17   170   171   ar
    18   164   162    1
    19   194   195    1
    20   162   163    1
    21   198   199   ar
    22   195   197   ar
    23   177   174    1
    24   177   178    1
    25   174   175    1
    26   159   158    1
    27   154   155    1
    28   199   197   ar
    29   199   201   ar
    30   197   200   ar
    31   155   158    1
    32   155   156    1
    33   144   143    1
    34   175   179   am
    35   175   176    2
    36   179   180    1
    37   157   156    2
    38   201   203   ar
    39   143   142    1
    40   200   202   ar
    41   203   202   ar
    42   182   181    2
    43   142   141    2
    44   180   183    1
    45   180   181    1
    46   184   183    1
    47   184   185    1
    48   145   146    1
    49    15    16    1
    50    18    17    1
    51    17    16    1
    52   146   147    1
    53   146   149    1
    54   148   147    2
    55   185   186    1
    56   141   138    1
    57   215   214    1
    58    16    19    1
    59   212   214   ar
    60   212   210   ar
    61   150   149    1
    62   150   151    1
    63   139   140    2
    64   139   138    1
    65   188   187    1
    66   214   213   ar
    67   210   209   ar
    68   138   137    1
    69   186   187    2
    70   187   189    1
    71    19    20    1
    72   151   152   ar
    73   151   153   ar
    74   213   211   ar
    75   137   127   am
    76   209   211   ar
    77   209   208    1
    78    47    48    1
    79    51    48    1
    80    48    49    1
    81   208   205    1
    82   127   128    2
    83   127   126    1
    84    49    50    2
    85    49    52   am
    86    46    44    1
    87     4     3    2
    88   132   134   ar
    89   132   130   ar
    90   204   205    1
    91   205   206    1
    92    89    88    1
    93   129   126    1
    94   129   130    1
    95   134   135   ar
    96   126   125    1
    97    52    53    1
    98   130   131   ar
    99    45    44    1
   100    44    43    2
   101     3     2    1
   102   206   207    2
   103     9     7   ar
   104     9    10   ar
   105   119   117   ar
   106   119   120   ar
   107   114   113    2
   108     7     6   ar
   109    88    87    1
   110   117   116   ar
   111   135   136    1
   112   135   133   ar
   113   125   113   am
   114    35    33   am
   115   131   133   ar
   116   113   112    1
   117    53    54    1
   118    53    56    1
   119    43    42    1
   120     2     1    1
   121     2     5    1
   122    10    12   ar
   123    10     8   ar
   124    58    57    2
   125   120   122   ar
   126   120   118   ar
   127    87    86    1
   128    54    55    2
   129     6     5    1
   130     6     8   ar
   131    12    14   ar
   132    57    59   am
   133    57    56    1
   134   122   124   ar
   135    81    79   am
   136   116   118   ar
   137   116   115    1
   138    73    71    1
   139    33    34    2
   140    33    32    1
   141     8    11   ar
   142    80    79    2
   143    64    65    1
   144    64    61    1
   145   100    98   ar
   146   100    99   ar
   147   112   115    1
   148   112   111    1
   149    42    41    1
   150   118   121   ar
   151    65    66    1
   152    26    25    1
   153    79    78    1
   154    98    96   ar
   155    72    71    1
   156    86    83    1
   157   111   109   am
   158    25    22    1
   159    14    13   ar
   160    32    31    1
   161    71    68    1
   162   124   123   ar
   163    83    82    1
   164    83    84    1
   165    99    97   ar
   166    11    13   ar
   167    77    76    2
   168    41    40    1
   169    66    60    1
   170    61    60    1
   171    61    62    1
   172   121   123   ar
   173    78    75    1
   174    96    95   ar
   175    24    23    2
   176    76    82   am
   177    76    75    1
   178   109   108    1
   179   109   110    2
   180    22    23    1
   181    22    21    1
   182    68    67    1
   183    68    69    1
   184   108   107    1
   185    23    27   am
   186    84    85    2
   187    31    28    1
   188    62    63    2
   189    40    37    1
   190    75    74    1
   191    97    95   ar
   192   107   103   am
   193    95    94    1
   194    27    28    1
   195    37    38    1
   196    37    36    1
   197    28    29    1
   198    69    70    2
   199    38    39    2
   200   103   104    2
   201   103   102    1
   202    93    92    2
   203   102   101    1
   204   102   105    1
   205    94    91    1
   206    92   101   am
   207    92    91    1
   208    29    30    2
   209    91    90    1
   210   105   106    1
