@<TRIPOS>MOLECULE
tmp/4kckA02.pdb
 181 176 0 0 0
SMALL
GASTEIGER

@<TRIPOS>ATOM
      1  N          2.7640    8.9700   34.9370 N.3    38  MET38      -0.1230
      2  CA         3.2050    8.5000   33.6210 C.3    38  MET38       0.1702
      3  C          3.2280    9.5750   32.5240 C.2    38  MET38       0.2592
      4  O          4.1890    9.6330   31.7470 O.2    38  MET38      -0.2718
      5  CB         2.3660    7.3280   33.1430 C.3    38  MET38       0.0401
      6  CG         2.7160    6.0050   33.8000 C.3    38  MET38       0.0596
      7  SD         3.1130    4.7410   32.5730 S.3    38  MET38      -0.1393
      8  CE         4.7940    5.2310   32.2480 C.3    38  MET38       0.0692
      9  N          2.1870   10.4080   32.4750 N.am   39  LEU39      -0.1980
     10  CA         2.0830   11.5280   31.5300 C.3    39  LEU39       0.1596
     11  C          1.5610   12.8110   32.2140 C.2    39  LEU39       0.2287
     12  O          0.3500   13.0410   32.2800 O.2    39  LEU39      -0.2864
     13  CB         1.2080   11.1380   30.3250 C.3    39  LEU39       0.0297
     14  CG         0.0970   10.0700   30.4630 C.3    39  LEU39       0.0022
     15  CD1       -1.2830   10.6970   30.4370 C.3    39  LEU39       0.0001
     16  CD2        0.1850    8.9730   29.4010 C.3    39  LEU39       0.0001
     17  N         15.4960    7.6580   28.9540 N.3   106  CYS106     -0.1235
     18  CA        16.2200    6.6980   28.1570 C.3   106  CYS106      0.1677
     19  C         17.5320    6.3290   28.8040 C.2   106  CYS106      0.2270
     20  O         18.4280    7.1790   28.9640 O.2   106  CYS106     -0.2867
     21  CB        16.4990    7.2470   26.7490 C.3   106  CYS106      0.0956
     22  SG        17.2560    5.9920   25.6940 S.3   106  CYS106     -0.0801
     23  N          4.2560    0.5940   18.1160 N.3   169  GLN169     -0.1245
     24  CA         5.6050    0.2470   17.6180 C.3   169  GLN169      0.1566
     25  C          5.4260   -0.3850   16.2460 C.2   169  GLN169      0.2260
     26  O          4.3550   -0.9240   15.9680 O.2   169  GLN169     -0.2867
     27  CB         6.3150   -0.7310   18.5530 C.3   169  GLN169      0.0367
     28  CG         6.3930   -0.2930   19.9970 C.3   169  GLN169      0.0905
     29  CD         6.9830   -1.3760   20.8540 C.2   169  GLN169      0.2608
     30  OE1        7.7510   -2.2250   20.3660 O.2   169  GLN169     -0.2717
     31  NE2        6.6210   -1.3800   22.1280 N.am  169  GLN169     -0.0878
     32  N         -2.2610   -5.7460   25.7950 N.3   188  ALA188     -0.1245
     33  CA        -1.9700   -4.3130   25.6000 C.3   188  ALA188      0.1562
     34  C         -2.4410   -3.7250   24.2620 C.2   188  ALA188      0.2260
     35  O         -2.5370   -2.5040   24.1220 O.2   188  ALA188     -0.2867
     36  CB        -0.4690   -4.0440   25.7700 C.3   188  ALA188      0.0290
     37  N         12.9510   -3.2690   18.5990 N.3   256  PRO256     -0.2102
     38  CA        12.0060   -2.3900   19.2480 C.3   256  PRO256      0.1504
     39  C         12.0850   -1.0740   18.4790 C.2   256  PRO256      0.2576
     40  O         13.1750   -0.5870   18.2360 O.2   256  PRO256     -0.2718
     41  CB        12.6140   -2.2150   20.6550 C.3   256  PRO256      0.0282
     42  CG        14.0980   -2.2450   20.3940 C.3   256  PRO256      0.0208
     43  CD        14.2730   -3.2450   19.2620 C.3   256  PRO256      0.0893
     44  N         10.9520   -0.4980   18.1250 N.am  257  ALA257     -0.1966
     45  CA        10.9490    0.6440   17.2160 C.3   257  ALA257      0.1728
     46  C          9.6690    1.4170   17.4810 C.2   257  ALA257      0.2616
     47  O          8.5840    0.9910   17.0660 O.2   257  ALA257     -0.2715
     48  CB        11.0280    0.1780   15.7750 C.3   257  ALA257      0.0334
     49  N          9.8120    2.5290   18.2040 N.am  258  VAL258     -0.1977
     50  CA         8.6840    3.2760   18.7500 C.3   258  VAL258      0.1596
     51  C          8.1690    4.1600   17.6870 C.2   258  VAL258      0.2287
     52  O          8.9440    4.8370   17.0440 O.2   258  VAL258     -0.2864
     53  CB         9.1510    4.1160   19.9620 C.3   258  VAL258      0.0276
     54  CG1        8.1420    5.2350   20.3190 C.3   258  VAL258      0.0022
     55  CG2        9.4260    3.1690   21.1320 C.3   258  VAL258      0.0022
     56  N          5.4600    8.6580   18.7690 N.3   261  MET261     -0.1245
     57  CA         5.9110    9.8570   19.4560 C.3   261  MET261      0.1570
     58  C          6.0090   11.0250   18.4990 C.2   261  MET261      0.2261
     59  O          5.9960   10.8510   17.2920 O.2   261  MET261     -0.2867
     60  CB         7.2070    9.5830   20.2400 C.3   261  MET261      0.0387
     61  CG         6.9500    8.6360   21.4090 C.3   261  MET261      0.0595
     62  SD         8.3680    8.5440   22.5120 S.3   261  MET261     -0.1393
     63  CE         7.9100    9.7400   23.7910 C.3   261  MET261      0.0692
     64  N         11.4400    5.5190   15.5500 N.3   275  PHE275     -0.1227
     65  CA        12.8630    5.2660   15.8550 C.3   275  PHE275      0.1736
     66  C         13.0670    3.9200   16.5350 C.2   275  PHE275      0.2596
     67  O         12.1700    3.3900   17.1730 O.2   275  PHE275     -0.2718
     68  CB        13.4310    6.3810   16.7390 C.3   275  PHE275      0.0547
     69  CG        12.6980    6.5660   18.0340 C.ar  275  PHE275     -0.0202
     70  CD1       13.1110    5.9010   19.1850 C.ar  275  PHE275     -0.0042
     71  CD2       11.6140    7.3980   18.1060 C.ar  275  PHE275     -0.0042
     72  CE1       12.4670    6.0940   20.3970 C.ar  275  PHE275     -0.0003
     73  CE2       10.9470    7.5740   19.3150 C.ar  275  PHE275     -0.0003
     74  CZ        11.3770    6.9360   20.4530 C.ar  275  PHE275     -0.0000
     75  N         14.2710    3.3860   16.4170 N.am  276  SER276     -0.1938
     76  CA        14.5630    2.0240   16.8220 C.3   276  SER276      0.2055
     77  C         16.0080    2.0060   17.2670 C.2   276  SER276      0.2644
     78  O         16.8010    2.8490   16.8460 O.2   276  SER276     -0.2714
     79  CB        14.3500    0.9970   15.6850 C.3   276  SER276      0.2130
     80  OG        15.2550    1.1730   14.6030 O.3   276  SER276     -0.2179
     81  N         16.3140    1.0460   18.1430 N.am  277  GLY277     -0.1939
     82  CA        17.6280    0.8430   18.7060 C.3   277  GLY277      0.2014
     83  C         17.5840   -0.6410   18.9670 C.2   277  GLY277      0.2639
     84  O         17.4390   -1.4230   18.0320 O.2   277  GLY277     -0.2714
     85  N         17.6330   -1.0260   20.2330 N.am  278  TRP278     -0.1959
     86  CA        17.5900   -2.4500   20.6310 C.3   278  TRP278      0.1771
     87  C         17.1660   -2.5810   22.0800 C.2   278  TRP278      0.2619
     88  O         17.0720   -1.5830   22.8170 O.2   278  TRP278     -0.2715
     89  CB        18.9430   -3.1230   20.4100 C.3   278  TRP278      0.0590
     90  CG        20.1200   -2.4910   21.1190 C.ar  278  TRP278      0.0006
     91  CD1       20.4870   -2.6250   22.4660 C.ar  278  TRP278      0.0946
     92  CD2       21.1540   -1.6320   20.5340 C.ar  278  TRP278      0.0152
     93  NE1       21.6410   -1.9240   22.7410 N.ar  278  TRP278     -0.2442
     94  CE2       22.0900   -1.3020   21.6320 C.ar  278  TRP278      0.0810
     95  CE3       21.4030   -1.1210   19.2560 C.ar  278  TRP278      0.0012
     96  CZ2       23.2110   -0.4930   21.4250 C.ar  278  TRP278      0.0191
     97  CZ3       22.5280   -0.3060   19.0700 C.ar  278  TRP278      0.0001
     98  CH2       23.4080   -0.0030   20.1230 C.ar  278  TRP278      0.0015
     99  N         16.9160   -3.8060   22.4990 N.am  279  TYR279     -0.1974
    100  CA        16.2100   -4.0500   23.7420 C.3   279  TYR279      0.1639
    101  C         17.1550   -4.1600   24.9090 C.2   279  TYR279      0.2290
    102  O         18.2690   -4.6720   24.7790 O.2   279  TYR279     -0.2864
    103  CB        15.4320   -5.3560   23.6610 C.3   279  TYR279      0.0560
    104  CG        13.9810   -5.2320   23.2350 C.ar  279  TYR279     -0.0198
    105  CD1       13.5240   -5.8860   22.0830 C.ar  279  TYR279     -0.0009
    106  CD2       13.0440   -4.5320   24.0090 C.ar  279  TYR279     -0.0009
    107  CE1       12.2030   -5.8150   21.6870 C.ar  279  TYR279      0.0417
    108  CE2       11.6800   -4.4760   23.6330 C.ar  279  TYR279      0.0417
    109  CZ        11.2880   -5.0970   22.4580 C.ar  279  TYR279      0.1957
    110  OH         9.9780   -5.0710   22.0350 O.3   279  TYR279     -0.2866
    111  N         12.8750   -5.4540   29.5250 N.3   283  GLU283     -0.1245
    112  CA        11.7200   -4.9440   28.8120 C.3   283  GLU283      0.1567
    113  C         10.8040   -6.0780   28.3650 C.2   283  GLU283      0.2260
    114  O          9.5850   -5.9340   28.3870 O.2   283  GLU283     -0.2867
    115  CB        12.1710   -4.1950   27.5860 C.3   283  GLU283      0.0388
    116  CG        12.8030   -2.8360   27.9000 C.3   283  GLU283      0.1160
    117  CD        13.0290   -2.0250   26.6230 C.2   283  GLU283      0.3649
    118  OE1       11.9920   -1.5030   26.1070 O.co2 283  GLU283     -0.2457
    119  OE2       14.2040   -1.9540   26.1250 O.co2 283  GLU283     -0.2457
    120  N          8.7380   -7.0530   31.8090 N.3   287  ARG287     -0.1245
    121  CA         7.5540   -6.2590   31.5120 C.3   287  ARG287      0.1563
    122  C          6.5740   -6.9550   30.5470 C.2   287  ARG287      0.2260
    123  O          5.4440   -7.2500   30.9360 O.2   287  ARG287     -0.2867
    124  CB         7.9250   -4.8390   31.0390 C.3   287  ARG287      0.0307
    125  CG         8.7830   -4.0310   32.0220 C.3   287  ARG287      0.0489
    126  CD         8.1720   -3.8290   33.4210 C.3   287  ARG287      0.2205
    127  NE         6.7820   -3.3660   33.3730 N.pl3 287  ARG287     -0.0865
    128  CZ         6.3900   -2.0970   33.1740 C.cat 287  ARG287      0.5346
    129  NH1        7.2800   -1.1160   33.0120 N.pl3 287  ARG287      0.1354
    130  NH2        5.0760   -1.8150   33.1240 N.pl3 287  ARG287      0.1354
    131  N          4.2770   -8.7990   33.4470 N.3   291  ASP291     -0.1239
    132  CA         3.2250   -7.8820   33.8580 C.3   291  ASP291      0.1674
    133  C          1.8950   -8.6280   33.8900 C.2   291  ASP291      0.2266
    134  O          1.5780   -9.4440   32.9990 O.2   291  ASP291     -0.2867
    135  CB         3.1260   -6.6850   32.9330 C.3   291  ASP291      0.1410
    136  CG         4.0500   -5.5700   33.3250 C.2   291  ASP291      0.3668
    137  OD1        4.7950   -5.7220   34.3180 O.co2 291  ASP291     -0.2456
    138  OD2        4.0260   -4.5240   32.6420 O.co2 291  ASP291     -0.2456
    139  N         -0.9550   -7.4630   33.3100 N.3   293  SER293     -0.1202
    140  CA        -1.8020   -7.1300   32.1570 C.3   293  SER293      0.2020
    141  C         -1.0890   -7.2620   30.8040 C.2   293  SER293      0.2618
    142  O         -1.5190   -6.6840   29.8060 O.2   293  SER293     -0.2717
    143  CB        -2.4220   -5.7440   32.3230 C.3   293  SER293      0.2103
    144  OG        -1.4200   -4.8190   32.6680 O.3   293  SER293     -0.2182
    145  N          0.0050   -8.0130   30.7760 N.am  294  ARG294     -0.1979
    146  CA         0.6550   -8.3580   29.5080 C.3   294  ARG294      0.1597
    147  C          0.5250   -9.8770   29.2790 C.2   294  ARG294      0.2287
    148  O         -0.5800  -10.4090   29.4130 O.2   294  ARG294     -0.2864
    149  CB         2.1000   -7.8600   29.4770 C.3   294  ARG294      0.0334
    150  CG         2.2320   -6.3470   29.5900 C.3   294  ARG294      0.0492
    151  CD         1.5960   -5.5870   28.4340 C.3   294  ARG294      0.2205
    152  NE         2.1350   -5.9770   27.1270 N.pl3 294  ARG294     -0.0865
    153  CZ         3.3560   -5.6740   26.6820 C.cat 294  ARG294      0.5346
    154  NH1        4.1940   -4.9830   27.4380 N.pl3 294  ARG294      0.1354
    155  NH2        3.7530   -6.0720   25.4770 N.pl3 294  ARG294      0.1354
    156  N         12.0690    5.8520   35.7080 N.3   369  TRP369     -0.1241
    157  CA        12.2260    5.1030   34.4550 C.3   369  TRP369      0.1605
    158  C         13.5750    4.4690   34.2410 C.2   369  TRP369      0.2264
    159  O         13.6700    3.3480   33.6830 O.2   369  TRP369     -0.2867
    160  CB        11.9190    6.0430   33.3090 C.3   369  TRP369      0.0550
    161  CG        10.4270    6.1580   33.1470 C.ar  369  TRP369      0.0003
    162  CD1        9.4840    6.6510   34.0680 C.ar  369  TRP369      0.0946
    163  CD2        9.6670    5.7130   31.9880 C.ar  369  TRP369      0.0152
    164  NE1        8.2130    6.5750   33.5390 N.ar  369  TRP369     -0.2442
    165  CE2        8.2650    6.0060   32.2760 C.ar  369  TRP369      0.0810
    166  CE3       10.0070    5.1730   30.7750 C.ar  369  TRP369      0.0012
    167  CZ2        7.2750    5.7430   31.3610 C.ar  369  TRP369      0.0191
    168  CZ3        9.0030    4.9000   29.8580 C.ar  369  TRP369      0.0001
    169  CH2        7.6600    5.1800   30.1510 C.ar  369  TRP369      0.0015
    170  N          4.9470   12.6870   23.9780 N.3   397  TYR397     -0.1241
    171  CA         3.8040   11.8510   23.7120 C.3   397  TYR397      0.1605
    172  C          2.8390   12.6550   22.8930 C.2   397  TYR397      0.2264
    173  O          2.9950   13.8650   22.7700 O.2   397  TYR397     -0.2867
    174  CB         3.1160   11.4530   25.0120 C.3   397  TYR397      0.0534
    175  CG         3.8580   10.4380   25.8240 C.ar  397  TYR397     -0.0201
    176  CD1        3.9470   10.5680   27.2090 C.ar  397  TYR397     -0.0009
    177  CD2        4.4760    9.3440   25.2210 C.ar  397  TYR397     -0.0009
    178  CE1        4.6260    9.6320   27.9770 C.ar  397  TYR397      0.0417
    179  CE2        5.1650    8.4090   25.9790 C.ar  397  TYR397      0.0417
    180  CZ         5.2270    8.5610   27.3540 C.ar  397  TYR397      0.1957
    181  OH         5.8820    7.6380   28.1110 O.3   397  TYR397     -0.2866
@<TRIPOS>BOND
     1    80    79    1
     2    64    65    1
     3    79    76    1
     4    48    45    1
     5    65    66    1
     6    65    68    1
     7    26    25    2
     8    25    24    1
     9    75    66   am
    10    75    76    1
    11    66    67    2
    12    68    69    1
    13    76    77    1
    14    78    77    2
    15    52    51    2
    16    47    46    2
    17    45    46    1
    18    45    44    1
    19    77    81   am
    20    59    58    2
    21    46    49   am
    22    24    23    1
    23    24    27    1
    24    51    50    1
    25    84    83    2
    26    69    71   ar
    27    69    70   ar
    28    71    73   ar
    29    44    39   am
    30    81    82    1
    31    49    50    1
    32    40    39    2
    33    39    38    1
    34    58    57    1
    35    27    28    1
    36    37    38    1
    37    37    43    1
    38    82    83    1
    39    50    53    1
    40    56    57    1
    41    83    85   am
    42    97    95   ar
    43    97    98   ar
    44    70    72   ar
    45    38    41    1
    46    95    92   ar
    47    43    42    1
    48    73    74   ar
    49    57    60    1
    50    53    54    1
    51    53    55    1
    52    28    29    1
    53    98    96   ar
    54    85    86    1
    55    60    61    1
    56    30    29    2
    57    42    41    1
    58    72    74   ar
    59    89    86    1
    60    89    90    1
    61    92    90   ar
    62    92    94   ar
    63    86    87    1
    64    29    31   am
    65    90    91   ar
    66    61    62    1
    67    96    94   ar
    68    94    93   ar
    69   107   105   ar
    70   107   109   ar
    71   110   109    1
    72    87    99   am
    73    87    88    2
    74   105   104   ar
    75   109   108   ar
    76    91    93   ar
    77    99   100    1
    78    62    63    1
    79   173   172    2
    80   172   171    1
    81   104   103    1
    82   104   106   ar
    83   108   106   ar
    84   103   100    1
    85   171   170    1
    86   171   174    1
    87   100   101    1
    88    35    34    2
    89    34    33    1
    90   102   101    2
    91   174   175    1
    92   177   175   ar
    93   177   179   ar
    94   155   153    1
    95    33    36    1
    96    33    32    1
    97    22    21    1
    98   175   176   ar
    99   179   180   ar
   100   118   117   ar
   101   119   117   ar
   102   117   116    1
   103   153   152    2
   104   153   154    1
   105    21    18    1
   106   152   151    1
   107   176   178   ar
   108   180   178   ar
   109   180   181    1
   110   115   116    1
   111   115   112    1
   112    18    19    1
   113    18    17    1
   114   113   114    2
   115   113   112    1
   116   151   150    1
   117    19    20    2
   118   112   111    1
   119   147   148    2
   120   147   146    1
   121    16    14    1
   122   149   146    1
   123   149   150    1
   124   146   145    1
   125   142   141    2
   126   168   169   ar
   127   168   166   ar
   128   169   167   ar
   129    13    14    1
   130    13    10    1
   131    15    14    1
   132   122   123    2
   133   122   121    1
   134   166   163   ar
   135   145   141   am
   136   141   140    1
   137   124   121    1
   138   124   125    1
   139   167   165   ar
   140   121   120    1
   141    10    11    1
   142    10     9    1
   143     4     3    2
   144   163   165   ar
   145   163   161   ar
   146   125   126    1
   147   140   143    1
   148   140   139    1
   149    11    12    2
   150     8     7    1
   151   165   164   ar
   152   143   144    1
   153     9     3   am
   154     3     2    1
   155     7     6    1
   156   138   136   ar
   157   135   136    1
   158   135   132    1
   159   134   133    2
   160   129   128    1
   161   130   128    1
   162     5     2    1
   163     5     6    1
   164   161   160    1
   165   161   162   ar
   166   128   127    2
   167   160   157    1
   168   136   137   ar
   169   127   126    1
   170   131   132    1
   171   164   162   ar
   172     2     1    1
   173   159   158    2
   174   132   133    1
   175   158   157    1
   176   157   156    1
