@<TRIPOS>MOLECULE
tmp/4kcmB03.pdb
 217 212 0 0 0
SMALL
GASTEIGER

@<TRIPOS>ATOM
      1  N         18.1580   12.5550   47.6930 N.3    38  MET38      -0.1230
      2  CA        18.0040   11.8940   48.9990 C.3    38  MET38       0.1702
      3  C         17.5740   12.8850   50.1090 C.2    38  MET38       0.2592
      4  O         16.5870   12.6440   50.8340 O.2    38  MET38      -0.2718
      5  CB        19.2760   11.1320   49.3700 C.3    38  MET38       0.0401
      6  CG        19.0800   10.1970   50.5430 C.3    38  MET38       0.0596
      7  SD        18.8920    8.4940   49.9930 S.3    38  MET38      -0.1393
      8  CE        20.6230    8.0700   49.8110 C.3    38  MET38       0.0692
      9  N         18.2850   14.0140   50.1970 N.am   39  LEU39      -0.1980
     10  CA        17.9690   15.0880   51.1580 C.3    39  LEU39       0.1596
     11  C         17.6470   16.4020   50.4160 C.2    39  LEU39       0.2287
     12  O         18.5130   17.2610   50.2830 O.2    39  LEU39      -0.2864
     13  CB        19.1520   15.3150   52.1190 C.3    39  LEU39       0.0297
     14  CG        20.0190   14.1570   52.6180 C.3    39  LEU39       0.0022
     15  CD1       21.3970   14.6630   53.0320 C.3    39  LEU39       0.0001
     16  CD2       19.3470   13.4240   53.7640 C.3    39  LEU39       0.0001
     17  N          3.9270    9.3760   61.7380 N.3   102  TRP102     -0.1241
     18  CA         4.0490    8.1000   61.0030 C.3   102  TRP102      0.1605
     19  C          3.0680    8.0550   59.8430 C.2   102  TRP102      0.2264
     20  O          3.4430    7.7460   58.6990 O.2   102  TRP102     -0.2867
     21  CB         3.8830    6.9050   61.9610 C.3   102  TRP102      0.0550
     22  CG         3.9880    5.5060   61.3890 C.ar  102  TRP102      0.0003
     23  CD1        4.4940    5.1160   60.1470 C.ar  102  TRP102      0.0946
     24  CD2        3.6120    4.2470   62.0620 C.ar  102  TRP102      0.0152
     25  NE1        4.4440    3.7550   59.9970 N.ar  102  TRP102     -0.2442
     26  CE2        3.9340    3.1690   61.1270 C.ar  102  TRP102      0.0810
     27  CE3        3.0860    3.9210   63.3150 C.ar  102  TRP102      0.0012
     28  CZ2        3.7240    1.8350   61.4500 C.ar  102  TRP102      0.0191
     29  CZ3        2.8590    2.5680   63.6280 C.ar  102  TRP102      0.0001
     30  CH2        3.1530    1.5530   62.7160 C.ar  102  TRP102      0.0015
     31  N         22.3790    5.7250   65.0940 N.3   170  SER170     -0.1202
     32  CA        21.4190    5.9090   64.0510 C.3   170  SER170      0.2020
     33  C         20.2660    4.8900   64.2150 C.2   170  SER170      0.2618
     34  O         19.1360    5.2210   63.9700 O.2   170  SER170     -0.2717
     35  CB        22.1010    5.9490   62.6710 C.3   170  SER170      0.2103
     36  OG        22.4390    4.6550   62.2560 O.3   170  SER170     -0.2182
     37  N         20.5440    3.6720   64.6870 N.am  171  GLN171     -0.1979
     38  CA        19.4440    2.8130   65.1630 C.3   171  GLN171      0.1601
     39  C         19.8180    2.3030   66.5670 C.2   171  GLN171      0.2287
     40  O         21.0140    2.2530   66.9240 O.2   171  GLN171     -0.2864
     41  CB        19.1660    1.6370   64.2230 C.3   171  GLN171      0.0394
     42  CG        18.8040    1.9720   62.7710 C.3   171  GLN171      0.0908
     43  CD        18.6780    0.7050   61.9160 C.2   171  GLN171      0.2608
     44  OE1       18.3110   -0.3850   62.4130 O.2   171  GLN171     -0.2717
     45  NE2       18.9660    0.8390   60.6370 N.am  171  GLN171     -0.0878
     46  N         22.3850   -1.9250   66.1080 N.3   174  ARG174     -0.1245
     47  CA        23.0680   -1.8900   64.8490 C.3   174  ARG174      0.1563
     48  C         24.4840   -2.4440   65.0450 C.2   174  ARG174      0.2260
     49  O         25.0560   -2.3710   66.1480 O.2   174  ARG174     -0.2867
     50  CB        23.1170   -0.4530   64.3190 C.3   174  ARG174      0.0307
     51  CG        22.8160   -0.4240   62.8300 C.3   174  ARG174      0.0489
     52  CD        23.0110    0.9250   62.1900 C.3   174  ARG174      0.2205
     53  NE        22.5120    0.8610   60.8220 N.pl3 174  ARG174     -0.0865
     54  CZ        22.6490    1.8310   59.9230 C.cat 174  ARG174      0.5346
     55  NH1       23.2920    2.9470   60.2400 N.pl3 174  ARG174      0.1354
     56  NH2       22.1370    1.6770   58.7010 N.pl3 174  ARG174      0.1354
     57  N         28.5600    0.8800   56.9610 N.3   190  ALA190     -0.1245
     58  CA        27.7290    2.0660   57.2410 C.3   190  ALA190      0.1562
     59  C         28.0120    2.6670   58.6000 C.2   190  ALA190      0.2260
     60  O         27.7400    3.8290   58.8200 O.2   190  ALA190     -0.2867
     61  CB        26.2520    1.7350   57.1680 C.3   190  ALA190      0.0290
     62  N         14.1040   -3.3690   64.2190 N.3   258  PRO258     -0.2116
     63  CA        14.6920   -2.1980   63.6010 C.3   258  PRO258      0.1372
     64  C         14.1270   -0.9740   64.3220 C.2   258  PRO258      0.2244
     65  O         12.8960   -0.8640   64.4940 O.2   258  PRO258     -0.2868
     66  CB        14.1570   -2.2490   62.1700 C.3   258  PRO258      0.0268
     67  CG        12.8500   -2.9790   62.2580 C.3   258  PRO258      0.0207
     68  CD        13.0020   -3.9460   63.4130 C.3   258  PRO258      0.0892
     69  N         14.7040    3.2210   64.6420 N.3   260  VAL260     -0.1245
     70  CA        15.3710    4.4240   64.1050 C.3   260  VAL260      0.1561
     71  C         15.5120    5.4300   65.2190 C.2   260  VAL260      0.2260
     72  O         14.5160    5.7840   65.8360 O.2   260  VAL260     -0.2867
     73  CB        14.5540    5.0300   62.9600 C.3   260  VAL260      0.0252
     74  CG1       14.9700    6.4730   62.6390 C.3   260  VAL260      0.0019
     75  CG2       14.6240    4.1330   61.7300 C.3   260  VAL260      0.0019
     76  N         17.5450    8.5080   65.0310 N.3   262  ASN262     -0.1225
     77  CA        18.2680    9.7160   64.6170 C.3   262  ASN262      0.1785
     78  C         17.4120   10.7560   63.9130 C.2   262  ASN262      0.2597
     79  O         17.9400   11.7050   63.3610 O.2   262  ASN262     -0.2718
     80  CB        19.5420    9.3940   63.7910 C.3   262  ASN262      0.1169
     81  CG        19.2300    8.6920   62.4750 C.2   262  ASN262      0.2627
     82  OD1       18.0680    8.3380   62.1720 O.2   262  ASN262     -0.2716
     83  ND2       20.2840    8.4620   61.6820 N.am  262  ASN262     -0.0877
     84  N         16.0920   10.5760   63.9460 N.am  263  MET263     -0.1979
     85  CA        15.1760   11.5140   63.3170 C.3   263  MET263      0.1605
     86  C         14.5440   12.4720   64.3140 C.2   263  MET263      0.2287
     87  O         14.6430   12.2780   65.5280 O.2   263  MET263     -0.2864
     88  CB        14.1130   10.7780   62.4850 C.3   263  MET263      0.0413
     89  CG        14.7530   10.0500   61.3050 C.3   263  MET263      0.0598
     90  SD        13.4990    9.2490   60.3110 S.3   263  MET263     -0.1393
     91  CE        13.0430   10.5830   59.1630 C.3   263  MET263      0.0692
     92  N         11.8820    5.2130   67.3390 N.3   277  PHE277     -0.1227
     93  CA        10.6840    4.4250   67.0480 C.3   277  PHE277      0.1736
     94  C         11.1020    3.1100   66.3990 C.2   277  PHE277      0.2596
     95  O         12.1440    3.0200   65.7530 O.2   277  PHE277     -0.2718
     96  CB         9.7060    5.1680   66.1230 C.3   277  PHE277      0.0547
     97  CG        10.3550    5.6830   64.8270 C.ar  277  PHE277     -0.0202
     98  CD1       10.3930    4.8830   63.6640 C.ar  277  PHE277     -0.0042
     99  CD2       10.9060    6.9740   64.7680 C.ar  277  PHE277     -0.0042
    100  CE1       10.9510    5.3640   62.4910 C.ar  277  PHE277     -0.0003
    101  CE2       11.4790    7.4500   63.5970 C.ar  277  PHE277     -0.0003
    102  CZ        11.4930    6.6420   62.4530 C.ar  277  PHE277     -0.0000
    103  N         10.2340    2.1220   66.5240 N.am  278  SER278     -0.1938
    104  CA        10.5110    0.7680   66.0530 C.3   278  SER278      0.2055
    105  C          9.2460    0.1440   65.5010 C.2   278  SER278      0.2644
    106  O          8.1220    0.5120   65.8770 O.2   278  SER278     -0.2714
    107  CB        11.0840   -0.1000   67.1890 C.3   278  SER278      0.2130
    108  OG        10.1220   -0.2550   68.2420 O.3   278  SER278     -0.2179
    109  N          9.4260   -0.7740   64.5610 N.am  279  GLY279     -0.1939
    110  CA         8.3190   -1.5850   64.0820 C.3   279  GLY279      0.2014
    111  C          8.8390   -2.9950   63.8160 C.2   279  GLY279      0.2639
    112  O          9.2950   -3.6760   64.7300 O.2   279  GLY279     -0.2714
    113  N          8.7810   -3.4240   62.5630 N.am  280  TRP280     -0.1959
    114  CA         9.4320   -4.6790   62.1540 C.3   280  TRP280      0.1771
    115  C          9.9760   -4.5830   60.7630 C.2   280  TRP280      0.2620
    116  O          9.7050   -3.6240   60.0600 O.2   280  TRP280     -0.2715
    117  CB         8.4830   -5.8470   62.2590 C.3   280  TRP280      0.0590
    118  CG         7.1360   -5.6570   61.6040 C.ar  280  TRP280      0.0006
    119  CD1        6.8030   -5.8190   60.2460 C.ar  280  TRP280      0.0946
    120  CD2        5.8760   -5.3250   62.2740 C.ar  280  TRP280      0.0152
    121  NE1        5.4560   -5.6120   60.0510 N.ar  280  TRP280     -0.2442
    122  CE2        4.8430   -5.3100   61.2350 C.ar  280  TRP280      0.0810
    123  CE3        5.5150   -5.0330   63.5920 C.ar  280  TRP280      0.0012
    124  CZ2        3.5050   -5.0110   61.5290 C.ar  280  TRP280      0.0191
    125  CZ3        4.1640   -4.7340   63.8750 C.ar  280  TRP280      0.0001
    126  CH2        3.1840   -4.7470   62.8640 C.ar  280  TRP280      0.0015
    127  N         10.7640   -5.5700   60.3480 N.am  281  TYR281     -0.1960
    128  CA        11.4700   -5.4720   59.0760 C.3   281  TYR281      0.1771
    129  C         10.6270   -5.9620   57.8980 C.2   281  TYR281      0.2619
    130  O          9.8520   -6.9090   58.0180 O.2   281  TYR281     -0.2715
    131  CB        12.7270   -6.3020   59.1110 C.3   281  TYR281      0.0574
    132  CG        13.9840   -5.6040   59.5570 C.ar  281  TYR281     -0.0198
    133  CD1       14.6340   -5.9840   60.7220 C.ar  281  TYR281     -0.0009
    134  CD2       14.5720   -4.6050   58.7700 C.ar  281  TYR281     -0.0009
    135  CE1       15.8100   -5.3760   61.0980 C.ar  281  TYR281      0.0417
    136  CE2       15.7450   -3.9920   59.1460 C.ar  281  TYR281      0.0417
    137  CZ        16.3670   -4.3970   60.3020 C.ar  281  TYR281      0.1957
    138  OH        17.5320   -3.7830   60.6580 O.3   281  TYR281     -0.2866
    139  N         10.8050   -5.3010   56.7570 N.am  282  MET282     -0.1977
    140  CA        10.5290   -5.9050   55.4510 C.3   282  MET282      0.1605
    141  C         11.8140   -6.6140   55.0300 C.2   282  MET282      0.2287
    142  O         12.9180   -6.0420   55.1120 O.2   282  MET282     -0.2864
    143  CB        10.1280   -4.8320   54.4330 C.3   282  MET282      0.0413
    144  CG         9.8790   -5.3670   53.0130 C.3   282  MET282      0.0598
    145  SD         8.8980   -4.2380   51.9840 S.3   282  MET282     -0.1393
    146  CE        10.1900   -3.1300   51.4480 C.3   282  MET282      0.0692
    147  N         15.0090   -5.1250   53.2370 N.3   285  GLU285     -0.1245
    148  CA        15.9220   -4.2440   53.9680 C.3   285  GLU285      0.1567
    149  C         17.2330   -4.9500   54.3600 C.2   285  GLU285      0.2260
    150  O         18.3270   -4.4060   54.1940 O.2   285  GLU285     -0.2867
    151  CB        15.2590   -3.6810   55.2150 C.3   285  GLU285      0.0388
    152  CG        14.0030   -2.8670   54.9430 C.3   285  GLU285      0.1160
    153  CD        13.4440   -2.2820   56.2420 C.2   285  GLU285      0.3649
    154  OE1       14.0780   -1.3200   56.7460 O.co2 285  GLU285     -0.2457
    155  OE2       12.3710   -2.7450   56.7110 O.co2 285  GLU285     -0.2457
    156  N         19.5420   -4.7370   50.8040 N.3   289  ARG289     -0.1245
    157  CA        20.3300   -3.5560   51.1260 C.3   289  ARG289      0.1563
    158  C         21.4950   -3.8620   52.1030 C.2   289  ARG289      0.2260
    159  O         22.6640   -3.6240   51.7780 O.2   289  ARG289     -0.2867
    160  CB        19.4030   -2.4080   51.6260 C.3   289  ARG289      0.0307
    161  CG        18.2240   -2.0600   50.6790 C.3   289  ARG289      0.0489
    162  CD        18.6030   -1.5520   49.2520 C.3   289  ARG289      0.2205
    163  NE        19.7020   -0.5640   49.2880 N.pl3 289  ARG289     -0.0865
    164  CZ        19.5370    0.7320   49.5840 C.cat 289  ARG289      0.5346
    165  NH1       18.3150    1.2310   49.7990 N.pl3 289  ARG289      0.1354
    166  NH2       20.5880    1.5400   49.6490 N.pl3 289  ARG289      0.1354
    167  N         24.1220   -4.3210   49.1590 N.3   293  ASP293     -0.1239
    168  CA        24.7480   -3.0620   48.7190 C.3   293  ASP293      0.1674
    169  C         26.2830   -3.3000   48.6630 C.2   293  ASP293      0.2266
    170  O         26.8450   -3.9530   49.5440 O.2   293  ASP293     -0.2867
    171  CB        24.4540   -1.9190   49.7050 C.3   293  ASP293      0.1410
    172  CG        23.1250   -1.2000   49.4290 C.2   293  ASP293      0.3668
    173  OD1       22.8290   -0.2000   50.1440 O.co2 293  ASP293     -0.2456
    174  OD2       22.3740   -1.6200   48.5040 O.co2 293  ASP293     -0.2456
    175  N         28.4340   -1.1640   49.3390 N.3   295  SER295     -0.1202
    176  CA        29.0030   -0.4280   50.4850 C.3   295  SER295      0.2020
    177  C         28.5820   -0.9580   51.8310 C.2   295  SER295      0.2618
    178  O         28.7790   -0.2820   52.8470 O.2   295  SER295     -0.2717
    179  CB        28.6140    1.0470   50.4120 C.3   295  SER295      0.2103
    180  OG        28.7650    1.4900   49.0750 O.3   295  SER295     -0.2182
    181  N         27.9250   -2.1120   51.8560 N.am  296  ARG296     -0.1979
    182  CA        27.5160   -2.7100   53.1330 C.3   296  ARG296      0.1597
    183  C         28.2160   -4.0590   53.2830 C.2   296  ARG296      0.2287
    184  O         29.4160   -4.1710   52.9960 O.2   296  ARG296     -0.2864
    185  CB        25.9850   -2.7990   53.2410 C.3   296  ARG296      0.0334
    186  CG        25.2610   -1.4640   53.0700 C.3   296  ARG296      0.0492
    187  CD        25.3550   -0.5030   54.2610 C.3   296  ARG296      0.2205
    188  NE        25.0350   -1.1120   55.5590 N.pl3 296  ARG296     -0.0865
    189  CZ        23.7970   -1.3870   55.9760 C.cat 296  ARG296      0.5346
    190  NH1       22.7600   -1.0710   55.2150 N.pl3 296  ARG296      0.1354
    191  NH2       23.5870   -1.9100   57.1860 N.pl3 296  ARG296      0.1354
    192  N         10.9820    5.6150   47.0860 N.3   371  TRP371     -0.1241
    193  CA        11.1990    4.9060   48.3240 C.3   371  TRP371      0.1605
    194  C         10.2690    3.7490   48.5680 C.2   371  TRP371      0.2264
    195  O         10.6880    2.7550   49.1790 O.2   371  TRP371     -0.2867
    196  CB        11.1270    5.9060   49.5080 C.3   371  TRP371      0.0550
    197  CG        12.4790    6.5290   49.7940 C.ar  371  TRP371      0.0003
    198  CD1       13.2400    7.3680   48.9660 C.ar  371  TRP371      0.0946
    199  CD2       13.2850    6.3160   50.9760 C.ar  371  TRP371      0.0152
    200  NE1       14.4280    7.6850   49.5630 N.ar  371  TRP371     -0.2442
    201  CE2       14.5130    7.0820   50.7840 C.ar  371  TRP371      0.0810
    202  CE3       13.1020    5.6100   52.1690 C.ar  371  TRP371      0.0012
    203  CZ2       15.5030    7.1340   51.7620 C.ar  371  TRP371      0.0191
    204  CZ3       14.1070    5.6710   53.1430 C.ar  371  TRP371      0.0001
    205  CH2       15.2820    6.4050   52.9380 C.ar  371  TRP371      0.0015
    206  N         14.6960   14.7290   58.9030 N.3   399  TYR399     -0.1241
    207  CA        16.1320   14.5430   59.0990 C.3   399  TYR399      0.1605
    208  C         16.6760   15.6580   59.9950 C.2   399  TYR399      0.2264
    209  O         16.0620   16.7460   60.1030 O.2   399  TYR399     -0.2867
    210  CB        16.8290   14.5100   57.7620 C.3   399  TYR399      0.0534
    211  CG        16.3490   13.4020   56.8580 C.ar  399  TYR399     -0.0201
    212  CD1       15.8500   13.6960   55.5730 C.ar  399  TYR399     -0.0009
    213  CD2       16.3900   12.0500   57.2760 C.ar  399  TYR399     -0.0009
    214  CE1       15.4350   12.6800   54.7170 C.ar  399  TYR399      0.0417
    215  CE2       15.9560   11.0240   56.4400 C.ar  399  TYR399      0.0417
    216  CZ        15.4900   11.3370   55.1560 C.ar  399  TYR399      0.1957
    217  OH        15.0560   10.3270   54.2990 O.3   399  TYR399     -0.2866
@<TRIPOS>BOND
     1   192   193    1
     2     1     2    1
     3   193   194    1
     4   193   196    1
     5   174   172   ar
     6   194   195    2
     7   169   168    1
     8   169   170    2
     9   168   167    1
    10   168   171    1
    11   198   200   ar
    12   198   197   ar
    13     2     5    1
    14     2     3    1
    15   180   179    1
    16   162   163    1
    17   162   161    1
    18   163   164    2
    19   175   176    1
    20     5     6    1
    21   172   171    1
    22   172   173   ar
    23   196   197    1
    24   200   201   ar
    25   164   166    1
    26   164   165    1
    27   197   199   ar
    28     8     7    1
    29     7     6    1
    30     3     9   am
    31     3     4    2
    32     9    10    1
    33    12    11    2
    34   179   176    1
    35    11    10    1
    36   176   177    1
    37   161   160    1
    38   201   199   ar
    39   201   203   ar
    40   156   157    1
    41   199   202   ar
    42   157   160    1
    43   157   158    1
    44    10    13    1
    45   146   145    1
    46   203   205   ar
    47   159   158    2
    48   177   181   am
    49   177   178    2
    50   181   182    1
    51   145   144    1
    52    13    14    1
    53   202   204   ar
    54    14    15    1
    55    14    16    1
    56   205   204   ar
    57   184   183    2
    58   144   143    1
    59   186   185    1
    60   186   187    1
    61   182   185    1
    62   182   183    1
    63   147   148    1
    64   148   149    1
    65   148   151    1
    66   150   149    2
    67   187   188    1
    68   217   216    1
    69   143   140    1
    70   214   216   ar
    71   214   212   ar
    72   152   151    1
    73   152   153    1
    74   141   142    2
    75   141   140    1
    76   216   215   ar
    77   190   189    1
    78   140   139    1
    79   188   189    2
    80   212   211   ar
    81   189   191    1
    82   153   155   ar
    83   153   154   ar
    84   215   213   ar
    85   139   129   am
    86   211   213   ar
    87   211   210    1
    88    57    58    1
    89    61    58    1
    90    58    59    1
    91   210   207    1
    92   129   130    2
    93   129   128    1
    94    59    60    2
    95    20    19    2
    96    56    54    1
    97   134   136   ar
    98   134   132   ar
    99   206   207    1
   100   128   131    1
   101   128   127    1
   102   207   208    1
   103   131   132    1
   104   136   137   ar
   105    91    90    1
   106   132   133   ar
   107    19    18    1
   108    54    55    1
   109    54    53    2
   110   208   209    2
   111    25    23   ar
   112    25    26   ar
   113   121   119   ar
   114   121   122   ar
   115   116   115    2
   116    23    22   ar
   117   119   118   ar
   118   137   138    1
   119   137   135   ar
   120    90    89    1
   121   127   115   am
   122    45    43   am
   123   133   135   ar
   124   115   114    1
   125    53    52    1
   126    18    17    1
   127    18    21    1
   128    26    28   ar
   129    26    24   ar
   130   122   124   ar
   131   122   120   ar
   132    89    88    1
   133    22    21    1
   134    22    24   ar
   135    28    30   ar
   136   124   126   ar
   137   118   117    1
   138   118   120   ar
   139    83    81   am
   140    75    73    1
   141    43    44    2
   142    43    42    1
   143    24    27   ar
   144   114   117    1
   145   114   113    1
   146    66    67    1
   147    66    63    1
   148    82    81    2
   149    52    51    1
   150    36    35    1
   151    67    68    1
   152   120   123   ar
   153   102   100   ar
   154   102   101   ar
   155    81    80    1
   156    88    85    1
   157   100    98   ar
   158   113   111   am
   159    74    73    1
   160    35    32    1
   161    30    29   ar
   162    42    41    1
   163    51    50    1
   164   126   125   ar
   165    73    70    1
   166    27    29   ar
   167    85    84    1
   168    85    86    1
   169    79    78    2
   170    68    62    1
   171   123   125   ar
   172   101    99   ar
   173    63    62    1
   174    63    64    1
   175    98    97   ar
   176    80    77    1
   177   111   110    1
   178   111   112    2
   179    78    84   am
   180    78    77    1
   181    34    33    2
   182    32    33    1
   183    32    31    1
   184   110   109    1
   185    70    69    1
   186    70    71    1
   187    33    37   am
   188    41    38    1
   189    86    87    2
   190    50    47    1
   191    64    65    2
   192   109   105   am
   193    77    76    1
   194    37    38    1
   195    99    97   ar
   196    97    96    1
   197    47    48    1
   198    47    46    1
   199    48    49    2
   200    38    39    1
   201    71    72    2
   202   105   106    2
   203   105   104    1
   204    95    94    2
   205   104   103    1
   206   104   107    1
   207    96    93    1
   208    94   103   am
   209    94    93    1
   210    39    40    2
   211    93    92    1
   212   107   108    1
