@<TRIPOS>MOLECULE
tmp/4kcnA03.pdb
 173 169 0 0 0
SMALL
GASTEIGER

@<TRIPOS>ATOM
      1  N          2.6850    8.8630   34.9310 N.3    38  MET38      -0.1230
      2  CA         3.1250    8.4290   33.5870 C.3    38  MET38       0.1702
      3  C          3.1580    9.5630   32.5320 C.2    38  MET38       0.2592
      4  O          4.2050    9.8110   31.9110 O.2    38  MET38      -0.2718
      5  CB         2.2380    7.2920   33.0920 C.3    38  MET38       0.0401
      6  CG         2.6270    5.9010   33.5710 C.3    38  MET38       0.0596
      7  SD         3.5600    4.9660   32.3410 S.3    38  MET38      -0.1393
      8  CE         5.0250    5.9620   32.3100 C.3    38  MET38       0.0692
      9  N          2.0240   10.2510   32.3440 N.am   39  LEU39      -0.1980
     10  CA         1.9220   11.3900   31.4220 C.3    39  LEU39       0.1596
     11  C          1.7080   12.7480   32.1450 C.2    39  LEU39       0.2287
     12  O          0.5610   13.1260   32.4560 O.2    39  LEU39      -0.2864
     13  CB         0.7540   11.1840   30.4420 C.3    39  LEU39       0.0297
     14  CG        -0.0040    9.8630   30.2210 C.3    39  LEU39       0.0022
     15  CD1       -1.4490   10.1410   29.8130 C.3    39  LEU39       0.0001
     16  CD2        0.6700    8.9830   29.1830 C.3    39  LEU39       0.0001
     17  N         15.5710    7.5720   29.0670 N.3   106  CYS106     -0.1235
     18  CA        16.1870    6.5630   28.2270 C.3   106  CYS106      0.1677
     19  C         17.5150    6.1680   28.8520 C.2   106  CYS106      0.2270
     20  O         18.3680    7.0210   28.9650 O.2   106  CYS106     -0.2867
     21  CB        16.5070    7.1250   26.8160 C.3   106  CYS106      0.0956
     22  SG        17.4220    5.9040   25.8170 S.3   106  CYS106     -0.0801
     23  N          4.3550    0.6040   18.1280 N.3   169  GLN169     -0.1245
     24  CA         5.7420    0.2020   17.6890 C.3   169  GLN169      0.1566
     25  C          5.5910   -0.3780   16.2870 C.2   169  GLN169      0.2260
     26  O          4.5290   -0.8730   15.9570 O.2   169  GLN169     -0.2867
     27  CB         6.3560   -0.8760   18.6020 C.3   169  GLN169      0.0367
     28  CG         6.7280   -0.3900   19.9960 C.3   169  GLN169      0.0905
     29  CD         7.3440   -1.4870   20.8410 C.2   169  GLN169      0.2608
     30  OE1        8.0540   -2.3630   20.3190 O.2   169  GLN169     -0.2717
     31  NE2        7.0640   -1.4670   22.1520 N.am  169  GLN169     -0.0878
     32  N          4.8800   -5.2800   16.5040 N.3   172  ARG172     -0.1245
     33  CA         4.1720   -5.6690   17.7250 C.3   172  ARG172      0.1563
     34  C          3.0650   -6.6970   17.4750 C.2   172  ARG172      0.2260
     35  O          2.5580   -6.8020   16.3690 O.2   172  ARG172     -0.2867
     36  CB         3.6040   -4.4540   18.4250 C.3   172  ARG172      0.0307
     37  CG         4.1720   -4.3810   19.8180 C.3   172  ARG172      0.0489
     38  CD         3.5230   -3.2920   20.5980 C.3   172  ARG172      0.2205
     39  NE         4.0150   -3.3030   21.9470 N.pl3 172  ARG172     -0.0865
     40  CZ         3.4140   -2.6790   22.9510 C.cat 172  ARG172      0.5346
     41  NH1        2.2460   -2.0550   22.7290 N.pl3 172  ARG172      0.1354
     42  NH2        3.9760   -2.7010   24.1730 N.pl3 172  ARG172      0.1354
     43  N         12.9940   -3.3470   18.5640 N.3   256  PRO256     -0.2116
     44  CA        12.0540   -2.4360   19.2140 C.3   256  PRO256      0.1372
     45  C         12.0520   -1.0920   18.4800 C.2   256  PRO256      0.2244
     46  O         13.1030   -0.4840   18.3040 O.2   256  PRO256     -0.2868
     47  CB        12.6410   -2.2970   20.6240 C.3   256  PRO256      0.0268
     48  CG        14.1220   -2.4270   20.4230 C.3   256  PRO256      0.0207
     49  CD        14.3100   -3.3700   19.2450 C.3   256  PRO256      0.0892
     50  N          9.8370    2.4420   18.2160 N.3   258  VAL258     -0.1245
     51  CA         8.7200    3.2570   18.7270 C.3   258  VAL258      0.1561
     52  C          8.2220    4.1630   17.6370 C.2   258  VAL258      0.2260
     53  O          9.0010    4.9120   17.0730 O.2   258  VAL258     -0.2867
     54  CB         9.1270    4.1320   19.9500 C.3   258  VAL258      0.0252
     55  CG1        8.0120    5.1540   20.3160 C.3   258  VAL258      0.0019
     56  CG2        9.3620    3.2010   21.1320 C.3   258  VAL258      0.0019
     57  N          4.9480    6.0890   17.8160 N.3   260  ASN260     -0.1225
     58  CA         3.8080    6.9470   18.1840 C.3   260  ASN260      0.1785
     59  C          4.2120    8.2640   18.8330 C.2   260  ASN260      0.2597
     60  O          3.3580    9.0250   19.2670 O.2   260  ASN260     -0.2718
     61  CB         2.7410    6.1920   19.0250 C.3   260  ASN260      0.1169
     62  CG         3.2760    5.6810   20.3700 C.2   260  ASN260      0.2627
     63  OD1        2.4900    5.1830   21.1960 O.2   260  ASN260     -0.2716
     64  ND2        4.5940    5.7660   20.5950 N.am  260  ASN260     -0.0877
     65  N          5.5100    8.5740   18.8270 N.am  261  MET261     -0.1979
     66  CA         5.9660    9.8080   19.4820 C.3   261  MET261      0.1605
     67  C          6.0900   10.9490   18.5050 C.2   261  MET261      0.2287
     68  O          6.0490   10.7450   17.2960 O.2   261  MET261     -0.2864
     69  CB         7.2750    9.5820   20.2620 C.3   261  MET261      0.0413
     70  CG         7.0910    8.6000   21.4220 C.3   261  MET261      0.0598
     71  SD         8.5280    8.5690   22.5340 S.3   261  MET261     -0.1393
     72  CE         8.1840    9.9430   23.6290 C.3   261  MET261      0.0692
     73  N         11.4620    5.3970   15.4830 N.3   275  PHE275     -0.1227
     74  CA        12.8940    5.2500   15.8310 C.3   275  PHE275      0.1736
     75  C         13.1330    3.8990   16.5000 C.2   275  PHE275      0.2596
     76  O         12.2210    3.3510   17.1130 O.2   275  PHE275     -0.2718
     77  CB        13.3280    6.4090   16.7110 C.3   275  PHE275      0.0547
     78  CG        12.6630    6.4750   18.0680 C.ar  275  PHE275     -0.0202
     79  CD1       13.0820    5.6350   19.1160 C.ar  275  PHE275     -0.0042
     80  CD2       11.7300    7.4570   18.3390 C.ar  275  PHE275     -0.0042
     81  CE1       12.5270    5.7640   20.3880 C.ar  275  PHE275     -0.0003
     82  CE2       11.1740    7.5940   19.6130 C.ar  275  PHE275     -0.0003
     83  CZ        11.5680    6.7580   20.6330 C.ar  275  PHE275     -0.0000
     84  N         14.3290    3.3330   16.3280 N.am  276  SER276     -0.1938
     85  CA        14.6160    2.0010   16.7990 C.3   276  SER276      0.2055
     86  C         16.0480    1.9400   17.3520 C.2   276  SER276      0.2644
     87  O         16.8820    2.7180   16.9330 O.2   276  SER276     -0.2714
     88  CB        14.4680    0.9640   15.6650 C.3   276  SER276      0.2130
     89  OG        15.3600    1.2050   14.5750 O.3   276  SER276     -0.2179
     90  N         16.2760    1.0130   18.2920 N.am  277  GLY277     -0.1939
     91  CA        17.6250    0.7160   18.8390 C.3   277  GLY277      0.2014
     92  C         17.6820   -0.7930   19.0210 C.2   277  GLY277      0.2639
     93  O         17.6640   -1.5530   18.0650 O.2   277  GLY277     -0.2714
     94  N         17.7510   -1.2300   20.2650 N.am  278  TRP278     -0.1959
     95  CA        17.7160   -2.6650   20.5830 C.3   278  TRP278      0.1771
     96  C         17.2080   -2.7560   21.9970 C.2   278  TRP278      0.2620
     97  O         17.0930   -1.7280   22.6970 O.2   278  TRP278     -0.2715
     98  CB        19.1020   -3.3030   20.4580 C.3   278  TRP278      0.0590
     99  CG        20.2140   -2.6260   21.2030 C.ar  278  TRP278      0.0006
    100  CD1       20.5280   -2.7590   22.5400 C.ar  278  TRP278      0.0946
    101  CD2       21.2260   -1.7700   20.6390 C.ar  278  TRP278      0.0152
    102  NE1       21.6490   -2.0130   22.8330 N.ar  278  TRP278     -0.2442
    103  CE2       22.0960   -1.4040   21.6850 C.ar  278  TRP278      0.0810
    104  CE3       21.4770   -1.2860   19.3410 C.ar  278  TRP278      0.0012
    105  CZ2       23.2190   -0.5690   21.4710 C.ar  278  TRP278      0.0191
    106  CZ3       22.5770   -0.4520   19.1230 C.ar  278  TRP278      0.0001
    107  CH2       23.4350   -0.1030   20.1870 C.ar  278  TRP278      0.0015
    108  N         16.8860   -3.9660   22.4130 N.am  279  TYR279     -0.1960
    109  CA        16.2190   -4.1990   23.6890 C.3   279  TYR279      0.1771
    110  C         17.1670   -4.2740   24.8630 C.2   279  TYR279      0.2619
    111  O         18.3220   -4.7510   24.7320 O.2   279  TYR279     -0.2715
    112  CB        15.4890   -5.5270   23.6110 C.3   279  TYR279      0.0574
    113  CG        14.0450   -5.3890   23.1920 C.ar  279  TYR279     -0.0198
    114  CD1       13.5780   -6.0070   22.0280 C.ar  279  TYR279     -0.0009
    115  CD2       13.1290   -4.6740   23.9870 C.ar  279  TYR279     -0.0009
    116  CE1       12.2510   -5.9130   21.6590 C.ar  279  TYR279      0.0417
    117  CE2       11.7740   -4.5920   23.6300 C.ar  279  TYR279      0.0417
    118  CZ        11.3560   -5.2100   22.4590 C.ar  279  TYR279      0.1957
    119  OH        10.0450   -5.0970   22.0730 O.3   279  TYR279     -0.2866
    120  N         16.6980   -3.7800   26.0040 N.am  280  MET280     -0.1977
    121  CA        17.2510   -4.2160   27.2760 C.3   280  MET280      0.1605
    122  C         16.3950   -5.4070   27.6760 C.2   280  MET280      0.2287
    123  O         15.1760   -5.3590   27.5190 O.2   280  MET280     -0.2864
    124  CB        17.2380   -3.0760   28.3110 C.3   280  MET280      0.0413
    125  CG        17.8110   -3.4980   29.6670 C.3   280  MET280      0.0598
    126  SD        18.0380   -2.1010   30.7890 S.3   280  MET280     -0.1393
    127  CE        16.3030   -1.6860   31.1440 C.3   280  MET280      0.0692
    128  N         12.8480   -5.4610   29.4560 N.3   283  GLU283     -0.1245
    129  CA        11.6700   -4.9960   28.7520 C.3   283  GLU283      0.1567
    130  C         10.7910   -6.1770   28.3560 C.2   283  GLU283      0.2260
    131  O          9.5680   -6.1490   28.5860 O.2   283  GLU283     -0.2867
    132  CB        12.0540   -4.1980   27.5090 C.3   283  GLU283      0.0388
    133  CG        12.6580   -2.8450   27.8120 C.3   283  GLU283      0.1160
    134  CD        12.9980   -2.1070   26.5210 C.2   283  GLU283      0.3649
    135  OE1       12.0540   -1.5070   25.9460 O.co2 283  GLU283     -0.2457
    136  OE2       14.1910   -2.0960   26.0850 O.co2 283  GLU283     -0.2457
    137  N          8.6580   -7.0010   31.8080 N.3   287  ARG287     -0.1245
    138  CA         7.4520   -6.2360   31.4960 C.3   287  ARG287      0.1563
    139  C          6.5240   -6.9730   30.5060 C.2   287  ARG287      0.2260
    140  O          5.3750   -7.2600   30.8490 O.2   287  ARG287     -0.2867
    141  CB         7.7630   -4.7790   31.0390 C.3   287  ARG287      0.0307
    142  CG         8.6380   -3.9500   32.0130 C.3   287  ARG287      0.0489
    143  CD         8.0330   -3.7800   33.4200 C.3   287  ARG287      0.2205
    144  NE         6.6070   -3.4230   33.3700 N.pl3 287  ARG287     -0.0865
    145  CZ         6.1400   -2.1910   33.1290 C.cat 287  ARG287      0.5346
    146  NH1        6.9920   -1.1730   32.9470 N.pl3 287  ARG287      0.1354
    147  NH2        4.8080   -1.9770   33.0650 N.pl3 287  ARG287      0.1354
    148  N         11.9650    5.7740   35.6620 N.3   369  TRP369     -0.1241
    149  CA        12.0820    4.9950   34.4120 C.3   369  TRP369      0.1605
    150  C         13.4690    4.3560   34.2020 C.2   369  TRP369      0.2264
    151  O         13.5950    3.3050   33.5650 O.2   369  TRP369     -0.2867
    152  CB        11.8390    5.9330   33.2440 C.3   369  TRP369      0.0550
    153  CG        10.3810    6.0280   33.0100 C.ar  369  TRP369      0.0003
    154  CD1        9.4180    6.4950   33.8950 C.ar  369  TRP369      0.0946
    155  CD2        9.6830    5.5930   31.8310 C.ar  369  TRP369      0.0152
    156  NE1        8.1750    6.3860   33.3010 N.ar  369  TRP369     -0.2442
    157  CE2        8.3120    5.8500   32.0410 C.ar  369  TRP369      0.0810
    158  CE3       10.0970    5.0600   30.6030 C.ar  369  TRP369      0.0012
    159  CZ2        7.3350    5.5530   31.0720 C.ar  369  TRP369      0.0191
    160  CZ3        9.1350    4.7550   29.6480 C.ar  369  TRP369      0.0001
    161  CH2        7.7600    5.0150   29.8910 C.ar  369  TRP369      0.0015
    162  N          5.0680   12.7810   23.9430 N.3   397  TYR397     -0.1241
    163  CA         3.9120   11.9370   23.7550 C.3   397  TYR397      0.1605
    164  C          2.9020   12.6870   22.9020 C.2   397  TYR397      0.2264
    165  O          2.9380   13.9040   22.8270 O.2   397  TYR397     -0.2867
    166  CB         3.2520   11.6470   25.0980 C.3   397  TYR397      0.0534
    167  CG         3.9180   10.5540   25.8980 C.ar  397  TYR397     -0.0201
    168  CD1        5.3000   10.5560   26.1210 C.ar  397  TYR397     -0.0009
    169  CD2        3.1570    9.5370   26.4850 C.ar  397  TYR397     -0.0009
    170  CE1        5.9050    9.5670   26.8850 C.ar  397  TYR397      0.0417
    171  CE2        3.7590    8.5440   27.2480 C.ar  397  TYR397      0.0417
    172  CZ         5.1360    8.5680   27.4320 C.ar  397  TYR397      0.1957
    173  OH         5.7280    7.5890   28.1880 O.3   397  TYR397     -0.2866
@<TRIPOS>BOND
     1    89    88    1
     2    73    74    1
     3    88    85    1
     4    74    75    1
     5    74    77    1
     6    26    25    2
     7    25    24    1
     8    84    75   am
     9    84    85    1
    10    35    34    2
    11    75    76    2
    12    32    33    1
    13    77    78    1
    14    85    86    1
    15    87    86    2
    16    53    52    2
    17    68    67    2
    18    86    90   am
    19    34    33    1
    20    52    51    1
    21    24    23    1
    22    24    27    1
    23    33    36    1
    24    57    58    1
    25    93    92    2
    26    78    80   ar
    27    78    79   ar
    28    58    59    1
    29    58    61    1
    30    50    51    1
    31    90    91    1
    32    46    45    2
    33    80    82   ar
    34    36    37    1
    35    45    44    1
    36    67    66    1
    37    43    44    1
    38    43    49    1
    39    27    28    1
    40    51    54    1
    41    65    59   am
    42    65    66    1
    43    59    60    2
    44    91    92    1
    45    92    94   am
    46    61    62    1
    47    79    81   ar
    48   106   104   ar
    49   106   107   ar
    50    44    47    1
    51    49    48    1
    52   104   101   ar
    53    66    69    1
    54    82    83   ar
    55    37    38    1
    56    54    55    1
    57    54    56    1
    58    28    29    1
    59   107   105   ar
    60    69    70    1
    61    94    95    1
    62    30    29    2
    63    62    64   am
    64    62    63    2
    65    81    83   ar
    66    48    47    1
    67    98    95    1
    68    98    99    1
    69    95    96    1
    70    38    39    1
    71   101    99   ar
    72   101   103   ar
    73    29    31   am
    74    99   100   ar
    75    70    71    1
    76   105   103   ar
    77   116   114   ar
    78   116   118   ar
    79   103   102   ar
    80    39    40    2
    81    96   108   am
    82    96    97    2
    83   114   113   ar
    84   119   118    1
    85   108   109    1
    86   118   117   ar
    87    71    72    1
    88   100   102   ar
    89    41    40    1
    90   165   164    2
    91   164   163    1
    92    40    42    1
    93   113   112    1
    94   113   115   ar
    95   112   109    1
    96   117   115   ar
    97   109   110    1
    98   163   162    1
    99   163   166    1
   100   111   110    2
   101   110   120   am
   102   166   167    1
   103    22    21    1
   104   167   168   ar
   105   167   169   ar
   106   135   134   ar
   107   120   121    1
   108   136   134   ar
   109   168   170   ar
   110   169   171   ar
   111   134   133    1
   112    21    18    1
   113   170   172   ar
   114   171   172   ar
   115   121   122    1
   116   121   124    1
   117   172   173    1
   118   132   133    1
   119   132   129    1
   120   123   122    2
   121    18    19    1
   122    18    17    1
   123   124   125    1
   124   130   131    2
   125   130   129    1
   126   129   128    1
   127    19    20    2
   128    16    14    1
   129   160   161   ar
   130   160   158   ar
   131   125   126    1
   132    15    14    1
   133   161   159   ar
   134    14    13    1
   135    13    10    1
   136   139   140    2
   137   139   138    1
   138   158   155   ar
   139   126   127    1
   140   141   138    1
   141   141   142    1
   142   159   157   ar
   143    10    11    1
   144    10     9    1
   145   138   137    1
   146   155   157   ar
   147   155   153   ar
   148     4     3    2
   149   142   143    1
   150   157   156   ar
   151    11    12    2
   152     8     7    1
   153     7     6    1
   154     9     3   am
   155     3     2    1
   156   146   145    1
   157   153   152    1
   158   153   154   ar
   159   147   145    1
   160     5     6    1
   161     5     2    1
   162   145   144    2
   163   152   149    1
   164   156   154   ar
   165   144   143    1
   166   151   150    2
   167     2     1    1
   168   150   149    1
   169   149   148    1
