@<TRIPOS>MOLECULE
tmp/4kcnA02.pdb
 116 111 0 0 0
SMALL
GASTEIGER

@<TRIPOS>ATOM
      1  N          4.3550    0.6040   18.1280 N.3   169  GLN169     -0.1245
      2  CA         5.7420    0.2020   17.6890 C.3   169  GLN169      0.1566
      3  C          5.5910   -0.3780   16.2870 C.2   169  GLN169      0.2260
      4  O          4.5290   -0.8730   15.9570 O.2   169  GLN169     -0.2867
      5  CB         6.3560   -0.8760   18.6020 C.3   169  GLN169      0.0367
      6  CG         6.7280   -0.3900   19.9960 C.3   169  GLN169      0.0905
      7  CD         7.3440   -1.4870   20.8410 C.2   169  GLN169      0.2608
      8  OE1        8.0540   -2.3630   20.3190 O.2   169  GLN169     -0.2717
      9  NE2        7.0640   -1.4670   22.1520 N.am  169  GLN169     -0.0878
     10  N          4.8800   -5.2800   16.5040 N.3   172  ARG172     -0.1245
     11  CA         4.1720   -5.6690   17.7250 C.3   172  ARG172      0.1563
     12  C          3.0650   -6.6970   17.4750 C.2   172  ARG172      0.2260
     13  O          2.5580   -6.8020   16.3690 O.2   172  ARG172     -0.2867
     14  CB         3.6040   -4.4540   18.4250 C.3   172  ARG172      0.0307
     15  CG         4.1720   -4.3810   19.8180 C.3   172  ARG172      0.0489
     16  CD         3.5230   -3.2920   20.5980 C.3   172  ARG172      0.2205
     17  NE         4.0150   -3.3030   21.9470 N.pl3 172  ARG172     -0.0865
     18  CZ         3.4140   -2.6790   22.9510 C.cat 172  ARG172      0.5346
     19  NH1        2.2460   -2.0550   22.7290 N.pl3 172  ARG172      0.1354
     20  NH2        3.9760   -2.7010   24.1730 N.pl3 172  ARG172      0.1354
     21  N         -2.1900   -5.4530   25.6080 N.3   188  ALA188     -0.1245
     22  CA        -1.9050   -4.0260   25.4200 C.3   188  ALA188      0.1562
     23  C         -2.4160   -3.4780   24.0830 C.2   188  ALA188      0.2260
     24  O         -2.6060   -2.2750   23.9470 O.2   188  ALA188     -0.2867
     25  CB        -0.4030   -3.7760   25.5180 C.3   188  ALA188      0.0290
     26  N          9.8110  -13.6040   20.8750 N.3   252  TRP252     -0.1227
     27  CA         9.6700  -12.1580   20.7760 C.3   252  TRP252      0.1737
     28  C         10.3770  -11.6960   19.5050 C.2   252  TRP252      0.2595
     29  O         11.0660  -12.4870   18.8630 O.2   252  TRP252     -0.2718
     30  CB        10.1770  -11.4410   22.0330 C.3   252  TRP252      0.0564
     31  CG         9.4830  -10.1070   22.2710 C.ar  252  TRP252      0.0003
     32  CD1       10.0120   -8.8650   22.0770 C.ar  252  TRP252      0.0946
     33  CD2        8.1240   -9.8990   22.7170 C.ar  252  TRP252      0.0152
     34  NE1        9.0890   -7.8960   22.3920 N.ar  252  TRP252     -0.2442
     35  CE2        7.9230   -8.4960   22.7980 C.ar  252  TRP252      0.0810
     36  CE3        7.0680  -10.7660   23.0800 C.ar  252  TRP252      0.0012
     37  CZ2        6.7000   -7.9240   23.2080 C.ar  252  TRP252      0.0191
     38  CZ3        5.8430  -10.2010   23.5080 C.ar  252  TRP252      0.0001
     39  CH2        5.6760   -8.7830   23.5660 C.ar  252  TRP252      0.0015
     40  N         10.1420  -10.4480   19.1200 N.am  253  TYR253     -0.1976
     41  CA        10.8240   -9.8020   17.9790 C.3   253  TYR253      0.1639
     42  C         12.1230   -9.1040   18.4040 C.2   253  TYR253      0.2290
     43  O         12.2670   -8.6490   19.5630 O.2   253  TYR253     -0.2864
     44  CB         9.8710   -8.8310   17.2770 C.3   253  TYR253      0.0560
     45  CG         9.1930   -7.8060   18.1980 C.ar  253  TYR253     -0.0198
     46  CD1        9.7770   -6.5620   18.4280 C.ar  253  TYR253     -0.0009
     47  CD2        7.9410   -8.0710   18.8020 C.ar  253  TYR253     -0.0009
     48  CE1        9.1700   -5.6200   19.2380 C.ar  253  TYR253      0.0417
     49  CE2        7.3200   -7.1230   19.6160 C.ar  253  TYR253      0.0417
     50  CZ         7.9400   -5.8990   19.8330 C.ar  253  TYR253      0.1957
     51  OH         7.3600   -4.9380   20.6220 O.3   253  TYR253     -0.2866
     52  N         16.8860   -3.9660   22.4130 N.3   279  TYR279     -0.1241
     53  CA        16.2190   -4.1990   23.6890 C.3   279  TYR279      0.1605
     54  C         17.1670   -4.2740   24.8630 C.2   279  TYR279      0.2264
     55  O         18.3220   -4.7510   24.7320 O.2   279  TYR279     -0.2867
     56  CB        15.4890   -5.5270   23.6110 C.3   279  TYR279      0.0534
     57  CG        14.0450   -5.3890   23.1920 C.ar  279  TYR279     -0.0201
     58  CD1       13.5780   -6.0070   22.0280 C.ar  279  TYR279     -0.0009
     59  CD2       13.1290   -4.6740   23.9870 C.ar  279  TYR279     -0.0009
     60  CE1       12.2510   -5.9130   21.6590 C.ar  279  TYR279      0.0417
     61  CE2       11.7740   -4.5920   23.6300 C.ar  279  TYR279      0.0417
     62  CZ        11.3560   -5.2100   22.4590 C.ar  279  TYR279      0.1957
     63  OH        10.0450   -5.0970   22.0730 O.3   279  TYR279     -0.2866
     64  N         12.8480   -5.4610   29.4560 N.3   283  GLU283     -0.1245
     65  CA        11.6700   -4.9960   28.7520 C.3   283  GLU283      0.1567
     66  C         10.7910   -6.1770   28.3560 C.2   283  GLU283      0.2260
     67  O          9.5680   -6.1490   28.5860 O.2   283  GLU283     -0.2867
     68  CB        12.0540   -4.1980   27.5090 C.3   283  GLU283      0.0388
     69  CG        12.6580   -2.8450   27.8120 C.3   283  GLU283      0.1160
     70  CD        12.9980   -2.1070   26.5210 C.2   283  GLU283      0.3649
     71  OE1       12.0540   -1.5070   25.9460 O.co2 283  GLU283     -0.2457
     72  OE2       14.1910   -2.0960   26.0850 O.co2 283  GLU283     -0.2457
     73  N          8.6580   -7.0010   31.8080 N.3   287  ARG287     -0.1231
     74  CA         7.4520   -6.2360   31.4960 C.3   287  ARG287      0.1694
     75  C          6.5240   -6.9730   30.5060 C.2   287  ARG287      0.2592
     76  O          5.3750   -7.2600   30.8490 O.2   287  ARG287     -0.2718
     77  CB         7.7630   -4.7790   31.0390 C.3   287  ARG287      0.0321
     78  CG         8.6380   -3.9500   32.0130 C.3   287  ARG287      0.0489
     79  CD         8.0330   -3.7800   33.4200 C.3   287  ARG287      0.2205
     80  NE         6.6070   -3.4230   33.3700 N.pl3 287  ARG287     -0.0865
     81  CZ         6.1400   -2.1910   33.1290 C.cat 287  ARG287      0.5346
     82  NH1        6.9920   -1.1730   32.9470 N.pl3 287  ARG287      0.1354
     83  NH2        4.8080   -1.9770   33.0650 N.pl3 287  ARG287      0.1354
     84  N          7.0140   -7.2660   29.2980 N.am  288  ASP288     -0.1974
     85  CA         6.1640   -7.9180   28.2820 C.3   288  ASP288      0.1709
     86  C          5.6360   -9.2810   28.7510 C.2   288  ASP288      0.2293
     87  O          4.4430   -9.6030   28.5620 O.2   288  ASP288     -0.2864
     88  CB         6.9310   -8.0580   26.9560 C.3   288  ASP288      0.1436
     89  CG         7.2700   -6.7070   26.3130 C.2   288  ASP288      0.3671
     90  OD1        6.4710   -5.7570   26.4740 O.co2 288  ASP288     -0.2456
     91  OD2        8.3500   -6.5950   25.6460 O.co2 288  ASP288     -0.2456
     92  N          4.1830   -8.6440   33.4000 N.3   291  ASP291     -0.1239
     93  CA         3.1390   -7.7230   33.8290 C.3   291  ASP291      0.1674
     94  C          1.8070   -8.4910   33.8500 C.2   291  ASP291      0.2266
     95  O          1.5010   -9.3220   32.9630 O.2   291  ASP291     -0.2867
     96  CB         2.9890   -6.5510   32.8800 C.3   291  ASP291      0.1410
     97  CG         3.9050   -5.3770   33.2020 C.2   291  ASP291      0.3668
     98  OD1        4.8160   -5.4550   34.0770 O.co2 291  ASP291     -0.2456
     99  OD2        3.6870   -4.3390   32.5310 O.co2 291  ASP291     -0.2456
    100  N         -1.1320   -7.2640   33.2570 N.3   293  SER293     -0.1202
    101  CA        -1.9820   -6.9220   32.1180 C.3   293  SER293      0.2020
    102  C         -1.2920   -7.2220   30.7870 C.2   293  SER293      0.2618
    103  O         -1.7510   -6.7790   29.7430 O.2   293  SER293     -0.2717
    104  CB        -2.3700   -5.4500   32.1960 C.3   293  SER293      0.2103
    105  OG        -1.1820   -4.6890   32.3160 O.3   293  SER293     -0.2182
    106  N         -0.1770   -7.9500   30.8210 N.am  294  ARG294     -0.1979
    107  CA         0.5090   -8.3040   29.5810 C.3   294  ARG294      0.1597
    108  C          0.4500   -9.8170   29.3460 C.2   294  ARG294      0.2287
    109  O         -0.6270  -10.4020   29.5500 O.2   294  ARG294     -0.2864
    110  CB         1.9160   -7.7010   29.5370 C.3   294  ARG294      0.0334
    111  CG         1.8970   -6.1750   29.5360 C.3   294  ARG294      0.0492
    112  CD         1.3460   -5.5710   28.2400 C.3   294  ARG294      0.2205
    113  NE         2.0180   -6.0150   27.0230 N.pl3 294  ARG294     -0.0865
    114  CZ         3.2890   -5.7240   26.6870 C.cat 294  ARG294      0.5346
    115  NH1        4.0550   -4.9960   27.4870 N.pl3 294  ARG294      0.1354
    116  NH2        3.7880   -6.1720   25.5380 N.pl3 294  ARG294      0.1354
@<TRIPOS>BOND
     1     4     3    2
     2     3     2    1
     3    13    12    2
     4    10    11    1
     5    44    41    1
     6    44    45    1
     7    12    11    1
     8     2     1    1
     9     2     5    1
    10    11    14    1
    11    41    42    1
    12    41    40    1
    13    45    46   ar
    14    45    47   ar
    15    42    43    2
    16    14    15    1
    17    46    48   ar
    18     5     6    1
    19    47    49   ar
    20    29    28    2
    21    40    28   am
    22    48    50   ar
    23    28    27    1
    24    49    50   ar
    25    15    16    1
    26    50    51    1
    27     6     7    1
    28     8     7    2
    29    16    17    1
    30    27    26    1
    31    27    30    1
    32     7     9   am
    33    60    58   ar
    34    60    62   ar
    35    17    18    2
    36    58    57   ar
    37    30    31    1
    38    63    62    1
    39    32    31   ar
    40    32    34   ar
    41    31    33   ar
    42    34    35   ar
    43    52    53    1
    44    62    61   ar
    45    33    35   ar
    46    33    36   ar
    47    19    18    1
    48    35    37   ar
    49    18    20    1
    50    36    38   ar
    51    57    56    1
    52    57    59   ar
    53    37    39   ar
    54    38    39   ar
    55    56    53    1
    56    61    59   ar
    57    53    54    1
    58    24    23    2
    59    23    22    1
    60    55    54    2
    61    22    25    1
    62    22    21    1
    63   116   114    1
    64    91    89   ar
    65    71    70   ar
    66    72    70   ar
    67    89    90   ar
    68    89    88    1
    69    70    69    1
    70   114   113    2
    71   114   115    1
    72    88    85    1
    73   113   112    1
    74    68    69    1
    75    68    65    1
    76   112   111    1
    77    85    86    1
    78    85    84    1
    79    66    67    2
    80    66    65    1
    81    87    86    2
    82    65    64    1
    83    84    75   am
    84   108   109    2
    85   108   107    1
    86   111   110    1
    87   110   107    1
    88   107   106    1
    89   103   102    2
    90    75    76    2
    91    75    74    1
    92   102   106   am
    93   102   101    1
    94    77    74    1
    95    77    78    1
    96    74    73    1
    97    78    79    1
    98   101   104    1
    99   101   100    1
   100   104   105    1
   101    99    97   ar
   102    96    97    1
   103    96    93    1
   104    82    81    1
   105    95    94    2
   106    83    81    1
   107    81    80    2
   108    97    98   ar
   109    80    79    1
   110    92    93    1
   111    93    94    1
