@<TRIPOS>MOLECULE
tmp/4kcqA02.pdb
 187 184 0 0 0
SMALL
GASTEIGER

@<TRIPOS>ATOM
      1  N         17.2330   11.4800   45.8910 N.3    40  VAL40      -0.1231
      2  CA        17.0070   11.6650   44.4480 C.3    40  VAL40       0.1692
      3  C         18.1320   11.1440   43.5460 C.2    40  VAL40       0.2591
      4  O         17.8620   10.4530   42.5440 O.2    40  VAL40      -0.2718
      5  CB        16.7450   13.1600   44.1330 C.3    40  VAL40       0.0266
      6  CG1       16.8470   13.4380   42.6330 C.3    40  VAL40       0.0020
      7  CG2       15.3650   13.5680   44.6600 C.3    40  VAL40       0.0020
      8  N         19.3750   11.4870   43.9210 N.am   41  LEU41      -0.1980
      9  CA        20.5880   11.1200   43.1980 C.3    41  LEU41       0.1596
     10  C         21.5970   10.6270   44.2310 C.2    41  LEU41       0.2287
     11  O         22.4740   11.3880   44.6460 O.2    41  LEU41      -0.2864
     12  CB        21.2030   12.3480   42.5050 C.3    41  LEU41       0.0297
     13  CG        20.5520   13.1780   41.3950 C.3    41  LEU41       0.0022
     14  CD1       21.2690   14.5210   41.2990 C.3    41  LEU41       0.0001
     15  CD2       20.6070   12.4510   40.0600 C.3    41  LEU41       0.0001
     16  N         12.6190    1.0780   29.4020 N.3   103  TRP103     -0.1241
     17  CA        11.4150    1.7030   29.9350 C.3   103  TRP103      0.1605
     18  C         10.8040    0.7850   30.9720 C.2   103  TRP103      0.2264
     19  O         10.5980    1.1710   32.1240 O.2   103  TRP103     -0.2867
     20  CB        10.4700    2.0170   28.7880 C.3   103  TRP103      0.0550
     21  CG         9.1430    2.7110   29.1680 C.ar  103  TRP103      0.0003
     22  CD1        8.7970    3.3000   30.3760 C.ar  103  TRP103      0.0946
     23  CD2        8.0370    2.9160   28.2890 C.ar  103  TRP103      0.0152
     24  NE1        7.5440    3.8540   30.2800 N.ar  103  TRP103     -0.2442
     25  CE2        7.0410    3.6130   29.0200 C.ar  103  TRP103      0.0810
     26  CE3        7.7920    2.5800   26.9450 C.ar  103  TRP103      0.0012
     27  CZ2        5.7920    3.9530   28.4560 C.ar  103  TRP103      0.0191
     28  CZ3        6.5590    2.9370   26.3750 C.ar  103  TRP103      0.0001
     29  CH2        5.5840    3.6310   27.1310 C.ar  103  TRP103      0.0015
     30  N          8.9630    5.2370   36.9930 N.3   109  CYS109     -0.1235
     31  CA         8.0300    5.5780   35.9640 C.3   109  CYS109      0.1677
     32  C          6.6730    4.8880   36.3160 C.2   109  CYS109      0.2270
     33  O          6.5880    3.6560   36.3480 O.2   109  CYS109     -0.2867
     34  CB         8.4370    5.0650   34.5820 C.3   109  CYS109      0.0956
     35  SG         7.1460    5.4330   33.3090 S.3   109  CYS109     -0.0801
     36  N         17.4310   19.5590   29.2010 N.3   171  SER171     -0.1202
     37  CA        16.8530   18.4710   29.9860 C.3   171  SER171      0.2020
     38  C         15.5860   17.8870   29.3520 C.2   171  SER171      0.2618
     39  O         15.3110   16.6890   29.4940 O.2   171  SER171     -0.2717
     40  CB        16.5640   18.9370   31.4190 C.3   171  SER171      0.2103
     41  OG        15.4720   19.8330   31.4260 O.3   171  SER171     -0.2182
     42  N         14.8060   18.7260   28.6770 N.am  172  GLN172     -0.1979
     43  CA        13.6300   18.2440   27.9210 C.3   172  GLN172      0.1601
     44  C         13.6360   18.9410   26.5500 C.2   172  GLN172      0.2287
     45  O         14.2030   20.0290   26.4140 O.2   172  GLN172     -0.2864
     46  CB        12.3050   18.5710   28.6520 C.3   172  GLN172      0.0394
     47  CG        12.0710   17.8140   29.9510 C.3   172  GLN172      0.0908
     48  CD        10.6380   18.0140   30.4620 C.2   172  GLN172      0.2608
     49  OE1        9.7090   18.2570   29.6730 O.2   172  GLN172     -0.2717
     50  NE2       10.4620   17.9270   31.7650 N.am  172  GLN172     -0.0878
     51  N         19.6820   27.7950   34.4530 N.3   194  GLU194     -0.1245
     52  CA        21.0250   27.4870   33.9580 C.3   194  GLU194      0.1567
     53  C         21.0500   27.2580   32.4550 C.2   194  GLU194      0.2260
     54  O         21.8910   27.8220   31.7700 O.2   194  GLU194     -0.2867
     55  CB        21.6540   26.3370   34.7210 C.3   194  GLU194      0.0388
     56  CG        23.0710   26.0460   34.2870 C.3   194  GLU194      0.1160
     57  CD        23.7760   25.0140   35.1570 C.2   194  GLU194      0.3649
     58  OE1       23.0900   24.1730   35.7920 O.co2 194  GLU194     -0.2457
     59  OE2       25.0380   25.0560   35.1890 O.co2 194  GLU194     -0.2457
     60  N          5.8690   15.8590   26.9200 N.3   259  PRO259     -0.2116
     61  CA         7.0190   15.7540   27.8200 C.3   259  PRO259      0.1372
     62  C          8.0350   14.8420   27.1940 C.2   259  PRO259      0.2244
     63  O          7.7560   13.6600   26.9720 O.2   259  PRO259     -0.2868
     64  CB         6.3830   15.1220   29.0960 C.3   259  PRO259      0.0268
     65  CG         5.1910   14.3520   28.5830 C.3   259  PRO259      0.0207
     66  CD         4.8560   14.8280   27.1970 C.3   259  PRO259      0.0892
     67  N         12.0320   13.8080   27.5330 N.3   261  VAL261     -0.1245
     68  CA        13.2150   13.8710   28.3620 C.3   261  VAL261      0.1561
     69  C         14.4030   13.6310   27.4500 C.2   261  VAL261      0.2260
     70  O         14.3930   12.6800   26.6540 O.2   261  VAL261     -0.2867
     71  CB        13.2240   12.7220   29.3980 C.3   261  VAL261      0.0252
     72  CG1       14.5360   12.6920   30.1730 C.3   261  VAL261      0.0019
     73  CG2       12.0340   12.8610   30.3340 C.3   261  VAL261      0.0019
     74  N         17.9750   14.3790   28.5500 N.3   263  ASN263     -0.1225
     75  CA        19.3530   14.3880   29.1600 C.3   263  ASN263      0.1785
     76  C         19.7570   13.0810   29.8400 C.2   263  ASN263      0.2597
     77  O         20.7100   13.0460   30.6140 O.2   263  ASN263     -0.2718
     78  CB        19.4940   15.5480   30.1850 C.3   263  ASN263      0.1169
     79  CG        18.5060   15.4350   31.3670 C.2   263  ASN263      0.2627
     80  OD1       18.5590   16.2470   32.2870 O.2   263  ASN263     -0.2716
     81  ND2       17.5970   14.4560   31.3390 N.am  263  ASN263     -0.0877
     82  N         19.0010   12.0180   29.6020 N.am  264  MET264     -0.1979
     83  CA        19.3020   10.6970   30.1880 C.3   264  MET264      0.1605
     84  C         20.0550    9.7620   29.2570 C.2   264  MET264      0.2287
     85  O         19.9970    9.8720   28.0280 O.2   264  MET264     -0.2864
     86  CB        18.0200   10.0180   30.6920 C.3   264  MET264      0.0413
     87  CG        17.4500   10.6750   31.9520 C.3   264  MET264      0.0598
     88  SD        15.9550    9.8000   32.5310 S.3   264  MET264     -0.1393
     89  CE        16.5520    8.7230   33.8150 C.3   264  MET264      0.0692
     90  N         13.2900   10.6060   24.8080 N.3   278  PHE278     -0.1227
     91  CA        12.0550    9.8050   24.8090 C.3   278  PHE278      0.1736
     92  C         10.8700   10.6300   25.2840 C.2   278  PHE278      0.2596
     93  O         11.0440   11.5580   26.0520 O.2   278  PHE278     -0.2718
     94  CB        12.2260    8.5270   25.6720 C.3   278  PHE278      0.0547
     95  CG        12.6010    8.7930   27.1250 C.ar  278  PHE278     -0.0202
     96  CD1       11.6070    9.0280   28.1000 C.ar  278  PHE278     -0.0042
     97  CD2       13.9470    8.8110   27.5150 C.ar  278  PHE278     -0.0042
     98  CE1       11.9420    9.2470   29.4420 C.ar  278  PHE278     -0.0003
     99  CE2       14.2910    9.0370   28.8420 C.ar  278  PHE278     -0.0003
    100  CZ        13.2890    9.2590   29.8010 C.ar  278  PHE278     -0.0000
    101  N          9.6640   10.2810   24.8320 N.am  279  SER279     -0.1938
    102  CA         8.4820   11.0690   25.1930 C.3   279  SER279      0.2055
    103  C          7.2680   10.1430   25.3360 C.2   279  SER279      0.2644
    104  O          7.2330    9.0740   24.7210 O.2   279  SER279     -0.2714
    105  CB         8.2350   12.1730   24.1420 C.3   279  SER279      0.2130
    106  OG         7.8830   11.6250   22.8850 O.3   279  SER279     -0.2179
    107  N          6.2970   10.5320   26.1750 N.am  280  GLY280     -0.1939
    108  CA         5.0440    9.7870   26.3190 C.3   280  GLY280      0.2014
    109  C          3.9330   10.8240   26.3810 C.2   280  GLY280      0.2639
    110  O          3.7120   11.5560   25.4430 O.2   280  GLY280     -0.2714
    111  N          3.2640   10.9090   27.5100 N.am  281  TRP281     -0.1959
    112  CA         2.2970   11.9930   27.7550 C.3   281  TRP281      0.1771
    113  C          2.3280   12.2810   29.2420 C.2   281  TRP281      0.2620
    114  O          2.8130   11.4670   30.0210 O.2   281  TRP281     -0.2715
    115  CB         0.8690   11.6270   27.2230 C.3   281  TRP281      0.0590
    116  CG         0.3100   10.3330   27.6870 C.ar  281  TRP281      0.0006
    117  CD1       -0.2710   10.0710   28.9100 C.ar  281  TRP281      0.0946
    118  CD2        0.2200    9.1010   26.9280 C.ar  281  TRP281      0.0152
    119  NE1       -0.6830    8.7470   28.9590 N.ar  281  TRP281     -0.2442
    120  CE2       -0.4000    8.1350   27.7610 C.ar  281  TRP281      0.0810
    121  CE3        0.6270    8.7200   25.6390 C.ar  281  TRP281      0.0012
    122  CZ2       -0.6090    6.8090   27.3560 C.ar  281  TRP281      0.0191
    123  CZ3        0.3940    7.3830   25.2210 C.ar  281  TRP281      0.0001
    124  CH2       -0.2340    6.4510   26.0840 C.ar  281  TRP281      0.0015
    125  N          1.7930   13.4340   29.6500 N.am  282  TYR282     -0.1960
    126  CA         1.8310   13.8500   31.0230 C.3   282  TYR282      0.1771
    127  C          0.8340   13.1160   31.9230 C.2   282  TYR282      0.2619
    128  O         -0.2470   12.7360   31.5030 O.2   282  TYR282     -0.2715
    129  CB         1.5830   15.3770   31.1080 C.3   282  TYR282      0.0574
    130  CG         2.8350   16.2280   31.0850 C.ar  282  TYR282     -0.0198
    131  CD1        3.7870   16.1130   32.0970 C.ar  282  TYR282     -0.0009
    132  CD2        3.0580   17.1940   30.0720 C.ar  282  TYR282     -0.0009
    133  CE1        4.9190   16.9080   32.1140 C.ar  282  TYR282      0.0417
    134  CE2        4.1950   17.9900   30.0940 C.ar  282  TYR282      0.0417
    135  CZ         5.1080   17.8480   31.1150 C.ar  282  TYR282      0.1957
    136  OH         6.2090   18.6390   31.1750 O.3   282  TYR282     -0.2866
    137  N          1.2250   12.9150   33.1710 N.am  283  MET283     -0.1977
    138  CA         0.2310   12.6830   34.2030 C.3   283  MET283      0.1605
    139  C         -0.0080   14.0800   34.7830 C.2   283  MET283      0.2287
    140  O          0.9470   14.8720   34.9480 O.2   283  MET283     -0.2864
    141  CB         0.7580   11.7210   35.2600 C.3   283  MET283      0.0413
    142  CG        -0.1590   11.5780   36.4710 C.3   283  MET283      0.0598
    143  SD         0.3110   10.1390   37.4620 S.3   283  MET283     -0.1393
    144  CE         1.5910   10.8720   38.4780 C.3   283  MET283      0.0692
    145  N          2.0160   16.1480   37.3370 N.3   286  GLU286     -0.1245
    146  CA         3.3460   16.6960   37.0390 C.3   286  GLU286      0.1567
    147  C          3.1850   18.1830   36.7300 C.2   286  GLU286      0.2260
    148  O          4.0450   18.9770   37.1240 O.2   286  GLU286     -0.2867
    149  CB         3.9780   16.0140   35.8330 C.3   286  GLU286      0.0388
    150  CG         4.0520   14.5090   35.9460 C.3   286  GLU286      0.1160
    151  CD         4.5990   13.8940   34.6630 C.2   286  GLU286      0.3649
    152  OE1        5.8270   14.0980   34.3810 O.co2 286  GLU286     -0.2457
    153  OE2        3.8270   13.2110   33.9440 O.co2 286  GLU286     -0.2457
    154  N          8.4550    7.9090   44.2390 N.3   371  TRP371     -0.1241
    155  CA         8.2160    8.5260   42.9430 C.3   371  TRP371      0.1605
    156  C          6.9170    8.0660   42.2700 C.2   371  TRP371      0.2264
    157  O          6.3850    8.7550   41.4160 O.2   371  TRP371     -0.2867
    158  CB         9.3780    8.2030   42.0030 C.3   371  TRP371      0.0550
    159  CG        10.5690    9.1150   42.1610 C.ar  371  TRP371      0.0003
    160  CD1       11.4070    9.2220   43.2310 C.ar  371  TRP371      0.0946
    161  CD2       11.0250   10.0550   41.1930 C.ar  371  TRP371      0.0152
    162  NE1       12.3950   10.1780   42.9820 N.ar  371  TRP371     -0.2442
    163  CE2       12.1760   10.6990   41.7330 C.ar  371  TRP371      0.0810
    164  CE3       10.5900   10.4000   39.9040 C.ar  371  TRP371      0.0012
    165  CZ2       12.8790   11.7020   41.0310 C.ar  371  TRP371      0.0191
    166  CZ3       11.2820   11.4060   39.2000 C.ar  371  TRP371      0.0001
    167  CH2       12.4200   12.0350   39.7670 C.ar  371  TRP371      0.0015
    168  N         20.9400    8.5230   34.8690 N.3   399  TYR399     -0.1241
    169  CA        21.3100    9.9300   34.8820 C.3   399  TYR399      0.1605
    170  C         22.7710   10.0110   34.4220 C.2   399  TYR399      0.2264
    171  O         23.4600    9.0360   34.5460 O.2   399  TYR399     -0.2867
    172  CB        21.1960   10.4460   36.3130 C.3   399  TYR399      0.0534
    173  CG        19.7680   10.3920   36.9100 C.ar  399  TYR399     -0.0201
    174  CD1       18.6820   11.0050   36.2760 C.ar  399  TYR399     -0.0009
    175  CD2       19.5550    9.7700   38.1380 C.ar  399  TYR399     -0.0009
    176  CE1       17.3870   10.9740   36.8600 C.ar  399  TYR399      0.0417
    177  CE2       18.3110    9.7340   38.7330 C.ar  399  TYR399      0.0417
    178  CZ        17.2220   10.3200   38.1020 C.ar  399  TYR399      0.1957
    179  OH        16.0210   10.2230   38.7690 O.3   399  TYR399     -0.2866
    180  N         25.9590   16.5800   33.3560 N.3   402  ASP402     -0.1239
    181  CA        25.7430   17.6450   32.3850 C.3   402  ASP402      0.1674
    182  C         26.9830   17.8510   31.5260 C.2   402  ASP402      0.2266
    183  O         28.1020   17.7340   32.0300 O.2   402  ASP402     -0.2867
    184  CB        25.3620   18.9370   33.0970 C.3   402  ASP402      0.1410
    185  CG        23.9560   18.9110   33.5870 C.2   402  ASP402      0.3668
    186  OD1       23.0790   18.3100   32.9230 O.co2 402  ASP402     -0.2456
    187  OD2       23.7050   19.4990   34.6400 O.co2 402  ASP402     -0.2456
@<TRIPOS>BOND
     1   106   105    1
     2   105   102    1
     3   104   103    2
     4    90    91    1
     5    91    92    1
     6    91    94    1
     7   101   102    1
     8   101    92   am
     9   102   103    1
    10   123   121   ar
    11   123   124   ar
    12    92    93    2
    13   103   107   am
    14   110   109    2
    15   121   118   ar
    16    94    95    1
    17   124   122   ar
    18   107   108    1
    19   108   109    1
    20    28    26   ar
    21    28    29   ar
    22   109   111   am
    23    45    44    2
    24    44    43    1
    25    70    69    2
    26    60    66    1
    27    60    61    1
    28   118   116   ar
    29   118   120   ar
    30    26    23   ar
    31    63    62    2
    32    95    97   ar
    33    95    96   ar
    34    29    27   ar
    35    62    61    1
    36    66    65    1
    37   115   116    1
    38   115   112    1
    39   122   120   ar
    40    69    68    1
    41   111   112    1
    42    97    99   ar
    43    67    68    1
    44   116   117   ar
    45   112   113    1
    46   120   119   ar
    47    61    64    1
    48    43    46    1
    49    43    42    1
    50    85    84    2
    51    96    98   ar
    52    23    25   ar
    53    23    21   ar
    54    68    71    1
    55    27    25   ar
    56    74    75    1
    57    65    64    1
    58    46    47    1
    59    42    38   am
    60    20    21    1
    61    20    17    1
    62    99   100   ar
    63   117   119   ar
    64    25    24   ar
    65    75    76    1
    66    75    78    1
    67    21    22   ar
    68    36    37    1
    69   113   125   am
    70   113   114    2
    71    84    83    1
    72    38    39    2
    73    38    37    1
    74    71    72    1
    75    71    73    1
    76    16    17    1
    77    98   100   ar
    78    82    76   am
    79    82    83    1
    80   125   126    1
    81    49    48    2
    82    76    77    2
    83    17    18    1
    84    47    48    1
    85    37    40    1
    86   132   134   ar
    87   132   130   ar
    88   134   135   ar
    89    78    79    1
    90    83    86    1
    91    24    22   ar
    92    48    50   am
    93    86    87    1
    94    18    19    2
    95   126   129    1
    96   126   127    1
    97   130   129    1
    98   130   131   ar
    99   135   136    1
   100   135   133   ar
   101    81    79   am
   102    79    80    2
   103    40    41    1
   104   128   127    2
   105   182   183    2
   106   182   181    1
   107    54    53    2
   108   127   137   am
   109    87    88    1
   110   131   133   ar
   111   181   184    1
   112   181   180    1
   113    53    52    1
   114    88    89    1
   115   186   185   ar
   116   184   185    1
   117   137   138    1
   118    35    34    1
   119   185   187   ar
   120   153   151   ar
   121    52    51    1
   122    52    55    1
   123   138   139    1
   124   138   141    1
   125    56    55    1
   126    56    57    1
   127   152   151   ar
   128   170   171    2
   129   170   169    1
   130    34    31    1
   131   151   150    1
   132   139   140    2
   133   168   169    1
   134   169   172    1
   135    57    59   ar
   136    57    58   ar
   137   141   142    1
   138   149   150    1
   139   149   146    1
   140    31    32    1
   141    31    30    1
   142   174   176   ar
   143   174   173   ar
   144   172   173    1
   145    32    33    2
   146   142   143    1
   147   147   146    1
   148   147   148    2
   149   176   178   ar
   150   173   175   ar
   151   146   145    1
   152   143   144    1
   153   178   177   ar
   154   178   179    1
   155   175   177   ar
   156   166   167   ar
   157   166   164   ar
   158   167   165   ar
   159   164   161   ar
   160    15    13    1
   161   165   163   ar
   162   161   163   ar
   163   161   159   ar
   164    14    13    1
   165    13    12    1
   166   157   156    2
   167   163   162   ar
   168   158   159    1
   169   158   155    1
   170   159   160   ar
   171   156   155    1
   172    12     9    1
   173     4     3    2
   174     6     5    1
   175   155   154    1
   176   162   160   ar
   177     9     8    1
   178     9    10    1
   179     3     8   am
   180     3     2    1
   181     5     2    1
   182     5     7    1
   183    10    11    2
   184     2     1    1
