@<TRIPOS>MOLECULE
tmp/4kcrB03.pdb
 142 140 0 0 0
SMALL
GASTEIGER

@<TRIPOS>ATOM
      1  N          5.9720   -2.0990   55.3520 N.3    38  VAL38      -0.1231
      2  CA         5.4400   -1.6610   56.6680 C.3    38  VAL38       0.1692
      3  C          6.0700   -2.3860   57.8770 C.2    38  VAL38       0.2591
      4  O          6.4660   -1.7390   58.8520 O.2    38  VAL38      -0.2718
      5  CB         3.8900   -1.7520   56.7140 C.3    38  VAL38       0.0266
      6  CG1        3.3590   -1.4140   58.0990 C.3    38  VAL38       0.0020
      7  CG2        3.2820   -0.8140   55.6810 C.3    38  VAL38       0.0020
      8  N          6.1680   -3.7160   57.7970 N.am   39  LEU39      -0.1980
      9  CA         6.6780   -4.5470   58.8980 C.3    39  LEU39       0.1596
     10  C          8.0050   -5.2470   58.5470 C.2    39  LEU39       0.2287
     11  O          8.2530   -5.5370   57.3750 O.2    39  LEU39      -0.2864
     12  CB         5.6460   -5.6170   59.2990 C.3    39  LEU39       0.0297
     13  CG         4.1720   -5.3040   59.6020 C.3    39  LEU39       0.0022
     14  CD1        3.3560   -6.5940   59.6290 C.3    39  LEU39       0.0001
     15  CD2        4.0040   -4.5360   60.9060 C.3    39  LEU39       0.0001
     16  N          7.9290    9.0570   63.0660 N.3   107  CYS107     -0.1235
     17  CA         7.1480   10.0620   63.8080 C.3   107  CYS107      0.1677
     18  C          7.3980   11.5040   63.3610 C.2   107  CYS107      0.2270
     19  O          8.4650   12.0360   63.5860 O.2   107  CYS107     -0.2867
     20  CB         7.3530    9.9400   65.3280 C.3   107  CYS107      0.0956
     21  SG         6.3820   11.1770   66.2450 S.3   107  CYS107     -0.0801
     22  N         -4.8570    0.2110   70.1420 N.3   170  GLN170     -0.1245
     23  CA        -4.9490    1.5380   70.7700 C.3   170  GLN170      0.1566
     24  C         -5.8430    1.4460   71.9870 C.2   170  GLN170      0.2260
     25  O         -6.6600    0.5180   72.0750 O.2   170  GLN170     -0.2867
     26  CB        -5.5110    2.6020   69.7950 C.3   170  GLN170      0.0367
     27  CG        -4.6010    2.9000   68.6050 C.3   170  GLN170      0.0905
     28  CD        -5.0810    4.1070   67.7630 C.2   170  GLN170      0.2608
     29  OE1       -5.6960    5.0520   68.2790 O.2   170  GLN170     -0.2717
     30  NE2       -4.7650    4.0850   66.4670 N.am  170  GLN170     -0.0878
     31  N         -5.1510    9.7780   70.6970 N.3   257  PRO257     -0.2116
     32  CA        -4.5440    8.6470   70.0390 C.3   257  PRO257      0.1372
     33  C         -3.5270    8.0020   70.9940 C.2   257  PRO257      0.2244
     34  O         -2.5740    8.6530   71.4110 O.2   257  PRO257     -0.2868
     35  CB        -3.8730    9.2790   68.7960 C.3   257  PRO257      0.0268
     36  CG        -3.4620   10.6390   69.2590 C.3   257  PRO257      0.0207
     37  CD        -4.4710   11.0440   70.3490 C.3   257  PRO257      0.0892
     38  N         -1.3900    4.5400   71.4860 N.3   259  VAL259     -0.1245
     39  CA        -0.9480    3.2950   70.9020 C.3   259  VAL259      0.1561
     40  C         -0.4280    2.3560   71.9880 C.2   259  VAL259      0.2260
     41  O          0.4070    2.7540   72.8100 O.2   259  VAL259     -0.2867
     42  CB         0.1520    3.5810   69.8660 C.3   259  VAL259      0.0252
     43  CG1        0.8570    2.2980   69.4400 C.3   259  VAL259      0.0019
     44  CG2       -0.4760    4.3130   68.6780 C.3   259  VAL259      0.0019
     45  N          2.9170   -1.5960   70.9360 N.3   262  MET262     -0.1245
     46  CA         4.3440   -1.5480   70.5560 C.3   262  MET262      0.1570
     47  C          5.2360   -1.8700   71.7540 C.2   262  MET262      0.2261
     48  O          4.8750   -1.6160   72.9170 O.2   262  MET262     -0.2867
     49  CB         4.7330   -0.1920   69.9370 C.3   262  MET262      0.0387
     50  CG         3.9570    0.1560   68.6610 C.3   262  MET262      0.0595
     51  SD         4.6560    1.6060   67.8650 S.3   262  MET262     -0.1393
     52  CE         6.0430    0.9240   66.9490 C.3   262  MET262      0.0692
     53  N          1.4880    4.7380   74.8480 N.3   276  PHE276     -0.1227
     54  CA         1.8950    6.1330   74.7440 C.3   276  PHE276      0.1736
     55  C          0.8690    6.9110   73.9450 C.2   276  PHE276      0.2596
     56  O          0.2010    6.3610   73.0590 O.2   276  PHE276     -0.2718
     57  CB         3.2960    6.2490   74.1260 C.3   276  PHE276      0.0547
     58  CG         3.4120    5.6860   72.7350 C.ar  276  PHE276     -0.0202
     59  CD1        3.0940    6.4690   71.6070 C.ar  276  PHE276     -0.0042
     60  CD2        3.9090    4.4140   72.5360 C.ar  276  PHE276     -0.0042
     61  CE1        3.2360    5.9500   70.3170 C.ar  276  PHE276     -0.0003
     62  CE2        4.0690    3.8860   71.2550 C.ar  276  PHE276     -0.0003
     63  CZ         3.7300    4.6630   70.1460 C.ar  276  PHE276     -0.0000
     64  N          0.7280    8.1870   74.2700 N.am  277  SER277     -0.1938
     65  CA        -0.2920    9.0090   73.6430 C.3   277  SER277      0.2055
     66  C          0.2190   10.4180   73.3990 C.2   277  SER277      0.2644
     67  O          1.1000   10.8870   74.0870 O.2   277  SER277     -0.2714
     68  CB        -1.5830    9.0100   74.4710 C.3   277  SER277      0.2130
     69  OG        -1.3750    9.6080   75.7450 O.3   277  SER277     -0.2179
     70  N         -0.3130   11.0750   72.3670 N.am  278  GLY278     -0.1939
     71  CA         0.0150   12.4720   72.1040 C.3   278  GLY278      0.2014
     72  C         -1.2620   13.1280   71.6460 C.2   278  GLY278      0.2639
     73  O         -2.2460   13.1740   72.3720 O.2   278  GLY278     -0.2714
     74  N         -1.2390   13.6590   70.4360 N.am  279  TRP279     -0.1959
     75  CA        -2.4470   14.1770   69.8340 C.3   279  TRP279      0.1771
     76  C         -2.3680   13.8190   68.3550 C.2   279  TRP279      0.2620
     77  O         -1.3180   13.3880   67.8670 O.2   279  TRP279     -0.2715
     78  CB        -2.6560   15.6870   70.1170 C.3   279  TRP279      0.0590
     79  CG        -1.5000   16.5820   69.7980 C.ar  279  TRP279      0.0006
     80  CD1       -1.1620   17.0750   68.5650 C.ar  279  TRP279      0.0946
     81  CD2       -0.5380   17.1260   70.7230 C.ar  279  TRP279      0.0152
     82  NE1       -0.0500   17.8780   68.6610 N.ar  279  TRP279     -0.2442
     83  CE2        0.3570   17.9230   69.9710 C.ar  279  TRP279      0.0810
     84  CE3       -0.3500   17.0170   72.1130 C.ar  279  TRP279      0.0012
     85  CZ2        1.4300   18.6110   70.5580 C.ar  279  TRP279      0.0191
     86  CZ3        0.7200   17.7060   72.7070 C.ar  279  TRP279      0.0001
     87  CH2        1.5930   18.4910   71.9250 C.ar  279  TRP279      0.0015
     88  N         -3.4900   13.9550   67.6750 N.am  280  TYR280     -0.1960
     89  CA        -3.6040   13.5850   66.2880 C.3   280  TYR280      0.1771
     90  C         -3.1020   14.6800   65.3740 C.2   280  TYR280      0.2619
     91  O         -3.2110   15.8710   65.6860 O.2   280  TYR280     -0.2715
     92  CB        -5.0680   13.3330   65.9520 C.3   280  TYR280      0.0574
     93  CG        -5.5250   11.8970   66.0680 C.ar  280  TYR280     -0.0198
     94  CD1       -4.9960   10.9280   65.2510 C.ar  280  TYR280     -0.0009
     95  CD2       -6.5500   11.5290   66.9640 C.ar  280  TYR280     -0.0009
     96  CE1       -5.4210    9.6160   65.3210 C.ar  280  TYR280      0.0417
     97  CE2       -6.9830   10.2130   67.0360 C.ar  280  TYR280      0.0417
     98  CZ        -6.4270    9.2680   66.1980 C.ar  280  TYR280      0.1957
     99  OH        -6.8550    7.9510   66.2220 O.3   280  TYR280     -0.2866
    100  N         -2.5490   14.2540   64.2520 N.am  281  MET281     -0.1977
    101  CA        -2.3680   15.1380   63.0980 C.3   281  MET281      0.1605
    102  C         -3.6160   14.8800   62.2510 C.2   281  MET281      0.2287
    103  O         -4.0000   13.7390   62.0480 O.2   281  MET281     -0.2864
    104  CB        -1.0950   14.8110   62.3000 C.3   281  MET281      0.0413
    105  CG        -1.0320   15.6020   60.9770 C.3   281  MET281      0.0598
    106  SD         0.6420   15.5210   60.2960 S.3   281  MET281     -0.1393
    107  CE         0.5140   13.9770   59.3750 C.3   281  MET281      0.0692
    108  N         -4.5250   11.8690   59.7720 N.3   284  GLU284     -0.1245
    109  CA        -4.6850   10.5020   60.2780 C.3   284  GLU284      0.1567
    110  C         -6.1680   10.1460   60.3200 C.2   284  GLU284      0.2260
    111  O         -6.5520    9.0460   59.9050 O.2   284  GLU284     -0.2867
    112  CB        -4.0810   10.3570   61.6860 C.3   284  GLU284      0.0388
    113  CG        -2.5890   10.6880   61.7550 C.3   284  GLU284      0.1160
    114  CD        -2.0800   10.4760   63.1670 C.2   284  GLU284      0.3649
    115  OE1       -2.0120    9.2910   63.5740 O.co2 284  GLU284     -0.2457
    116  OE2       -1.7740   11.4780   63.8470 O.co2 284  GLU284     -0.2457
    117  N          6.5530    7.7450   55.5210 N.3   369  TRP369     -0.1241
    118  CA         5.6390    7.9880   56.6780 C.3   369  TRP369      0.1605
    119  C          5.5250    9.4430   57.1310 C.2   369  TRP369      0.2264
    120  O          4.4760    9.8580   57.6590 O.2   369  TRP369     -0.2867
    121  CB         6.0030    7.1110   57.8890 C.3   369  TRP369      0.0550
    122  CG         5.6020    5.7000   57.7150 C.ar  369  TRP369      0.0003
    123  CD1        6.0280    4.8290   56.7440 C.ar  369  TRP369      0.0946
    124  CD2        4.6960    4.9700   58.5440 C.ar  369  TRP369      0.0152
    125  NE1        5.4220    3.6080   56.9120 N.ar  369  TRP369     -0.2442
    126  CE2        4.6060    3.6620   58.0140 C.ar  369  TRP369      0.0810
    127  CE3        3.9600    5.2940   59.6980 C.ar  369  TRP369      0.0012
    128  CZ2        3.7950    2.6680   58.5940 C.ar  369  TRP369      0.0191
    129  CZ3        3.1590    4.2990   60.2790 C.ar  369  TRP369      0.0001
    130  CH2        3.0910    3.0110   59.7320 C.ar  369  TRP369      0.0015
    131  N          7.7270   -3.0020   66.7130 N.3   397  TYR397     -0.1241
    132  CA         6.5960   -3.9000   66.5900 C.3   397  TYR397      0.1605
    133  C          6.8570   -5.2000   67.3430 C.2   397  TYR397      0.2264
    134  O          7.9860   -5.6180   67.4590 O.2   397  TYR397     -0.2867
    135  CB         6.3440   -4.2080   65.1210 C.3   397  TYR397      0.0534
    136  CG         5.9260   -3.0070   64.3210 C.ar  397  TYR397     -0.0201
    137  CD1        4.8130   -2.2450   64.6890 C.ar  397  TYR397     -0.0009
    138  CD2        6.6420   -2.6210   63.1990 C.ar  397  TYR397     -0.0009
    139  CE1        4.4100   -1.1380   63.9410 C.ar  397  TYR397      0.0417
    140  CE2        6.2580   -1.5120   62.4470 C.ar  397  TYR397      0.0417
    141  CZ         5.1430   -0.7760   62.8150 C.ar  397  TYR397      0.1957
    142  OH         4.7680    0.3220   62.0490 O.3   397  TYR397     -0.2866
@<TRIPOS>BOND
     1     1     2    1
     2   117   118    1
     3     7     5    1
     4     2     5    1
     5     2     3    1
     6   118   119    1
     7   118   121    1
     8     5     6    1
     9   123   125   ar
    10   123   122   ar
    11   125   126   ar
    12   119   120    2
    13    11    10    2
    14   122   121    1
    15   122   124   ar
    16     8     3   am
    17     8     9    1
    18     3     4    2
    19   126   124   ar
    20   126   128   ar
    21   124   127   ar
    22    10     9    1
    23   128   130   ar
    24     9    12    1
    25    12    13    1
    26   107   106    1
    27    13    14    1
    28    13    15    1
    29   127   129   ar
    30   130   129   ar
    31   108   109    1
    32   111   110    2
    33   109   110    1
    34   109   112    1
    35   106   105    1
    36   105   104    1
    37   112   113    1
    38   113   114    1
    39   103   102    2
    40   142   141    1
    41   102   101    1
    42   104   101    1
    43   140   141   ar
    44   140   138   ar
    45   141   139   ar
    46    16    17    1
    47   101   100    1
    48   114   115   ar
    49   114   116   ar
    50   138   136   ar
    51    18    19    2
    52    18    17    1
    53    17    20    1
    54   139   137   ar
    55   100    90   am
    56   136   137   ar
    57   136   135    1
    58   135   132    1
    59    94    96   ar
    60    94    93   ar
    61    96    98   ar
    62    20    21    1
    63    90    91    2
    64    90    89    1
    65    92    93    1
    66    92    89    1
    67    93    95   ar
    68    98    99    1
    69    98    97   ar
    70    89    88    1
    71    30    28   am
    72   132   131    1
    73   132   133    1
    74    52    51    1
    75    95    97   ar
    76   133   134    2
    77    88    76   am
    78    28    29    2
    79    28    27    1
    80    51    50    1
    81    77    76    2
    82    76    75    1
    83    80    82   ar
    84    80    79   ar
    85    27    26    1
    86    82    83   ar
    87    50    49    1
    88    44    42    1
    89    35    36    1
    90    35    32    1
    91    36    37    1
    92    43    42    1
    93    26    23    1
    94    79    78    1
    95    79    81   ar
    96    75    78    1
    97    75    74    1
    98    42    39    1
    99    49    46    1
   100    83    85   ar
   101    83    81   ar
   102    32    31    1
   103    32    33    1
   104    22    23    1
   105    63    61   ar
   106    63    62   ar
   107    61    59   ar
   108    37    31    1
   109    74    72   am
   110    46    45    1
   111    46    47    1
   112    85    87   ar
   113    81    84   ar
   114    23    24    1
   115    39    38    1
   116    39    40    1
   117    33    34    2
   118    62    60   ar
   119    59    58   ar
   120    72    71    1
   121    72    73    2
   122    47    48    2
   123    87    86   ar
   124    24    25    2
   125    40    41    2
   126    71    70    1
   127    84    86   ar
   128    70    66   am
   129    60    58   ar
   130    58    57    1
   131    56    55    2
   132    66    65    1
   133    66    67    2
   134    65    64    1
   135    65    68    1
   136    55    64   am
   137    55    54    1
   138    57    54    1
   139    68    69    1
   140    54    53    1
