@<TRIPOS>MOLECULE
tmp/4kcuB00.pdb
 83 73 0 0 0
SMALL
GASTEIGER

@<TRIPOS>ATOM
      1  N         -7.9740  -40.9130   30.9650 N.3    49  ARG49      -0.1245
      2  CA        -7.4050  -40.8260   29.6100 C.3    49  ARG49       0.1563
      3  C         -7.0610  -42.2020   29.0900 C.2    49  ARG49       0.2260
      4  O         -6.4540  -43.0180   29.7980 O.2    49  ARG49      -0.2867
      5  CB        -6.1670  -39.9350   29.6100 C.3    49  ARG49       0.0307
      6  CG        -5.3010  -40.0100   28.3580 C.3    49  ARG49       0.0489
      7  CD        -4.0000  -39.2290   28.5680 C.3    49  ARG49       0.2205
      8  NE        -3.1760  -39.2270   27.3650 N.pl3  49  ARG49      -0.0865
      9  CZ        -2.0650  -39.9320   27.2090 C.cat  49  ARG49       0.5346
     10  NH1       -1.5540  -40.6330   28.2240 N.pl3  49  ARG49       0.1354
     11  NH2       -1.4380  -39.9090   26.0370 N.pl3  49  ARG49       0.1354
     12  N         -5.0750  -43.9960   26.2050 N.3    51  ASN51      -0.1240
     13  CA        -4.0380  -43.7340   25.2340 C.3    51  ASN51       0.1653
     14  C         -4.1420  -44.7380   24.0730 C.2    51  ASN51       0.2266
     15  O         -3.8330  -45.8990   24.2310 O.2    51  ASN51      -0.2867
     16  CB        -2.6670  -43.8240   25.8980 C.3    51  ASN51       0.1155
     17  CG        -1.5340  -43.4810   24.9420 C.2    51  ASN51       0.2627
     18  OD1       -1.7500  -43.2090   23.7470 O.2    51  ASN51      -0.2716
     19  ND2       -0.3280  -43.5460   25.4380 N.am   51  ASN51      -0.0877
     20  N         -3.3280  -31.3170   20.9470 N.3   238  LYS238     -0.1245
     21  CA        -2.0560  -31.5400   21.5890 C.3   238  LYS238      0.1561
     22  C         -1.0010  -30.8050   20.8040 C.2   238  LYS238      0.2260
     23  O         -0.8560  -31.0220   19.5830 O.2   238  LYS238     -0.2867
     24  CB        -1.7420  -33.0290   21.6320 C.3   238  LYS238      0.0271
     25  CG        -2.7970  -33.8020   22.3970 C.3   238  LYS238      0.0035
     26  CD        -2.6280  -35.3160   22.3100 C.3   238  LYS238      0.0206
     27  CE        -1.2820  -35.7950   22.8250 C.3   238  LYS238      0.1093
     28  NZ        -1.0800  -37.2300   22.4150 N.3   238  LYS238     -0.1314
     29  N          2.6320  -30.3190   19.8760 N.3   240  GLU240     -0.1245
     30  CA         3.7010  -31.3320   19.9410 C.3   240  GLU240      0.1567
     31  C          4.9770  -30.9510   19.1770 C.2   240  GLU240      0.2260
     32  O          5.9670  -31.6580   19.2770 O.2   240  GLU240     -0.2867
     33  CB         3.2180  -32.7000   19.4210 C.3   240  GLU240      0.0388
     34  CG         2.2540  -33.4440   20.3320 C.3   240  GLU240      0.1160
     35  CD         1.9120  -34.8440   19.8280 C.2   240  GLU240      0.3649
     36  OE1        0.7830  -35.3170   20.1030 O.co2 240  GLU240     -0.2457
     37  OE2        2.7590  -35.4680   19.1270 O.co2 240  GLU240     -0.2457
     38  N         -3.5950  -29.1340   24.9500 N.3   259  MET259     -0.1245
     39  CA        -2.6500  -29.8590   25.7870 C.3   259  MET259      0.1570
     40  C         -1.2470  -29.5190   25.3940 C.2   259  MET259      0.2261
     41  O         -0.8450  -29.6640   24.2130 O.2   259  MET259     -0.2867
     42  CB        -2.8240  -31.3620   25.6770 C.3   259  MET259      0.0387
     43  CG        -1.8970  -32.1300   26.6080 C.3   259  MET259      0.0595
     44  SD        -1.7190  -33.8620   26.1260 S.3   259  MET259     -0.1393
     45  CE        -3.3300  -34.4950   26.5310 C.3   259  MET259      0.0692
     46  N          1.7710  -30.8330   25.2230 N.3   261  ALA261     -0.1245
     47  CA         2.2510  -32.2090   25.2260 C.3   261  ALA261      0.1562
     48  C          3.7670  -32.1900   25.3340 C.2   261  ALA261      0.2260
     49  O          4.4760  -32.2580   24.3360 O.2   261  ALA261     -0.2867
     50  CB         1.8030  -32.9200   23.9410 C.3   261  ALA261      0.0290
     51  N          6.1300  -33.9910   26.2730 N.3   263  GLY263     -0.1210
     52  CA         6.9930  -35.1360   25.9520 C.3   263  GLY263      0.1956
     53  C          7.4910  -35.0750   24.5130 C.2   263  GLY263      0.2611
     54  O          8.6900  -34.8920   24.2820 O.2   263  GLY263     -0.2717
     55  N          6.5550  -35.0520   23.5560 N.am  264  ASP264     -0.1973
     56  CA         6.9110  -34.9020   22.1380 C.3   264  ASP264      0.1709
     57  C          7.4720  -33.5220   21.8380 C.2   264  ASP264      0.2293
     58  O          8.3290  -33.3670   20.9760 O.2   264  ASP264     -0.2864
     59  CB         5.7070  -35.1980   21.2330 C.3   264  ASP264      0.1436
     60  CG         5.3880  -36.7110   21.1450 C.2   264  ASP264      0.3671
     61  OD1        4.1850  -37.0850   21.0100 O.co2 264  ASP264     -0.2456
     62  OD2        6.3410  -37.5130   21.2830 O.co2 264  ASP264     -0.2456
     63  N          2.9860  -34.6040   31.1220 N.3   296  THR296     -0.1218
     64  CA         4.1320  -35.4430   30.8120 C.3   296  THR296      0.1862
     65  C          5.2540  -35.3010   31.8230 C.2   296  THR296      0.2287
     66  O          5.8150  -34.2560   31.9750 O.2   296  THR296     -0.2866
     67  CB         4.6380  -35.2730   29.3650 C.3   296  THR296      0.1770
     68  OG1        3.6500  -35.7850   28.4640 O.3   296  THR296     -0.2211
     69  CG2        5.9510  -36.0710   29.1550 C.3   296  THR296      0.0375
     70  N         -1.6780  -33.5750   34.3750 N.3   328  MET328     -0.1245
     71  CA        -1.9490  -34.8910   33.8290 C.3   328  MET328      0.1570
     72  C         -0.9100  -35.8830   34.3260 C.2   328  MET328      0.2261
     73  O          0.2450  -35.5210   34.5550 O.2   328  MET328     -0.2867
     74  CB        -1.9240  -34.8540   32.3050 C.3   328  MET328      0.0387
     75  CG        -2.2670  -36.1870   31.6590 C.3   328  MET328      0.0595
     76  SD        -2.7190  -36.0030   29.9150 S.3   328  MET328     -0.1393
     77  CE        -1.2460  -36.6940   29.1390 C.3   328  MET328      0.0692
     78  N          0.6570  -39.8100   33.1850 N.3   330  SER330     -0.1217
     79  CA         0.7090  -40.8420   32.1420 C.3   330  SER330      0.1889
     80  C          1.1310  -42.1490   32.7650 C.2   330  SER330      0.2288
     81  O          0.3570  -42.7790   33.4720 O.2   330  SER330     -0.2866
     82  CB         1.7310  -40.4590   31.0530 C.3   330  SER330      0.2089
     83  OG         1.3100  -39.2970   30.3430 O.3   330  SER330     -0.2183
@<TRIPOS>BOND
     1    37    35   ar
     2    31    32    2
     3    31    30    1
     4    33    30    1
     5    33    34    1
     6    23    22    2
     7    35    36   ar
     8    35    34    1
     9    29    30    1
    10    22    21    1
    11    20    21    1
    12    58    57    2
    13    61    60   ar
    14    60    59    1
    15    60    62   ar
    16    59    56    1
    17    21    24    1
    18    24    25    1
    19    57    56    1
    20    56    55    1
    21    26    25    1
    22    26    27    1
    23    28    27    1
    24    55    53   am
    25    18    17    2
    26    50    47    1
    27    14    15    2
    28    14    13    1
    29    41    40    2
    30    54    53    2
    31    49    48    2
    32    53    52    1
    33    17    19   am
    34    17    16    1
    35    38    39    1
    36    46    47    1
    37    47    48    1
    38    13    16    1
    39    13    12    1
    40    40    39    1
    41    42    39    1
    42    42    43    1
    43    52    51    1
    44    11     9    1
    45    44    45    1
    46    44    43    1
    47     9     8    2
    48     9    10    1
    49     8     7    1
    50     6     7    1
    51     6     5    1
    52    68    67    1
    53     3     2    1
    54     3     4    2
    55    77    76    1
    56    69    67    1
    57    67    64    1
    58     5     2    1
    59     2     1    1
    60    76    75    1
    61    83    82    1
    62    64    63    1
    63    64    65    1
    64    82    79    1
    65    75    74    1
    66    65    66    2
    67    79    80    1
    68    79    78    1
    69    74    71    1
    70    80    81    2
    71    71    72    1
    72    71    70    1
    73    72    73    2
