@<TRIPOS>MOLECULE
tmp/4kcvB00.pdb
 88 78 0 0 0
SMALL
GASTEIGER

@<TRIPOS>ATOM
      1  N         31.3970  -27.3200   45.4620 N.3    49  ARG49      -0.1245
      2  CA        30.9470  -27.6310   46.8340 C.3    49  ARG49       0.1563
      3  C         31.5810  -28.9140   47.3630 C.2    49  ARG49       0.2260
      4  O         31.5440  -29.9590   46.7030 O.2    49  ARG49      -0.2867
      5  CB        29.4170  -27.7130   46.9040 C.3    49  ARG49       0.0307
      6  CG        28.8510  -28.3840   48.1460 C.3    49  ARG49       0.0489
      7  CD        27.3360  -28.5830   47.9790 C.3    49  ARG49       0.2205
      8  NE        26.7090  -29.1520   49.1660 N.pl3  49  ARG49      -0.0865
      9  CZ        26.2720  -30.4100   49.2570 C.cat  49  ARG49       0.5346
     10  NH1       26.3180  -31.2130   48.1970 N.pl3  49  ARG49       0.1354
     11  NH2       25.7520  -30.8470   50.4030 N.pl3  49  ARG49       0.1354
     12  N         31.2060  -31.6620   50.2530 N.3    51  ASN51      -0.1240
     13  CA        30.2140  -32.1080   51.2040 C.3    51  ASN51       0.1653
     14  C         30.8860  -32.8550   52.3380 C.2    51  ASN51       0.2266
     15  O         31.3030  -34.0050   52.1720 O.2    51  ASN51      -0.2867
     16  CB        29.1710  -33.0040   50.5280 C.3    51  ASN51       0.1155
     17  CG        28.1130  -33.4910   51.5030 C.2    51  ASN51       0.2627
     18  OD1       28.0170  -32.9920   52.6350 O.2    51  ASN51      -0.2716
     19  ND2       27.3270  -34.4870   51.0860 N.am   51  ASN51      -0.0877
     20  N         21.8980  -22.8960   55.4050 N.3   238  LYS238     -0.1245
     21  CA        20.9870  -23.7910   54.7160 C.3   238  LYS238      0.1561
     22  C         19.6680  -23.9220   55.4900 C.2   238  LYS238      0.2260
     23  O         19.6670  -24.1620   56.7010 O.2   238  LYS238     -0.2867
     24  CB        21.6310  -25.1630   54.4790 C.3   238  LYS238      0.0271
     25  CG        22.9630  -25.0950   53.7440 C.3   238  LYS238      0.0035
     26  CD        23.7600  -26.3880   53.8970 C.3   238  LYS238      0.0206
     27  CE        22.9680  -27.6070   53.4100 C.3   238  LYS238      0.1093
     28  NZ        23.8110  -28.8500   53.5090 N.3   238  LYS238     -0.1314
     29  N         16.5540  -25.9670   56.1380 N.3   240  GLU240     -0.1245
     30  CA        16.1390  -27.3500   55.8980 C.3   240  GLU240      0.1567
     31  C         15.3420  -27.9710   57.0450 C.2   240  GLU240      0.2260
     32  O         15.1430  -29.1860   57.0830 O.2   240  GLU240     -0.2867
     33  CB        17.3350  -28.2460   55.4900 C.3   240  GLU240      0.0388
     34  CG        18.6740  -27.8810   56.1250 C.3   240  GLU240      0.1160
     35  CD        19.8010  -28.8090   55.6970 C.2   240  GLU240      0.3649
     36  OE1       19.5580  -29.7630   54.9240 O.co2 240  GLU240     -0.2457
     37  OE2       20.9450  -28.5960   56.1410 O.co2 240  GLU240     -0.2457
     38  N         20.9010  -20.9540   51.3870 N.3   259  MET259     -0.1245
     39  CA        20.5590  -22.0500   50.5070 C.3   259  MET259      0.1570
     40  C         19.2100  -22.6230   50.9170 C.2   259  MET259      0.2261
     41  O         18.9880  -22.9000   52.0970 O.2   259  MET259     -0.2867
     42  CB        21.6210  -23.1670   50.5650 C.3   259  MET259      0.0387
     43  CG        21.3110  -24.3390   49.6150 C.3   259  MET259      0.0595
     44  SD        22.1980  -25.8660   50.0090 S.3   259  MET259     -0.1393
     45  CE        23.9090  -25.2760   49.8660 C.3   259  MET259      0.0692
     46  N         17.5620  -25.6530   51.0430 N.3   261  ALA261     -0.1245
     47  CA        18.1090  -26.9890   50.9920 C.3   261  ALA261      0.1562
     48  C         16.9580  -27.9780   50.9610 C.2   261  ALA261      0.2260
     49  O         16.4840  -28.4330   52.0070 O.2   261  ALA261     -0.2867
     50  CB        19.0050  -27.2420   52.2000 C.3   261  ALA261      0.0290
     51  N         16.1010  -30.9220   50.0220 N.3   263  GLY263     -0.1210
     52  CA        16.1430  -32.3520   50.3920 C.3   263  GLY263      0.1956
     53  C         15.6820  -32.6160   51.8200 C.2   263  GLY263      0.2611
     54  O         14.5580  -33.1140   52.0450 O.2   263  GLY263     -0.2717
     55  N         16.4780  -32.1990   52.8020 N.am  264  ASP264     -0.1973
     56  CA        16.0010  -32.2330   54.1880 C.3   264  ASP264      0.1709
     57  C         14.6990  -31.4340   54.4360 C.2   264  ASP264      0.2293
     58  O         13.8290  -31.8630   55.2020 O.2   264  ASP264     -0.2864
     59  CB        17.0940  -31.8040   55.1510 C.3   264  ASP264      0.1436
     60  CG        18.1060  -32.9340   55.4210 C.2   264  ASP264      0.3671
     61  OD1       17.6870  -34.0170   55.9140 O.co2 264  ASP264     -0.2456
     62  OD2       19.2960  -32.7650   55.0650 O.co2 264  ASP264     -0.2456
     63  N         18.6320  -25.6460   45.7970 N.3   295  ALA295     -0.1231
     64  CA        19.3850  -26.8970   45.8110 C.3   295  ALA295      0.1694
     65  C         18.4750  -28.1140   45.7810 C.2   295  ALA295      0.2592
     66  O         17.3770  -28.0920   46.3430 O.2   295  ALA295     -0.2718
     67  CB        20.3170  -26.9600   47.0300 C.3   295  ALA295      0.0304
     68  N         18.9780  -29.1890   45.1770 N.am  296  THR296     -0.1953
     69  CA        18.6210  -30.5690   45.5280 C.3   296  THR296      0.1897
     70  C         17.6210  -31.1880   44.5510 C.2   296  THR296      0.2313
     71  O         16.5050  -30.6880   44.3970 O.2   296  THR296     -0.2863
     72  CB        18.1200  -30.7160   46.9750 C.3   296  THR296      0.1794
     73  OG1       19.1640  -30.3110   47.8790 O.3   296  THR296     -0.2208
     74  CG2       17.7500  -32.2030   47.2620 C.3   296  THR296      0.0378
     75  N         21.8900  -25.5100   42.0580 N.3   328  MET328     -0.1245
     76  CA        22.8970  -26.3930   42.5780 C.3   328  MET328      0.1570
     77  C         22.7070  -27.8380   42.0940 C.2   328  MET328      0.2261
     78  O         21.5990  -28.2510   41.7160 O.2   328  MET328     -0.2867
     79  CB        22.9370  -26.3170   44.1100 C.3   328  MET328      0.0387
     80  CG        24.0640  -27.1380   44.7290 C.3   328  MET328      0.0595
     81  SD        24.3780  -26.6470   46.4220 S.3   328  MET328     -0.1393
     82  CE        23.8130  -28.0960   47.3270 C.3   328  MET328      0.0692
     83  N         23.9520  -31.8620   43.1360 N.3   330  SER330     -0.1217
     84  CA        24.5520  -32.6960   44.1450 C.3   330  SER330      0.1889
     85  C         25.0600  -33.9820   43.5150 C.2   330  SER330      0.2288
     86  O         26.0910  -33.9750   42.8280 O.2   330  SER330     -0.2866
     87  CB        23.5530  -32.9720   45.2650 C.3   330  SER330      0.2089
     88  OG        23.2010  -31.7500   45.9070 O.3   330  SER330     -0.2183
@<TRIPOS>BOND
     1    78    77    2
     2    75    76    1
     3    77    76    1
     4    76    79    1
     5    86    85    2
     6    83    84    1
     7    85    84    1
     8    79    80    1
     9    84    87    1
    10    71    70    2
    11    70    69    1
    12    80    81    1
    13    68    69    1
    14    68    65   am
    15    87    88    1
    16     1     2    1
    17    69    72    1
    18    65    64    1
    19    65    66    2
    20    63    64    1
    21    64    67    1
    22    81    82    1
    23     4     3    2
    24     2     5    1
    25     2     3    1
    26     5     6    1
    27    72    74    1
    28    72    73    1
    29     7     6    1
    30     7     8    1
    31    10     9    1
    32     8     9    2
    33     9    11    1
    34    43    44    1
    35    43    42    1
    36    45    44    1
    37    51    52    1
    38    12    13    1
    39    52    53    1
    40    39    42    1
    41    39    40    1
    42    39    38    1
    43    16    13    1
    44    16    17    1
    45    40    41    2
    46    48    47    1
    47    48    49    2
    48    47    46    1
    49    47    50    1
    50    19    17   am
    51    13    14    1
    52    17    18    2
    53    53    54    2
    54    53    55   am
    55    15    14    2
    56    55    56    1
    57    27    28    1
    58    27    26    1
    59    25    26    1
    60    25    24    1
    61    56    57    1
    62    56    59    1
    63    57    58    2
    64    24    21    1
    65    21    20    1
    66    21    22    1
    67    36    35   ar
    68    62    60   ar
    69    59    60    1
    70    60    61   ar
    71    33    30    1
    72    33    34    1
    73    22    23    2
    74    35    34    1
    75    35    37   ar
    76    30    29    1
    77    30    31    1
    78    31    32    2
