@<TRIPOS>MOLECULE
tmp/4kcxB00.pdb
 136 132 0 0 0
SMALL
GASTEIGER

@<TRIPOS>ATOM
      1  N         19.8970  -38.0760   32.5500 N.3    22  TRP22      -0.1228
      2  CA        20.6000  -37.7890   33.8080 C.3    22  TRP22       0.1722
      3  C         21.7230  -36.7360   33.7340 C.2    22  TRP22       0.2437
      4  O         21.8210  -35.9020   34.6340 O.2    22  TRP22      -0.2733
      5  CB        21.1470  -39.0620   34.4880 C.3    22  TRP22       0.0563
      6  CG        20.1150  -40.0620   34.9480 C.ar   22  TRP22       0.0003
      7  CD1       18.7670  -39.8650   35.0850 C.ar   22  TRP22       0.0946
      8  CD2       20.3610  -41.4250   35.3340 C.ar   22  TRP22       0.0152
      9  NE1       18.1640  -41.0220   35.5330 N.ar   22  TRP22      -0.2442
     10  CE2       19.1210  -41.9920   35.6850 C.ar   22  TRP22       0.0810
     11  CE3       21.5100  -42.2200   35.4070 C.ar   22  TRP22       0.0012
     12  CZ2       18.9980  -43.3200   36.1120 C.ar   22  TRP22       0.0191
     13  CZ3       21.3870  -43.5430   35.8360 C.ar   22  TRP22       0.0001
     14  CH2       20.1400  -44.0730   36.1720 C.ar   22  TRP22       0.0015
     15  N         22.5890  -36.7950   32.7000 N.am   23  PRO23      -0.2718
     16  CA        23.6400  -35.7730   32.6010 C.3    23  PRO23       0.1535
     17  C         23.0860  -34.3850   32.3060 C.2    23  PRO23       0.2598
     18  O         23.8170  -33.3840   32.4460 O.2    23  PRO23      -0.2715
     19  CB        24.4580  -36.2270   31.3900 C.3    23  PRO23       0.0310
     20  CG        24.1670  -37.7300   31.2630 C.3    23  PRO23       0.0237
     21  CD        22.7310  -37.8280   31.6500 C.3    23  PRO23       0.0939
     22  N         21.8250  -34.3300   31.8690 N.am   24  PHE24      -0.1974
     23  CA        21.1840  -33.0590   31.4870 C.3    24  PHE24       0.1639
     24  C         20.2090  -32.5230   32.5490 C.2    24  PHE24       0.2290
     25  O         19.5420  -31.5140   32.3170 O.2    24  PHE24      -0.2864
     26  CB        20.4340  -33.2110   30.1530 C.3    24  PHE24       0.0560
     27  CG        21.3140  -33.6230   29.0000 C.ar   24  PHE24      -0.0200
     28  CD1       21.9170  -32.6710   28.1920 C.ar   24  PHE24      -0.0042
     29  CD2       21.5270  -34.9740   28.7190 C.ar   24  PHE24      -0.0042
     30  CE1       22.7270  -33.0450   27.1340 C.ar   24  PHE24      -0.0003
     31  CE2       22.3370  -35.3570   27.6740 C.ar   24  PHE24      -0.0003
     32  CZ        22.9380  -34.3930   26.8770 C.ar   24  PHE24      -0.0000
     33  N         20.8540  -31.2100   35.4470 N.3    26  ARG26      -0.1245
     34  CA        21.4480  -30.1610   36.2740 C.3    26  ARG26       0.1563
     35  C         22.4360  -29.4530   35.3810 C.2    26  ARG26       0.2260
     36  O         22.9730  -30.0720   34.4350 O.2    26  ARG26      -0.2867
     37  CB        22.2080  -30.7580   37.4700 C.3    26  ARG26       0.0307
     38  CG        21.3640  -31.4840   38.5010 C.3    26  ARG26       0.0489
     39  CD        20.4670  -30.5130   39.2500 C.3    26  ARG26       0.2205
     40  NE        19.7590  -31.1600   40.3510 N.pl3  26  ARG26      -0.0865
     41  CZ        18.5580  -31.7270   40.2460 C.cat  26  ARG26       0.5346
     42  NH1       17.9190  -31.7310   39.0800 N.pl3  26  ARG26       0.1354
     43  NH2       17.9970  -32.2910   41.3100 N.pl3  26  ARG26       0.1354
     44  N         25.7750  -28.0360   33.8400 N.3    28  VAL28      -0.1231
     45  CA        27.0780  -28.6890   33.7750 C.3    28  VAL28       0.1692
     46  C         28.0130  -28.2310   34.8980 C.2    28  VAL28       0.2592
     47  O         28.2770  -27.0350   35.0420 O.2    28  VAL28      -0.2718
     48  CB        27.7260  -28.4530   32.4060 C.3    28  VAL28       0.0266
     49  CG1       29.2150  -28.8000   32.4190 C.3    28  VAL28       0.0020
     50  CG2       26.9940  -29.2650   31.3540 C.3    28  VAL28       0.0020
     51  N         28.4870  -29.1740   35.7170 N.am   29  ASP29      -0.1974
     52  CA        29.5350  -28.8350   36.6800 C.3    29  ASP29       0.1709
     53  C         30.8890  -29.0380   36.0130 C.2    29  ASP29       0.2293
     54  O         31.3740  -30.1610   35.8880 O.2    29  ASP29      -0.2864
     55  CB        29.4040  -29.6620   37.9570 C.3    29  ASP29       0.1436
     56  CG        30.3730  -29.2230   39.0590 C.2    29  ASP29       0.3671
     57  OD1       31.5050  -28.7760   38.7640 O.co2  29  ASP29      -0.2456
     58  OD2       30.0160  -29.3880   40.2440 O.co2  29  ASP29      -0.2456
     59  N         33.2330  -32.5280   36.5610 N.3    33  LEU33      -0.1245
     60  CA        33.2970  -33.3740   35.3840 C.3    33  LEU33       0.1561
     61  C         34.5170  -33.1080   34.5230 C.2    33  LEU33       0.2260
     62  O         34.6400  -33.6620   33.4500 O.2    33  LEU33      -0.2867
     63  CB        31.9890  -33.3100   34.5870 C.3    33  LEU33       0.0270
     64  CG        31.1550  -34.3960   35.2770 C.3    33  LEU33       0.0019
     65  CD1       29.8980  -33.8950   35.9870 C.3    33  LEU33       0.0001
     66  CD2       30.8590  -35.5500   34.3310 C.3    33  LEU33       0.0001
     67  N         35.6230  -30.4690   32.7010 N.3    35  LEU35      -0.1245
     68  CA        35.4130  -29.8360   31.3930 C.3    35  LEU35       0.1561
     69  C         35.7950  -28.3690   31.5320 C.2    35  LEU35       0.2260
     70  O         34.9160  -27.5120   31.5570 O.2    35  LEU35      -0.2867
     71  CB        33.9430  -29.9480   30.9580 C.3    35  LEU35       0.0270
     72  CG        33.3440  -31.3580   31.0060 C.3    35  LEU35       0.0019
     73  CD1       31.8300  -31.3250   30.7900 C.3    35  LEU35       0.0001
     74  CD2       34.0070  -32.2520   29.9830 C.3    35  LEU35       0.0001
     75  N         34.3900  -25.4450   29.4780 N.3    38  TYR38      -0.1241
     76  CA        32.9590  -25.5080   29.1570 C.3    38  TYR38       0.1605
     77  C         32.2990  -24.1280   29.0870 C.2    38  TYR38       0.2264
     78  O         31.6930  -23.7440   28.0820 O.2    38  TYR38      -0.2867
     79  CB        32.1840  -26.4000   30.1430 C.3    38  TYR38       0.0534
     80  CG        30.7730  -26.6100   29.6510 C.ar   38  TYR38      -0.0201
     81  CD1       30.5160  -27.4640   28.5690 C.ar   38  TYR38      -0.0009
     82  CD2       29.7040  -25.9170   30.2140 C.ar   38  TYR38      -0.0009
     83  CE1       29.2350  -27.6380   28.0870 C.ar   38  TYR38       0.0417
     84  CE2       28.4090  -26.0750   29.7320 C.ar   38  TYR38       0.0417
     85  CZ        28.1850  -26.9360   28.6640 C.ar   38  TYR38       0.1957
     86  OH        26.9080  -27.1100   28.1890 O.3    38  TYR38      -0.2866
     87  N         25.3330  -29.2300   23.5340 N.3    77  CYS77      -0.1235
     88  CA        26.0400  -30.5150   23.5330 C.3    77  CYS77       0.1677
     89  C         26.7600  -30.8060   22.1970 C.2    77  CYS77       0.2270
     90  O         27.9690  -31.0880   22.1730 O.2    77  CYS77      -0.2867
     91  CB        25.0530  -31.6280   23.8330 C.3    77  CYS77       0.0956
     92  SG        25.8820  -33.1750   24.1960 S.3    77  CYS77      -0.0801
     93  N         29.7840  -28.3710   21.7510 N.3    80  TYR80      -0.1227
     94  CA        30.8990  -28.5470   22.6650 C.3    80  TYR80       0.1736
     95  C         31.6240  -29.8420   22.3740 C.2    80  TYR80       0.2595
     96  O         32.8450  -29.9200   22.5050 O.2    80  TYR80      -0.2718
     97  CB        30.4370  -28.5780   24.1370 C.3    80  TYR80       0.0548
     98  CG        31.6050  -28.6850   25.0920 C.ar   80  TYR80      -0.0200
     99  CD1       31.8280  -29.8490   25.8360 C.ar   80  TYR80      -0.0009
    100  CD2       32.4840  -27.6150   25.2680 C.ar   80  TYR80      -0.0009
    101  CE1       32.9080  -29.9360   26.7260 C.ar   80  TYR80       0.0417
    102  CE2       33.5640  -27.6960   26.1300 C.ar   80  TYR80       0.0417
    103  CZ        33.7720  -28.8650   26.8580 C.ar   80  TYR80       0.1957
    104  OH        34.8390  -28.9580   27.7140 O.3    80  TYR80      -0.2866
    105  N         30.8700  -30.8590   21.9730 N.am   81  ASN81      -0.1974
    106  CA        31.4460  -32.1840   21.7900 C.3    81  ASN81       0.1688
    107  C         31.7400  -32.5080   20.3270 C.2    81  ASN81       0.2292
    108  O         31.8740  -31.5850   19.5300 O.2    81  ASN81      -0.2864
    109  CB        30.5620  -33.2210   22.5000 C.3    81  ASN81       0.1181
    110  CG        30.4420  -32.9250   23.9870 C.2    81  ASN81       0.2629
    111  OD1       31.3890  -33.1450   24.7360 O.2    81  ASN81      -0.2716
    112  ND2       29.3070  -32.3720   24.4060 N.am   81  ASN81      -0.0877
    113  N         29.9710  -40.3160   23.8740 N.3    86  ASP86      -0.1225
    114  CA        28.8420  -40.8820   24.5890 C.3    86  ASP86       0.1805
    115  C         27.7550  -39.8460   24.8390 C.2    86  ASP86       0.2597
    116  O         26.5740  -40.1100   24.5960 O.2    86  ASP86      -0.2718
    117  CB        29.2900  -41.5020   25.9210 C.3    86  ASP86       0.1424
    118  CG        30.1360  -42.7560   25.7310 C.2    86  ASP86       0.3668
    119  OD1       30.0200  -43.4020   24.6630 O.co2  86  ASP86      -0.2456
    120  OD2       30.9060  -43.1040   26.6540 O.co2  86  ASP86      -0.2456
    121  N         28.1560  -38.6580   25.3070 N.am   87  ILE87      -0.1980
    122  CA        27.1740  -37.6480   25.6510 C.3    87  ILE87       0.1595
    123  C         26.3750  -37.2430   24.4160 C.2    87  ILE87       0.2287
    124  O         25.1820  -36.9410   24.4980 O.2    87  ILE87      -0.2864
    125  CB        27.8070  -36.4190   26.3360 C.3    87  ILE87       0.0276
    126  CG1       26.7100  -35.4920   26.8710 C.3    87  ILE87       0.0022
    127  CG2       28.7590  -35.6810   25.3900 C.3    87  ILE87       0.0022
    128  CD1       26.0870  -35.9810   28.1560 C.3    87  ILE87       0.0001
    129  N         23.7490  -39.7520   23.7530 N.3    90  MET90      -0.1245
    130  CA        22.6670  -39.5370   24.6890 C.3    90  MET90       0.1570
    131  C         21.8070  -38.3540   24.2870 C.2    90  MET90       0.2261
    132  O         20.5830  -38.4410   24.3060 O.2    90  MET90      -0.2867
    133  CB        23.2240  -39.3810   26.0910 C.3    90  MET90       0.0387
    134  CG        23.6930  -40.7250   26.6170 C.3    90  MET90       0.0595
    135  SD        24.5990  -40.5210   28.1370 S.3    90  MET90      -0.1393
    136  CE        23.3160  -40.5180   29.3380 C.3    90  MET90       0.0692
@<TRIPOS>BOND
     1   108   107    2
     2   107   106    1
     3    93    94    1
     4   106   105    1
     5   106   109    1
     6   105    95   am
     7    90    89    2
     8    89    88    1
     9    95    96    2
    10    95    94    1
    11   109   110    1
    12    94    97    1
    13    88    87    1
    14    88    91    1
    15   129   130    1
    16    91    92    1
    17   113   114    1
    18   110   112   am
    19   110   111    2
    20    97    98    1
    21   131   132    2
    22   131   130    1
    23   123   124    2
    24   123   122    1
    25   114   115    1
    26   114   117    1
    27   116   115    2
    28   119   118   ar
    29   130   133    1
    30   115   121   am
    31    98   100   ar
    32    98    99   ar
    33   100   102   ar
    34   121   122    1
    35   127   125    1
    36   122   125    1
    37   118   117    1
    38   118   120   ar
    39    99   101   ar
    40   133   134    1
    41   102   103   ar
    42   125   126    1
    43   134   135    1
    44   101   103   ar
    45   103   104    1
    46   126   128    1
    47    32    30   ar
    48    32    31   ar
    49    30    28   ar
    50    31    29   ar
    51    78    77    2
    52    83    81   ar
    53    83    85   ar
    54   135   136    1
    55    86    85    1
    56    28    27   ar
    57    81    80   ar
    58    85    84   ar
    59    29    27   ar
    60    27    26    1
    61    77    76    1
    62    76    75    1
    63    76    79    1
    64    80    79    1
    65    80    82   ar
    66    84    82   ar
    67    74    72    1
    68    26    23    1
    69    73    72    1
    70    71    72    1
    71    71    68    1
    72    20    19    1
    73    20    21    1
    74    50    48    1
    75    19    16    1
    76    68    69    1
    77    68    67    1
    78    23    22    1
    79    23    24    1
    80    69    70    2
    81    21    15    1
    82    22    17   am
    83    17    18    2
    84    17    16    1
    85    25    24    2
    86    48    49    1
    87    48    45    1
    88     1     2    1
    89    16    15    1
    90    15     3   am
    91    62    61    2
    92     3     2    1
    93     3     4    2
    94    45    44    1
    95    45    46    1
    96     2     5    1
    97    66    64    1
    98    36    35    2
    99     5     6    1
   100    61    60    1
   101    63    64    1
   102    63    60    1
   103    46    47    2
   104    46    51   am
   105     6     7   ar
   106     6     8   ar
   107     7     9   ar
   108    64    65    1
   109     8    11   ar
   110     8    10   ar
   111    35    34    1
   112    60    59    1
   113    11    13   ar
   114    33    34    1
   115     9    10   ar
   116    10    12   ar
   117    51    52    1
   118    13    14   ar
   119    54    53    2
   120    53    52    1
   121    12    14   ar
   122    34    37    1
   123    52    55    1
   124    37    38    1
   125    55    56    1
   126    38    39    1
   127    57    56   ar
   128    56    58   ar
   129    42    41    1
   130    39    40    1
   131    41    40    2
   132    41    43    1
