@<TRIPOS>MOLECULE
tmp/4kd1A00.pdb
 175 167 0 0 0
SMALL
GASTEIGER

@<TRIPOS>ATOM
      1  N         53.4900   82.6040   38.7470 N.3     8  GLU8       -0.1245
      2  CA        53.6590   83.8120   37.9570 C.3     8  GLU8        0.1567
      3  C         52.8380   83.7860   36.6760 C.2     8  GLU8        0.2260
      4  O         52.3300   82.7370   36.2540 O.2     8  GLU8       -0.2867
      5  CB        55.1380   84.1020   37.6390 C.3     8  GLU8        0.0388
      6  CG        55.9980   82.8940   37.3030 C.3     8  GLU8        0.1160
      7  CD        57.2750   83.2840   36.5830 C.2     8  GLU8        0.3649
      8  OE1       57.1840   83.9790   35.5460 O.co2   8  GLU8       -0.2457
      9  OE2       58.3710   82.8970   37.0450 O.co2   8  GLU8       -0.2457
     10  N         53.3500   83.8320   32.9320 N.3    10  ILE10      -0.1231
     11  CA        54.3970   83.5090   31.9550 C.3    10  ILE10       0.1692
     12  C         54.3620   84.4640   30.7590 C.2    10  ILE10       0.2593
     13  O         55.3990   84.8990   30.2420 O.2    10  ILE10      -0.2718
     14  CB        54.2050   82.0830   31.4040 C.3    10  ILE10       0.0266
     15  CG1       54.3850   81.0540   32.5130 C.3    10  ILE10       0.0019
     16  CG2       55.1760   81.8110   30.2790 C.3    10  ILE10       0.0020
     17  CD1       54.0260   79.6010   32.0870 C.3    10  ILE10       0.0001
     18  N         53.1620   84.7750   30.2920 N.am   11  GLY11      -0.1942
     19  CA        53.0230   85.7040   29.1910 C.3    11  GLY11       0.2014
     20  C         51.5900   85.7610   28.7030 C.2    11  GLY11       0.2639
     21  O         50.6740   85.2240   29.3490 O.2    11  GLY11      -0.2714
     22  N         51.3960   86.4400   27.5800 N.am   12  GLU12      -0.1963
     23  CA        50.0840   86.5680   26.9620 C.3    12  GLU12       0.1733
     24  C         50.1500   85.8030   25.6500 C.2    12  GLU12       0.2616
     25  O         51.0000   86.0910   24.7950 O.2    12  GLU12      -0.2715
     26  CB        49.7460   88.0490   26.7070 C.3    12  GLU12       0.0429
     27  CG        49.1430   88.7780   27.9150 C.3    12  GLU12       0.1163
     28  CD        49.1870   90.3030   27.7880 C.2    12  GLU12       0.3649
     29  OE1       49.2590   90.8190   26.6470 O.co2  12  GLU12      -0.2457
     30  OE2       49.1490   90.9880   28.8390 O.co2  12  GLU12      -0.2457
     31  N         49.2870   84.7980   25.5000 N.am   13  GLY13      -0.1955
     32  CA        49.3070   83.9750   24.3020 C.3    13  GLY13       0.1869
     33  C         48.2230   84.5020   23.3990 C.2    13  GLY13       0.2309
     34  O         47.6290   85.5130   23.7210 O.2    13  GLY13      -0.2863
     35  N         48.7560   83.1450   30.1290 N.3    18  VAL18      -0.1245
     36  CA        49.3470   81.8450   30.4090 C.3    18  VAL18       0.1561
     37  C         50.0680   81.9990   31.7260 C.2    18  VAL18       0.2260
     38  O         50.8960   82.9060   31.8740 O.2    18  VAL18      -0.2867
     39  CB        50.3620   81.3990   29.3100 C.3    18  VAL18       0.0252
     40  CG1       50.8890   79.9390   29.5700 C.3    18  VAL18       0.0019
     41  CG2       49.7610   81.5190   27.8910 C.3    18  VAL18       0.0019
     42  N         51.6080   74.6750   33.3620 N.3    31  ALA31      -0.1245
     43  CA        51.2650   75.9440   32.7560 C.3    31  ALA31       0.1562
     44  C         49.7810   75.9210   32.5680 C.2    31  ALA31       0.2260
     45  O         49.2140   74.9090   32.1370 O.2    31  ALA31      -0.2867
     46  CB        51.9630   76.1200   31.4190 C.3    31  ALA31       0.0290
     47  N         46.5270   77.8230   30.7560 N.3    33  LYS33      -0.1245
     48  CA        46.0250   78.8420   29.8440 C.3    33  LYS33       0.1561
     49  C         44.5600   79.0920   30.1360 C.2    33  LYS33       0.2260
     50  O         43.7730   78.1620   30.1820 O.2    33  LYS33      -0.2867
     51  CB        46.1790   78.3970   28.3950 C.3    33  LYS33       0.0271
     52  CG        47.6340   78.1200   28.0440 C.3    33  LYS33       0.0035
     53  CD        47.8870   78.1250   26.5270 C.3    33  LYS33       0.0206
     54  CE        49.3950   77.9510   26.2990 C.3    33  LYS33       0.1093
     55  NZ        49.8830   78.2330   24.8820 N.3    33  LYS33      -0.1314
     56  N         54.2780   69.5400   23.3770 N.3    64  VAL64      -0.1245
     57  CA        54.0360   69.9180   24.7850 C.3    64  VAL64       0.1561
     58  C         52.8080   69.1500   25.2570 C.2    64  VAL64       0.2260
     59  O         51.7720   69.1810   24.6080 O.2    64  VAL64      -0.2867
     60  CB        53.8350   71.4390   24.9710 C.3    64  VAL64       0.0252
     61  CG1       53.5290   71.7580   26.4760 C.3    64  VAL64       0.0019
     62  CG2       55.0920   72.2410   24.5320 C.3    64  VAL64       0.0019
     63  N         48.8890   72.4980   30.7710 N.3    80  PHE80      -0.1227
     64  CA        49.9550   71.8890   29.9800 C.3    80  PHE80       0.1736
     65  C         51.1530   71.5940   30.8500 C.2    80  PHE80       0.2595
     66  O         51.3410   72.2510   31.8700 O.2    80  PHE80      -0.2718
     67  CB        50.4750   72.9030   28.9410 C.3    80  PHE80       0.0547
     68  CG        49.6050   73.0690   27.7390 C.ar   80  PHE80      -0.0202
     69  CD1       49.7150   72.2000   26.6630 C.ar   80  PHE80      -0.0042
     70  CD2       48.7010   74.1260   27.6760 C.ar   80  PHE80      -0.0042
     71  CE1       48.9480   72.3670   25.5370 C.ar   80  PHE80      -0.0003
     72  CE2       47.9210   74.3150   26.5470 C.ar   80  PHE80      -0.0003
     73  CZ        48.0100   73.4210   25.4880 C.ar   80  PHE80      -0.0000
     74  N         52.0280   70.6910   30.4230 N.am   81  GLU81      -0.1965
     75  CA        53.3540   70.6230   31.0810 C.3    81  GLU81       0.1733
     76  C         54.0660   71.9820   30.9960 C.2    81  GLU81       0.2616
     77  O         53.8200   72.7480   30.0640 O.2    81  GLU81      -0.2715
     78  CB        54.2300   69.5020   30.4860 C.3    81  GLU81       0.0429
     79  CG        54.8460   69.8540   29.1860 C.3    81  GLU81       0.1163
     80  CD        55.8430   68.8310   28.6260 C.2    81  GLU81       0.3649
     81  OE1       57.0040   68.6600   29.1380 O.co2  81  GLU81      -0.2457
     82  OE2       55.4720   68.1890   27.6640 O.co2  81  GLU81      -0.2457
     83  N         54.9030   72.2950   31.9810 N.am   82  PHE82      -0.1960
     84  CA        55.6630   73.5500   32.0290 C.3    82  PHE82       0.1771
     85  C         57.0640   73.3060   31.4880 C.2    82  PHE82       0.2619
     86  O         57.7030   72.2960   31.8610 O.2    82  PHE82      -0.2715
     87  CB        55.7280   74.0680   33.4860 C.3    82  PHE82       0.0574
     88  CG        56.6200   75.2710   33.6690 C.ar   82  PHE82      -0.0200
     89  CD1       57.9270   75.1240   34.1080 C.ar   82  PHE82      -0.0042
     90  CD2       56.1450   76.5620   33.3900 C.ar   82  PHE82      -0.0042
     91  CE1       58.7490   76.2690   34.2760 C.ar   82  PHE82      -0.0003
     92  CE2       56.9440   77.6920   33.5290 C.ar   82  PHE82      -0.0003
     93  CZ        58.2530   77.5580   33.9700 C.ar   82  PHE82      -0.0000
     94  N         57.5620   74.2160   30.6370 N.am   83  LEU83      -0.1963
     95  CA        58.9760   74.1990   30.2160 C.3    83  LEU83       0.1728
     96  C         59.6370   75.5170   30.5930 C.2    83  LEU83       0.2616
     97  O         58.9760   76.5470   30.6810 O.2    83  LEU83      -0.2715
     98  CB        59.1230   73.9490   28.6800 C.3    83  LEU83       0.0311
     99  CG        58.8540   72.4880   28.2600 C.3    83  LEU83       0.0022
    100  CD1       57.4140   72.3700   27.8120 C.3    83  LEU83       0.0001
    101  CD2       59.8120   71.9360   27.1640 C.3    83  LEU83       0.0001
    102  N         60.9610   75.5180   30.7680 N.am   84  HIS84      -0.1959
    103  CA        61.5780   76.6980   31.3550 C.3    84  HIS84       0.1787
    104  C         61.9340   77.8430   30.3950 C.2    84  HIS84       0.2620
    105  O         62.2080   78.9570   30.8520 O.2    84  HIS84      -0.2715
    106  CB        62.7840   76.3070   32.2370 C.3    84  HIS84       0.0785
    107  CG        62.4030   75.7200   33.5510 C.ar   84  HIS84       0.0821
    108  ND1       62.1000   74.3860   33.7140 N.ar   84  HIS84      -0.2267
    109  CD2       62.2960   76.2890   34.7860 C.ar   84  HIS84       0.1154
    110  CE1       61.7780   74.1620   34.9840 C.ar   84  HIS84       0.1986
    111  NE2       61.9070   75.3030   35.6510 N.ar   84  HIS84      -0.2212
    112  N         61.8870   77.6180   29.0770 N.am   85  GLN85      -0.1963
    113  CA        62.2320   78.7270   28.1850 C.3    85  GLN85       0.1733
    114  C         61.4890   78.5700   26.8630 C.2    85  GLN85       0.2616
    115  O         61.1080   77.4610   26.5100 O.2    85  GLN85      -0.2715
    116  CB        63.7600   78.7720   28.0120 C.3    85  GLN85       0.0408
    117  CG        64.3060   79.8020   27.0150 C.3    85  GLN85       0.0908
    118  CD        64.0400   81.2210   27.4040 C.2    85  GLN85       0.2608
    119  OE1       62.8790   81.6470   27.6400 O.2    85  GLN85      -0.2717
    120  NE2       65.1280   81.9980   27.4910 N.am   85  GLN85      -0.0878
    121  N         61.2210   79.6780   26.1750 N.am   86  ASP86      -0.1971
    122  CA        60.6650   79.6160   24.8260 C.3    86  ASP86       0.1709
    123  C         61.7300   80.0500   23.8130 C.2    86  ASP86       0.2293
    124  O         62.7140   80.7330   24.1800 O.2    86  ASP86      -0.2864
    125  CB        59.3520   80.4150   24.6930 C.3    86  ASP86       0.1436
    126  CG        59.5390   81.9130   24.8020 C.2    86  ASP86       0.3671
    127  OD1       59.9700   82.5440   23.8130 O.co2  86  ASP86      -0.2456
    128  OD2       59.2030   82.4720   25.8520 O.co2  86  ASP86      -0.2456
    129  N         62.5170   83.8460   23.2460 N.3    89  LYS89      -0.1245
    130  CA        63.4110   84.4410   24.2430 C.3    89  LYS89       0.1561
    131  C         64.8240   83.9000   24.1230 C.2    89  LYS89       0.2260
    132  O         65.8170   84.6500   24.3370 O.2    89  LYS89      -0.2867
    133  CB        62.8980   84.2010   25.6680 C.3    89  LYS89       0.0271
    134  CG        61.7410   85.1050   26.0280 C.3    89  LYS89       0.0035
    135  CD        61.4210   85.0140   27.5310 C.3    89  LYS89       0.0206
    136  CE        60.0510   85.6470   27.8110 C.3    89  LYS89       0.1093
    137  NZ        58.9210   84.8150   27.2390 N.3    89  LYS89      -0.1314
    138  N         57.6760   81.8230   19.6080 N.3   131  GLN131     -0.1231
    139  CA        57.0970   81.8980   20.9450 C.3   131  GLN131      0.1698
    140  C         56.3950   80.6210   21.3620 C.2   131  GLN131      0.2592
    141  O         56.2080   80.4040   22.5480 O.2   131  GLN131     -0.2718
    142  CB        56.1440   83.0930   21.0400 C.3   131  GLN131      0.0381
    143  CG        55.8300   83.5370   22.4600 C.3   131  GLN131      0.0905
    144  CD        55.2330   84.9470   22.5040 C.2   131  GLN131      0.2608
    145  OE1       55.8050   85.8540   23.1280 O.2   131  GLN131     -0.2717
    146  NE2       54.1000   85.1380   21.8250 N.am  131  GLN131     -0.0878
    147  N         55.9290   79.8030   20.4200 N.am  132  ASN132     -0.1974
    148  CA        55.2420   78.5630   20.8320 C.3   132  ASN132      0.1688
    149  C         56.0870   77.2910   20.6620 C.2   132  ASN132      0.2292
    150  O         55.5940   76.1490   20.6970 O.2   132  ASN132     -0.2864
    151  CB        53.7800   78.4790   20.3370 C.3   132  ASN132      0.1181
    152  CG        53.6490   78.5310   18.8270 C.2   132  ASN132      0.2629
    153  OD1       54.5260   78.0650   18.1030 O.2   132  ASN132     -0.2716
    154  ND2       52.4880   79.0200   18.3380 N.am  132  ASN132     -0.0877
    155  N         58.9930   75.4480   22.7370 N.3   134  LEU134     -0.1245
    156  CA        59.4800   75.5270   24.1180 C.3   134  LEU134      0.1561
    157  C         60.6650   74.5810   24.3460 C.2   134  LEU134      0.2260
    158  O         60.7140   73.5020   23.7840 O.2   134  LEU134     -0.2867
    159  CB        58.3270   75.1230   25.0510 C.3   134  LEU134      0.0270
    160  CG        57.0600   75.9700   24.8410 C.3   134  LEU134      0.0019
    161  CD1       56.0030   75.5750   25.8820 C.3   134  LEU134      0.0001
    162  CD2       57.3560   77.4540   24.9730 C.3   134  LEU134      0.0001
    163  N         54.1090   73.8070   21.1090 N.3   144  ALA144     -0.1231
    164  CA        52.8570   74.0780   21.8970 C.3   144  ALA144      0.1694
    165  C         51.7630   74.5200   20.9650 C.2   144  ALA144      0.2592
    166  O         52.0390   75.1360   19.9220 O.2   144  ALA144     -0.2718
    167  CB        53.0750   75.1910   22.9520 C.3   144  ALA144      0.0304
    168  N         50.5270   74.2420   21.3670 N.am  145  ASP145     -0.1974
    169  CA        49.2850   74.7670   20.7400 C.3   145  ASP145      0.1709
    170  C         48.8940   74.0720   19.4460 C.2   145  ASP145      0.2293
    171  O         48.0960   74.6220   18.6720 O.2   145  ASP145     -0.2864
    172  CB        49.2890   76.3090   20.5550 C.3   145  ASP145      0.1436
    173  CG        49.2750   77.0700   21.8710 C.2   145  ASP145      0.3671
    174  OD1       49.2060   76.4530   22.9610 O.co2 145  ASP145     -0.2456
    175  OD2       49.3510   78.3290   21.8250 O.co2 145  ASP145     -0.2456
@<TRIPOS>BOND
     1   153   152    2
     2   154   152   am
     3   171   170    2
     4   152   151    1
     5   170   169    1
     6   138   139    1
     7   166   165    2
     8   151   148    1
     9   147   148    1
    10   147   140   am
    11   172   169    1
    12   172   173    1
    13   149   150    2
    14   149   148    1
    15   169   168    1
    16   139   142    1
    17   139   140    1
    18   165   168   am
    19   165   164    1
    20   142   143    1
    21   163   164    1
    22   140   141    2
    23   146   144   am
    24   175   173   ar
    25   173   174   ar
    26   164   167    1
    27   143   144    1
    28   144   145    2
    29   155   156    1
    30   129   130    1
    31    56    57    1
    32    33    34    2
    33    33    32    1
    34   158   157    2
    35   123   124    2
    36   123   122    1
    37   127   126   ar
    38   156   157    1
    39   156   159    1
    40   131   130    1
    41   131   132    2
    42   130   133    1
    43    32    31    1
    44    62    60    1
    45    59    58    2
    46   125   126    1
    47   125   122    1
    48    57    60    1
    49    57    58    1
    50    25    24    2
    51   126   128   ar
    52   122   121    1
    53   160   162    1
    54   160   159    1
    55   160   161    1
    56    55    54    1
    57    60    61    1
    58    73    71   ar
    59    73    72   ar
    60    31    24   am
    61    71    69   ar
    62    24    23    1
    63   133   134    1
    64   134   135    1
    65   121   114   am
    66    54    53    1
    67   115   114    2
    68    53    52    1
    69    72    70   ar
    70    29    28   ar
    71    69    68   ar
    72    26    23    1
    73    26    27    1
    74   114   113    1
    75    23    22    1
    76   117   118    1
    77   117   116    1
    78   101    99    1
    79   137   136    1
    80   118   120   am
    81   118   119    2
    82   135   136    1
    83    22    20   am
    84    82    80   ar
    85    70    68   ar
    86    68    67    1
    87    28    27    1
    88    28    30   ar
    89   100    99    1
    90    41    39    1
    91   116   113    1
    92    52    51    1
    93   113   112    1
    94    99    98    1
    95    51    48    1
    96    80    81   ar
    97    80    79    1
    98    98    95    1
    99    20    19    1
   100    20    21    2
   101    67    64    1
   102   112   104   am
   103    79    78    1
   104    19    18    1
   105    39    40    1
   106    39    36    1
   107    48    49    1
   108    48    47    1
   109    64    63    1
   110    64    65    1
   111    77    76    2
   112    35    36    1
   113    49    50    2
   114    95    96    1
   115    95    94    1
   116    13    12    2
   117    16    14    1
   118    18    12   am
   119   104   105    2
   120   104   103    1
   121    36    37    1
   122    74    65   am
   123    74    75    1
   124    78    75    1
   125    96    97    2
   126    96   102   am
   127    94    85   am
   128    12    11    1
   129   102   103    1
   130    65    66    2
   131    76    75    1
   132    76    83   am
   133   103   106    1
   134    14    11    1
   135    14    15    1
   136    46    43    1
   137    85    86    2
   138    85    84    1
   139    37    38    2
   140    11    10    1
   141    83    84    1
   142    84    87    1
   143    17    15    1
   144    45    44    2
   145   106   107    1
   146    44    43    1
   147    43    42    1
   148    90    92   ar
   149    90    88   ar
   150    87    88    1
   151    92    93   ar
   152   107   108   ar
   153   107   109   ar
   154    88    89   ar
   155   108   110   ar
   156    93    91   ar
   157    89    91   ar
   158   109   111   ar
   159   110   111   ar
   160     8     7   ar
   161     4     3    2
   162     7     9   ar
   163     7     6    1
   164     3     2    1
   165     6     5    1
   166     5     2    1
   167     2     1    1
