@<TRIPOS>MOLECULE
tmp/4kd7B01.pdb
 198 192 0 0 0
SMALL
GASTEIGER

@<TRIPOS>ATOM
      1  N         45.2460  -23.5800   21.3230 N.3     7  ILE7       -0.1231
      2  CA        45.3550  -24.4790   22.4640 C.3     7  ILE7        0.1692
      3  C         44.3640  -25.6290   22.3280 C.2     7  ILE7        0.2592
      4  O         43.1740  -25.4200   22.0840 O.2     7  ILE7       -0.2718
      5  CB        45.2120  -23.7430   23.8260 C.3     7  ILE7        0.0266
      6  CG1       45.4400  -24.7160   24.9880 C.3     7  ILE7        0.0019
      7  CG2       43.8620  -23.0420   23.9380 C.3     7  ILE7        0.0020
      8  CD1       45.7610  -24.0390   26.3050 C.3     7  ILE7        0.0001
      9  N         44.8630  -26.8480   22.4820 N.am    8  VAL8       -0.1966
     10  CA        44.0460  -28.0240   22.2330 C.3     8  VAL8        0.1727
     11  C         44.5010  -29.2020   23.0890 C.2     8  VAL8        0.2616
     12  O         45.6840  -29.3440   23.3860 O.2     8  VAL8       -0.2715
     13  CB        44.0960  -28.4130   20.7280 C.3     8  VAL8        0.0290
     14  CG1       45.5140  -28.7900   20.3130 C.3     8  VAL8        0.0023
     15  CG2       43.1120  -29.5310   20.4110 C.3     8  VAL8        0.0023
     16  N         43.5500  -30.0280   23.5080 N.am    9  ALA9       -0.1977
     17  CA        43.8690  -31.3090   24.1180 C.3     9  ALA9        0.1597
     18  C         43.4540  -32.3850   23.1250 C.2     9  ALA9        0.2287
     19  O         42.3300  -32.3770   22.6240 O.2     9  ALA9       -0.2864
     20  CB        43.1340  -31.4720   25.4340 C.3     9  ALA9        0.0319
     21  N         29.5900  -33.6250   21.2250 N.3    20  GLY20      -0.1210
     22  CA        29.5480  -32.2930   21.7990 C.3    20  GLY20       0.1956
     23  C         30.1960  -32.2420   23.1680 C.2    20  GLY20       0.2612
     24  O         29.8840  -31.3760   23.9840 O.2    20  GLY20      -0.2717
     25  N         31.1010  -33.1820   23.4170 N.am   21  ASP21      -0.1959
     26  CA        31.7880  -33.2710   24.6980 C.3    21  ASP21       0.1840
     27  C         33.2210  -33.7240   24.4710 C.2    21  ASP21       0.2621
     28  O         33.6020  -34.0610   23.3510 O.2    21  ASP21      -0.2715
     29  CB        31.0690  -34.2670   25.6100 C.3    21  ASP21       0.1450
     30  CG        31.2160  -33.9280   27.0810 C.2    21  ASP21       0.3671
     31  OD1       32.2810  -33.4070   27.4740 O.co2  21  ASP21      -0.2456
     32  OD2       30.2660  -34.1850   27.8490 O.co2  21  ASP21      -0.2456
     33  N         34.0190  -33.7190   25.5310 N.am   22  LEU22      -0.1977
     34  CA        35.3830  -34.2150   25.4390 C.3    22  LEU22       0.1596
     35  C         35.3400  -35.7370   25.4200 C.2    22  LEU22       0.2287
     36  O         34.5240  -36.3430   26.1120 O.2    22  LEU22      -0.2864
     37  CB        36.2270  -33.6980   26.6060 C.3    22  LEU22       0.0297
     38  CG        36.3230  -32.1730   26.7140 C.3    22  LEU22       0.0022
     39  CD1       37.1450  -31.7500   27.9250 C.3    22  LEU22       0.0001
     40  CD2       36.9040  -31.5850   25.4350 C.3    22  LEU22       0.0001
     41  N         37.3320  -37.8340   26.6510 N.3    24  TRP24      -0.1241
     42  CA        37.8230  -38.4020   27.8990 C.3    24  TRP24       0.1605
     43  C         37.0560  -37.8260   29.0870 C.2    24  TRP24       0.2264
     44  O         36.4540  -36.7590   28.9720 O.2    24  TRP24      -0.2867
     45  CB        39.3200  -38.1000   28.0350 C.3    24  TRP24       0.0550
     46  CG        39.6710  -36.6940   27.6590 C.ar   24  TRP24       0.0003
     47  CD1       39.6470  -35.5960   28.4700 C.ar   24  TRP24       0.0946
     48  CD2       40.0930  -36.2320   26.3710 C.ar   24  TRP24       0.0152
     49  NE1       40.0300  -34.4800   27.7660 N.ar   24  TRP24      -0.2442
     50  CE2       40.3050  -34.8430   26.4740 C.ar   24  TRP24       0.0810
     51  CE3       40.3100  -36.8580   25.1400 C.ar   24  TRP24       0.0012
     52  CZ2       40.7300  -34.0720   25.3950 C.ar   24  TRP24       0.0191
     53  CZ3       40.7300  -36.0910   24.0710 C.ar   24  TRP24       0.0001
     54  CH2       40.9360  -34.7130   24.2050 C.ar   24  TRP24       0.0015
     55  N         44.1790  -30.4650   33.5720 N.3    30  GLU30      -0.1231
     56  CA        44.2080  -30.1100   32.1630 C.3    30  GLU30       0.1699
     57  C         43.2900  -28.9100   31.9650 C.2    30  GLU30       0.2592
     58  O         43.6050  -27.9750   31.2180 O.2    30  GLU30      -0.2718
     59  CB        43.7690  -31.2920   31.2980 C.3    30  GLU30       0.0402
     60  CG        44.4860  -31.3780   29.9610 C.3    30  GLU30       0.1161
     61  CD        44.0190  -30.3240   28.9830 C.2    30  GLU30       0.3649
     62  OE1       42.8010  -30.0590   28.9390 O.co2  30  GLU30      -0.2457
     63  OE2       44.8680  -29.7630   28.2580 O.co2  30  GLU30      -0.2457
     64  N         42.1540  -28.9460   32.6590 N.am   31  PHE31      -0.1976
     65  CA        41.1990  -27.8460   32.6480 C.3    31  PHE31       0.1639
     66  C         41.8150  -26.5930   33.2540 C.2    31  PHE31       0.2290
     67  O         41.6800  -25.4980   32.7090 O.2    31  PHE31      -0.2864
     68  CB        39.9300  -28.2250   33.4120 C.3    31  PHE31       0.0560
     69  CG        38.9470  -27.0980   33.5410 C.ar   31  PHE31      -0.0200
     70  CD1       38.1480  -26.7390   32.4720 C.ar   31  PHE31      -0.0042
     71  CD2       38.8230  -26.3970   34.7290 C.ar   31  PHE31      -0.0042
     72  CE1       37.2470  -25.7060   32.5830 C.ar   31  PHE31      -0.0003
     73  CE2       37.9220  -25.3610   34.8430 C.ar   31  PHE31      -0.0003
     74  CZ        37.1310  -25.0150   33.7680 C.ar   31  PHE31      -0.0000
     75  N         44.9160  -25.9230   33.4650 N.3    33  TYR33      -0.1227
     76  CA        45.9580  -25.5000   32.5390 C.3    33  TYR33       0.1736
     77  C         45.3580  -24.6620   31.4140 C.2    33  TYR33       0.2595
     78  O         45.8730  -23.5900   31.0850 O.2    33  TYR33      -0.2718
     79  CB        46.6780  -26.7260   31.9750 C.3    33  TYR33       0.0548
     80  CG        47.7390  -26.4250   30.9350 C.ar   33  TYR33      -0.0200
     81  CD1       49.0230  -26.0440   31.3090 C.ar   33  TYR33      -0.0009
     82  CD2       47.4610  -26.5390   29.5780 C.ar   33  TYR33      -0.0009
     83  CE1       49.9940  -25.7780   30.3610 C.ar   33  TYR33       0.0417
     84  CE2       48.4260  -26.2730   28.6240 C.ar   33  TYR33       0.0417
     85  CZ        49.6910  -25.8920   29.0200 C.ar   33  TYR33       0.1957
     86  OH        50.6520  -25.6270   28.0710 O.3    33  TYR33      -0.2866
     87  N         44.2580  -25.1460   30.8390 N.am   34  PHE34      -0.1962
     88  CA        43.5720  -24.4190   29.7700 C.3    34  PHE34       0.1771
     89  C         43.1250  -23.0410   30.2500 C.2    34  PHE34       0.2619
     90  O         43.3760  -22.0200   29.5930 O.2    34  PHE34      -0.2715
     91  CB        42.3620  -25.2230   29.2820 C.3    34  PHE34       0.0574
     92  CG        41.3980  -24.4300   28.4400 C.ar   34  PHE34      -0.0200
     93  CD1       41.6630  -24.1840   27.1030 C.ar   34  PHE34      -0.0042
     94  CD2       40.2200  -23.9450   28.9840 C.ar   34  PHE34      -0.0042
     95  CE1       40.7770  -23.4620   26.3260 C.ar   34  PHE34      -0.0003
     96  CE2       39.3310  -23.2210   28.2150 C.ar   34  PHE34      -0.0003
     97  CZ        39.6100  -22.9790   26.8830 C.ar   34  PHE34      -0.0000
     98  N         42.4820  -23.0250   31.4150 N.am   35  GLN35      -0.1977
     99  CA        41.9480  -21.7960   31.9870 C.3    35  GLN35       0.1601
    100  C         43.0390  -20.7770   32.2590 C.2    35  GLN35       0.2287
    101  O         42.9120  -19.6110   31.8930 O.2    35  GLN35      -0.2864
    102  CB        41.1820  -22.0880   33.2780 C.3    35  GLN35       0.0394
    103  CG        39.8590  -22.8010   33.0800 C.3    35  GLN35       0.0908
    104  CD        38.7410  -21.8480   32.7020 C.2    35  GLN35       0.2608
    105  OE1       38.5550  -21.5230   31.5290 O.2    35  GLN35      -0.2717
    106  NE2       37.9970  -21.3860   33.7000 N.am   35  GLN35      -0.0878
    107  N         31.9000  -25.4760   19.5130 N.3    56  THR56      -0.1218
    108  CA        32.7330  -25.3550   20.7040 C.3    56  THR56       0.1862
    109  C         32.0430  -24.4560   21.7170 C.2    56  THR56       0.2287
    110  O         32.0210  -24.7570   22.9110 O.2    56  THR56      -0.2866
    111  CB        34.1180  -24.7710   20.3720 C.3    56  THR56       0.1770
    112  OG1       34.7940  -25.6380   19.4530 O.3    56  THR56      -0.2211
    113  CG2       34.9580  -24.6360   21.6350 C.3    56  THR56       0.0375
    114  N         29.2100  -26.2640   23.3040 N.3    59  SER59      -0.1202
    115  CA        29.6240  -27.4470   24.0540 C.3    59  SER59       0.2020
    116  C         30.0010  -27.0610   25.4790 C.2    59  SER59       0.2619
    117  O         30.0380  -27.9030   26.3750 O.2    59  SER59      -0.2717
    118  CB        30.7990  -28.1440   23.3690 C.3    59  SER59       0.2103
    119  OG        31.9950  -27.4030   23.5320 O.3    59  SER59      -0.2182
    120  N         30.2780  -25.7760   25.6750 N.am   60  ILE60      -0.1966
    121  CA        30.5960  -25.2440   26.9910 C.3    60  ILE60       0.1712
    122  C         29.3030  -25.0780   27.7730 C.2    60  ILE60       0.2458
    123  O         28.3530  -24.4800   27.2680 O.2    60  ILE60      -0.2730
    124  CB        31.2810  -23.8680   26.8810 C.3    60  ILE60       0.0289
    125  CG1       32.5130  -23.9530   25.9780 C.3    60  ILE60       0.0022
    126  CG2       31.6630  -23.3410   28.2560 C.3    60  ILE60       0.0023
    127  CD1       33.1740  -22.6160   25.7150 C.3    60  ILE60       0.0001
    128  N         29.2510  -25.6350   28.9940 N.am   61  PRO61      -0.2727
    129  CA        28.0740  -25.5270   29.8640 C.3    61  PRO61       0.1402
    130  C         27.5820  -24.0830   29.9540 C.2    61  PRO61       0.2269
    131  O         28.3820  -23.1760   30.1830 O.2    61  PRO61      -0.2865
    132  CB        28.6070  -25.9940   31.2180 C.3    61  PRO61       0.0296
    133  CG        29.6900  -26.9610   30.8650 C.3    61  PRO61       0.0237
    134  CD        30.3330  -26.4160   29.6210 C.3    61  PRO61       0.0939
    135  N         28.7540  -21.4120   32.2050 N.3    64  ASN64      -0.1240
    136  CA        30.1550  -21.0400   32.0690 C.3    64  ASN64       0.1653
    137  C         30.4090  -20.1810   30.8340 C.2    64  ASN64       0.2266
    138  O         31.5550  -19.8610   30.5180 O.2    64  ASN64      -0.2867
    139  CB        31.0440  -22.2860   32.0530 C.3    64  ASN64       0.1155
    140  CG        30.9440  -23.0890   33.3370 C.2    64  ASN64       0.2627
    141  OD1       30.8820  -22.5260   34.4310 O.2    64  ASN64      -0.2716
    142  ND2       30.9200  -24.4100   33.2100 N.am   64  ASN64      -0.0877
    143  N         33.2880  -17.4430   28.5210 N.3    67  LEU67      -0.1245
    144  CA        34.4540  -17.7910   29.3250 C.3    67  LEU67       0.1561
    145  C         34.9260  -16.5930   30.1440 C.2    67  LEU67       0.2260
    146  O         35.3890  -15.5910   29.5970 O.2    67  LEU67      -0.2867
    147  CB        35.5830  -18.3330   28.4460 C.3    67  LEU67       0.0270
    148  CG        35.2530  -19.6390   27.7170 C.3    67  LEU67       0.0019
    149  CD1       36.4730  -20.1870   26.9910 C.3    67  LEU67       0.0001
    150  CD2       34.6820  -20.6690   28.6810 C.3    67  LEU67       0.0001
    151  N         37.8510  -13.4340   30.0090 N.3    70  ARG70      -0.1245
    152  CA        38.3440  -13.3810   28.6390 C.3    70  ARG70       0.1563
    153  C         37.2800  -12.8100   27.7130 C.2    70  ARG70       0.2260
    154  O         36.0850  -12.9270   27.9830 O.2    70  ARG70      -0.2867
    155  CB        38.7310  -14.7820   28.1630 C.3    70  ARG70       0.0307
    156  CG        39.9450  -15.3760   28.8580 C.3    70  ARG70       0.0489
    157  CD        39.8200  -16.8880   28.9650 C.3    70  ARG70       0.2205
    158  NE        38.8100  -17.2720   29.9470 N.pl3  70  ARG70      -0.0865
    159  CZ        38.5810  -18.5210   30.3380 C.cat  70  ARG70       0.5346
    160  NH1       39.2910  -19.5190   29.8320 N.pl3  70  ARG70       0.1354
    161  NH2       37.6410  -18.7720   31.2400 N.pl3  70  ARG70       0.1354
    162  N         40.6310  -21.7720   20.5210 N.3   115  VAL115     -0.1245
    163  CA        40.3360  -22.8640   21.4410 C.3   115  VAL115      0.1561
    164  C         39.4590  -23.9610   20.8420 C.2   115  VAL115      0.2260
    165  O         38.8650  -24.7470   21.5770 O.2   115  VAL115     -0.2867
    166  CB        39.6850  -22.3430   22.7360 C.3   115  VAL115      0.0252
    167  CG1       40.6110  -21.3580   23.4270 C.3   115  VAL115      0.0019
    168  CG2       38.3430  -21.6930   22.4350 C.3   115  VAL115      0.0019
    169  N         41.0820  -24.5370   14.0390 N.3   121  TYR121     -0.1241
    170  CA        42.4560  -24.9850   14.2190 C.3   121  TYR121      0.1605
    171  C         43.1810  -25.0280   12.8850 C.2   121  TYR121      0.2264
    172  O         44.3120  -24.5730   12.7800 O.2   121  TYR121     -0.2867
    173  CB        42.5060  -26.3710   14.8620 C.3   121  TYR121      0.0534
    174  CG        42.2300  -26.3880   16.3460 C.ar  121  TYR121     -0.0201
    175  CD1       42.7430  -25.4030   17.1790 C.ar  121  TYR121     -0.0009
    176  CD2       41.4750  -27.4030   16.9190 C.ar  121  TYR121     -0.0009
    177  CE1       42.4990  -25.4200   18.5380 C.ar  121  TYR121      0.0417
    178  CE2       41.2250  -27.4280   18.2760 C.ar  121  TYR121      0.0417
    179  CZ        41.7410  -26.4340   19.0810 C.ar  121  TYR121      0.1957
    180  OH        41.4940  -26.4540   20.4350 O.3   121  TYR121     -0.2866
    181  N         49.8110  -24.8480   21.5560 N.3   134  PHE134     -0.1241
    182  CA        49.8400  -25.5290   22.8440 C.3   134  PHE134      0.1605
    183  C         48.9980  -26.7970   22.7640 C.2   134  PHE134      0.2264
    184  O         47.7650  -26.7500   22.7660 O.2   134  PHE134     -0.2867
    185  CB        49.3700  -24.6010   23.9680 C.3   134  PHE134      0.0534
    186  CG        50.2840  -23.4270   24.2050 C.ar  134  PHE134     -0.0203
    187  CD1       50.2730  -22.3350   23.3530 C.ar  134  PHE134     -0.0042
    188  CD2       51.1570  -23.4190   25.2800 C.ar  134  PHE134     -0.0042
    189  CE1       51.1120  -21.2590   23.5680 C.ar  134  PHE134     -0.0003
    190  CE2       51.9970  -22.3440   25.4990 C.ar  134  PHE134     -0.0003
    191  CZ        51.9750  -21.2630   24.6420 C.ar  134  PHE134     -0.0000
    192  N         48.1400  -30.5590   24.2510 N.3   136  THR136     -0.1218
    193  CA        48.1700  -31.5630   25.3000 C.3   136  THR136      0.1862
    194  C         47.9980  -32.9430   24.6800 C.2   136  THR136      0.2287
    195  O         46.9220  -33.2940   24.1940 O.2   136  THR136     -0.2866
    196  CB        47.0390  -31.3320   26.3200 C.3   136  THR136      0.1770
    197  OG1       47.2430  -30.0770   26.9780 O.3   136  THR136     -0.2211
    198  CG2       47.0140  -32.4420   27.3560 C.3   136  THR136      0.0375
@<TRIPOS>BOND
     1   172   171    2
     2   171   170    1
     3   169   170    1
     4   170   173    1
     5   173   174    1
     6   174   176   ar
     7   174   175   ar
     8   176   178   ar
     9   175   177   ar
    10   178   179   ar
    11   177   179   ar
    12   179   180    1
    13   112   111    1
    14   107   108    1
    15    14    13    1
    16   111   108    1
    17   111   113    1
    18    15    13    1
    19   162   163    1
    20   108   109    1
    21    13    10    1
    22   164   163    1
    23   164   165    2
    24    21    22    1
    25     1     2    1
    26   163   166    1
    27   181   182    1
    28   109   110    2
    29    22    23    1
    30     4     3    2
    31    10     9    1
    32    10    11    1
    33     3     2    1
    34     3     9   am
    35   168   166    1
    36     2     5    1
    37    19    18    2
    38   166   167    1
    39   183   184    2
    40   183   182    1
    41   182   185    1
    42    11    12    2
    43    11    16   am
    44    18    17    1
    45    23    25   am
    46    23    24    2
    47   114   115    1
    48    28    27    2
    49   187   189   ar
    50   187   186   ar
    51   118   119    1
    52   118   115    1
    53    25    26    1
    54    16    17    1
    55   189   191   ar
    56     5     7    1
    57     5     6    1
    58   185   186    1
    59   115   116    1
    60    53    54   ar
    61    53    51   ar
    62    17    20    1
    63   195   194    2
    64   186   188   ar
    65    54    52   ar
    66   192   193    1
    67    27    26    1
    68    27    33   am
    69   191   190   ar
    70   194   193    1
    71    26    29    1
    72     6     8    1
    73    51    48   ar
    74   188   190   ar
    75   193   196    1
    76    52    50   ar
    77    35    34    1
    78    35    36    2
    79    40    38    1
    80    34    33    1
    81    34    37    1
    82   116   120   am
    83   116   117    2
    84    29    30    1
    85   120   121    1
    86   127   125    1
    87   125   124    1
    88   196   197    1
    89   196   198    1
    90    95    97   ar
    91    95    93   ar
    92    48    50   ar
    93    48    46   ar
    94    50    49   ar
    95    37    38    1
    96    41    42    1
    97    38    39    1
    98   124   121    1
    99   124   126    1
   100    97    96   ar
   101   121   122    1
   102   149   148    1
   103    30    31   ar
   104    30    32   ar
   105    93    92   ar
   106   123   122    2
   107    46    45    1
   108    46    47   ar
   109   153   154    2
   110   153   152    1
   111   148   147    1
   112   148   150    1
   113    49    47   ar
   114   122   128   am
   115    42    45    1
   116    42    43    1
   117    86    85    1
   118   155   152    1
   119   155   156    1
   120    96    94   ar
   121    63    61   ar
   122    92    94   ar
   123    92    91    1
   124   147   144    1
   125   143   144    1
   126    84    85   ar
   127    84    82   ar
   128   152   151    1
   129   156   157    1
   130    62    61   ar
   131   157   158    1
   132    44    43    2
   133    61    60    1
   134   128   134    1
   135   128   129    1
   136    85    83   ar
   137    91    88    1
   138   144   145    1
   139    82    80   ar
   140    90    89    2
   141   146   145    2
   142   134   133    1
   143    88    89    1
   144    88    87    1
   145   160   159    1
   146   129   130    1
   147   129   132    1
   148   158   159    2
   149   130   131    2
   150    60    59    1
   151    89    98   am
   152   159   161    1
   153    83    81   ar
   154   138   137    2
   155   137   136    1
   156    87    77   am
   157   133   132    1
   158    80    81   ar
   159    80    79    1
   160    78    77    2
   161    58    57    2
   162    59    56    1
   163    77    76    1
   164    98    99    1
   165   105   104    2
   166   101   100    2
   167    57    56    1
   168    57    64   am
   169    79    76    1
   170    99   100    1
   171    99   102    1
   172   139   136    1
   173   139   140    1
   174   136   135    1
   175    56    55    1
   176    70    72   ar
   177    70    69   ar
   178    76    75    1
   179    72    74   ar
   180    65    64    1
   181    65    66    1
   182    65    68    1
   183   104   103    1
   184   104   106   am
   185    67    66    2
   186   103   102    1
   187   142   140   am
   188   140   141    2
   189    68    69    1
   190    69    71   ar
   191    74    73   ar
   192    71    73   ar
