@<TRIPOS>MOLECULE
tmp/4kdyA01.pdb
 107 99 0 0 0
SMALL
GASTEIGER

@<TRIPOS>ATOM
      1  N         -0.9020  -20.9330   22.0070 N.3    15  TYR15      -0.1241
      2  CA        -0.2660  -21.7690   20.9900 C.3    15  TYR15       0.1605
      3  C          0.7030  -20.8440   20.2560 C.2    15  TYR15       0.2264
      4  O          0.3810  -19.6850   19.9540 O.2    15  TYR15      -0.2867
      5  CB        -1.3270  -22.3360   20.0610 C.3    15  TYR15       0.0534
      6  CG        -0.8520  -23.1300   18.8690 C.ar   15  TYR15      -0.0201
      7  CD1       -0.2340  -24.3710   19.0190 C.ar   15  TYR15      -0.0009
      8  CD2       -1.0540  -22.6480   17.5860 C.ar   15  TYR15      -0.0009
      9  CE1        0.1640  -25.1000   17.9080 C.ar   15  TYR15       0.0417
     10  CE2       -0.6530  -23.3640   16.4760 C.ar   15  TYR15       0.0417
     11  CZ        -0.0490  -24.5860   16.6460 C.ar   15  TYR15       0.1957
     12  OH         0.3340  -25.2780   15.5050 O.3    15  TYR15      -0.2866
     13  N          1.8750  -20.1350   17.2880 N.3    17  ARG17      -0.1231
     14  CA         1.5100  -19.2920   16.1410 C.3    17  ARG17       0.1694
     15  C          0.0330  -18.9100   16.0470 C.2    17  ARG17       0.2592
     16  O         -0.4550  -18.5470   14.9770 O.2    17  ARG17      -0.2718
     17  CB         2.0390  -19.8520   14.8130 C.3    17  ARG17       0.0321
     18  CG         1.3570  -21.0860   14.3000 C.3    17  ARG17       0.0489
     19  CD         1.8540  -21.3630   12.8930 C.3    17  ARG17       0.2205
     20  NE         1.3740  -22.6510   12.4200 N.pl3  17  ARG17      -0.0865
     21  CZ         1.9260  -23.3230   11.4130 C.cat  17  ARG17       0.5346
     22  NH1        1.4130  -24.4930   11.0550 N.pl3  17  ARG17       0.1354
     23  NH2        2.9730  -22.8290   10.7680 N.pl3  17  ARG17       0.1354
     24  N         -0.6740  -18.9690   17.1700 N.am   18  SER18      -0.1952
     25  CA        -2.0280  -18.4080   17.2280 C.3    18  SER18       0.1924
     26  C         -1.9350  -16.8950   17.2210 C.2    18  SER18       0.2314
     27  O         -1.3700  -16.3090   18.1600 O.2    18  SER18      -0.2863
     28  CB        -2.7480  -18.8640   18.4930 C.3    18  SER18       0.2116
     29  OG        -3.8840  -18.0560   18.7520 O.3    18  SER18      -0.2180
     30  N         -2.6370  -27.0140   19.4350 N.3    42  LEU42      -0.1231
     31  CA        -3.8070  -26.9900   18.5650 C.3    42  LEU42       0.1693
     32  C         -3.6310  -27.8970   17.3510 C.2    42  LEU42       0.2591
     33  O         -4.6130  -28.4270   16.8320 O.2    42  LEU42      -0.2718
     34  CB        -4.1030  -25.5480   18.1290 C.3    42  LEU42       0.0284
     35  CG        -4.5790  -24.6200   19.2530 C.3    42  LEU42       0.0019
     36  CD1       -4.7570  -23.2120   18.7040 C.3    42  LEU42       0.0001
     37  CD2       -5.8820  -25.1200   19.8610 C.3    42  LEU42       0.0001
     38  N         -2.3880  -28.0830   16.9000 N.am   43  LEU43      -0.1980
     39  CA        -2.1210  -28.9970   15.7780 C.3    43  LEU43       0.1596
     40  C         -2.4390  -30.4300   16.2070 C.2    43  LEU43       0.2287
     41  O         -3.1120  -31.1550   15.4850 O.2    43  LEU43      -0.2864
     42  CB        -0.6620  -28.8790   15.3070 C.3    43  LEU43       0.0297
     43  CG        -0.2140  -29.7050   14.0840 C.3    43  LEU43       0.0022
     44  CD1       -1.0580  -29.4040   12.8500 C.3    43  LEU43       0.0001
     45  CD2        1.2610  -29.4640   13.7840 C.3    43  LEU43       0.0001
     46  N         -6.1690  -30.8970   16.3920 N.3    46  GLU46      -0.1245
     47  CA        -6.7020  -30.9770   15.0300 C.3    46  GLU46       0.1567
     48  C         -6.5180  -32.3840   14.4430 C.2    46  GLU46       0.2260
     49  O         -7.4700  -32.9930   13.9490 O.2    46  GLU46      -0.2867
     50  CB        -6.0240  -29.9490   14.1160 C.3    46  GLU46       0.0388
     51  CG        -6.4180  -30.0750   12.6450 C.3    46  GLU46       0.1160
     52  CD        -5.6270  -29.1650   11.7210 C.2    46  GLU46       0.3649
     53  OE1       -4.3740  -29.1990   11.7540 O.co2  46  GLU46      -0.2457
     54  OE2       -6.2610  -28.4330   10.9340 O.co2  46  GLU46      -0.2457
     55  N         -8.5890  -21.3760   11.5960 N.3   117  ALA117     -0.1245
     56  CA        -8.2630  -22.7280   11.1640 C.3   117  ALA117      0.1562
     57  C         -9.5010  -23.5730   10.8280 C.2   117  ALA117      0.2260
     58  O         -9.4740  -24.3920    9.9000 O.2   117  ALA117     -0.2867
     59  CB        -7.4080  -23.4240   12.2130 C.3   117  ALA117      0.0290
     60  N        -10.7210  -22.4260    7.3640 N.3   120  LEU120     -0.1231
     61  CA        -9.8630  -22.8990    6.2780 C.3   120  LEU120      0.1693
     62  C        -10.0390  -24.4050    6.0420 C.2   120  LEU120      0.2591
     63  O        -10.1040  -24.8410    4.8930 O.2   120  LEU120     -0.2718
     64  CB        -8.3970  -22.5410    6.5350 C.3   120  LEU120      0.0284
     65  CG        -8.0860  -21.0390    6.6290 C.3   120  LEU120      0.0019
     66  CD1       -6.5820  -20.8240    6.7280 C.3   120  LEU120      0.0001
     67  CD2       -8.6420  -20.2330    5.4610 C.3   120  LEU120      0.0001
     68  N        -10.1420  -25.1760    7.1190 N.am  121  ARG121     -0.1980
     69  CA       -10.3270  -26.6220    7.0070 C.3   121  ARG121      0.1597
     70  C        -11.6120  -26.9890    6.2680 C.2   121  ARG121      0.2287
     71  O        -11.6100  -27.8960    5.4340 O.2   121  ARG121     -0.2864
     72  CB       -10.3130  -27.2770    8.3840 C.3   121  ARG121      0.0334
     73  CG       -10.5600  -28.7780    8.3380 C.3   121  ARG121      0.0492
     74  CD       -10.1290  -29.4620    9.6250 C.3   121  ARG121      0.2205
     75  NE       -10.6420  -28.8030   10.8260 N.pl3 121  ARG121     -0.0865
     76  CZ        -9.9100  -28.0390   11.6320 C.cat 121  ARG121      0.5346
     77  NH1       -8.6320  -27.8290   11.3660 N.pl3 121  ARG121      0.1354
     78  NH2      -10.4530  -27.4860   12.7060 N.pl3 121  ARG121      0.1354
     79  N        -11.1640  -26.1860    2.3680 N.3   124  ARG124     -0.1245
     80  CA       -10.3520  -27.1340    1.5960 C.3   124  ARG124      0.1563
     81  C        -10.9330  -28.5470    1.5890 C.2   124  ARG124      0.2260
     82  O        -10.5440  -29.3660    0.7580 O.2   124  ARG124     -0.2867
     83  CB        -8.8890  -27.1420    2.0540 C.3   124  ARG124      0.0307
     84  CG        -8.6350  -27.6900    3.4430 C.3   124  ARG124      0.0489
     85  CD        -7.1450  -27.7970    3.7150 C.3   124  ARG124      0.2205
     86  NE        -6.9050  -28.1560    5.1070 N.pl3 124  ARG124     -0.0865
     87  CZ        -6.8390  -27.2950    6.1190 C.cat 124  ARG124      0.5346
     88  NH1       -6.6380  -27.7420    7.3510 N.pl3 124  ARG124      0.1354
     89  NH2       -6.9750  -25.9880    5.9160 N.pl3 124  ARG124      0.1354
     90  N          2.5290  -15.8630    5.9590 N.3   179  ARG179     -0.1245
     91  CA         2.3050  -17.2960    6.0110 C.3   179  ARG179      0.1563
     92  C          1.5390  -17.8010    4.7750 C.2   179  ARG179      0.2260
     93  O          1.8740  -18.8470    4.2120 O.2   179  ARG179     -0.2867
     94  CB         1.5610  -17.6320    7.3090 C.3   179  ARG179      0.0307
     95  CG         1.2590  -19.0920    7.4920 C.3   179  ARG179      0.0489
     96  CD         0.7060  -19.4100    8.8730 C.3   179  ARG179      0.2205
     97  NE         0.2940  -20.8060    8.8950 N.pl3 179  ARG179     -0.0865
     98  CZ        -0.4600  -21.3830    9.8240 C.cat 179  ARG179      0.5346
     99  NH1       -0.9080  -20.6990   10.8680 N.pl3 179  ARG179      0.1354
    100  NH2       -0.7610  -22.6670    9.7030 N.pl3 179  ARG179      0.1354
    101  N          4.4370  -26.8090    9.7350 N.3   221  THR221     -0.1218
    102  CA         3.6170  -26.9450    8.5430 C.3   221  THR221      0.1862
    103  C          3.4580  -25.5460    7.9230 C.2   221  THR221      0.2287
    104  O          3.7380  -24.5340    8.5750 O.2   221  THR221     -0.2866
    105  CB         2.2660  -27.6100    8.8760 C.3   221  THR221      0.1770
    106  OG1        1.5760  -26.8400    9.8610 O.3   221  THR221     -0.2211
    107  CG2        2.4950  -29.0170    9.4290 C.3   221  THR221      0.0375
@<TRIPOS>BOND
     1    82    81    2
     2    81    80    1
     3    80    83    1
     4    80    79    1
     5    83    84    1
     6    84    85    1
     7    85    86    1
     8    93    92    2
     9    92    91    1
    10    63    62    2
    11    86    87    2
    12    71    70    2
    13    67    65    1
    14    89    87    1
    15    90    91    1
    16    91    94    1
    17    62    61    1
    18    62    68   am
    19    87    88    1
    20    70    69    1
    21    61    64    1
    22    61    60    1
    23    64    65    1
    24    65    66    1
    25    69    68    1
    26    69    72    1
    27    94    95    1
    28    95    96    1
    29   103   102    1
    30   103   104    2
    31    73    72    1
    32    73    74    1
    33   102   105    1
    34   102   101    1
    35    96    97    1
    36   105   107    1
    37   105   106    1
    38    97    98    2
    39    74    75    1
    40   100    98    1
    41    98    99    1
    42    58    57    2
    43    23    21    1
    44    75    76    2
    45    57    56    1
    46    54    52   ar
    47    22    21    1
    48    56    55    1
    49    56    59    1
    50    77    76    1
    51    21    20    2
    52    76    78    1
    53    52    53   ar
    54    52    51    1
    55    20    19    1
    56    51    50    1
    57    44    43    1
    58    19    18    1
    59    45    43    1
    60    49    48    2
    61    43    42    1
    62    50    47    1
    63    18    17    1
    64    48    47    1
    65    17    14    1
    66    16    15    2
    67    47    46    1
    68    42    39    1
    69    41    40    2
    70    12    11    1
    71    39    40    1
    72    39    38    1
    73    15    14    1
    74    15    24   am
    75    14    13    1
    76    10    11   ar
    77    10     8   ar
    78    11     9   ar
    79    33    32    2
    80    38    32   am
    81    24    25    1
    82    26    25    1
    83    26    27    2
    84    25    28    1
    85    32    31    1
    86     8     6   ar
    87     9     7   ar
    88    34    31    1
    89    34    35    1
    90    28    29    1
    91    31    30    1
    92    36    35    1
    93     6     7   ar
    94     6     5    1
    95    35    37    1
    96     4     3    2
    97     5     2    1
    98     3     2    1
    99     2     1    1
