@<TRIPOS>MOLECULE
tmp/4ke4A00.pdb
 138 135 0 0 0
SMALL
GASTEIGER

@<TRIPOS>ATOM
      1  N         12.5860  -60.3810  -17.1950 N.3    32  PRO32      -0.2116
      2  CA        11.9630  -61.6940  -16.9780 C.3    32  PRO32       0.1372
      3  C         10.5880  -61.8010  -17.6330 C.2    32  PRO32       0.2244
      4  O          9.8600  -60.8060  -17.7180 O.2    32  PRO32      -0.2868
      5  CB        11.8270  -61.7600  -15.4580 C.3    32  PRO32       0.0268
      6  CG        12.9710  -60.9460  -14.9590 C.3    32  PRO32       0.0207
      7  CD        13.0940  -59.8030  -15.9370 C.3    32  PRO32       0.0892
      8  N          7.0720  -60.4130  -11.6720 N.3    36  THR36      -0.1204
      9  CA         7.9690  -60.1270  -10.5630 C.3    36  THR36       0.1979
     10  C          7.1480  -59.8820   -9.2970 C.2    36  THR36       0.2459
     11  O          6.2570  -59.0430   -9.2850 O.2    36  THR36      -0.2732
     12  CB         8.8140  -58.8780  -10.8630 C.3    36  THR36       0.1783
     13  OG1        9.5030  -59.0670  -12.1050 O.3    36  THR36      -0.2211
     14  CG2        9.8180  -58.6150   -9.7390 C.3    36  THR36       0.0376
     15  N          7.4480  -60.6210   -8.2240 N.am   37  PRO37      -0.2728
     16  CA         6.6310  -60.5280   -7.0150 C.3    37  PRO37       0.1401
     17  C          7.1960  -59.5700   -5.9770 C.2    37  PRO37       0.2269
     18  O          8.4160  -59.4850   -5.8130 O.2    37  PRO37      -0.2865
     19  CB         6.6960  -61.9570   -6.4750 C.3    37  PRO37       0.0296
     20  CG         8.0990  -62.3800   -6.8010 C.3    37  PRO37       0.0237
     21  CD         8.4250  -61.7220   -8.1390 C.3    37  PRO37       0.0939
     22  N          4.9170  -66.8290   -1.8330 N.3   125  LYS125     -0.1245
     23  CA         4.2330  -66.9920   -3.1100 C.3   125  LYS125      0.1561
     24  C          2.7240  -67.1380   -2.9130 C.2   125  LYS125      0.2260
     25  O          1.9420  -66.8160   -3.8070 O.2   125  LYS125     -0.2867
     26  CB         4.7890  -68.2040   -3.8580 C.3   125  LYS125      0.0271
     27  CG         5.3020  -67.8900   -5.2590 C.3   125  LYS125      0.0035
     28  CD         6.5010  -66.9380   -5.2470 C.3   125  LYS125      0.0206
     29  CE         7.0110  -66.7000   -6.6610 C.3   125  LYS125      0.1093
     30  NZ         8.3420  -66.0300   -6.7100 N.3   125  LYS125     -0.1314
     31  N          7.2110  -57.3410  -16.0310 N.3   162  HIS162     -0.1241
     32  CA         8.1530  -56.2280  -16.1440 C.3   162  HIS162      0.1621
     33  C          8.3000  -55.5840  -17.5200 C.2   162  HIS162      0.2264
     34  O          8.9390  -54.5430  -17.6300 O.2   162  HIS162     -0.2867
     35  CB         9.5250  -56.5730  -15.5360 C.3   162  HIS162      0.0745
     36  CG         9.7150  -56.0240  -14.1540 C.ar  162  HIS162      0.0817
     37  ND1       10.9400  -55.6090  -13.6740 N.ar  162  HIS162     -0.2268
     38  CD2        8.8240  -55.8070  -13.1510 C.ar  162  HIS162      0.1154
     39  CE1       10.7960  -55.1670  -12.4340 C.ar  162  HIS162      0.1986
     40  NE2        9.5230  -55.2740  -12.0950 N.ar  162  HIS162     -0.2212
     41  N         18.0880  -62.6010  -17.9560 N.3   360  ARG360     -0.1245
     42  CA        18.8050  -63.2750  -16.8780 C.3   360  ARG360      0.1563
     43  C         17.8570  -64.1510  -16.0700 C.2   360  ARG360      0.2260
     44  O         16.6900  -63.8020  -15.8590 O.2   360  ARG360     -0.2867
     45  CB        19.5140  -62.2470  -15.9950 C.3   360  ARG360      0.0307
     46  CG        20.3850  -61.3090  -16.8190 C.3   360  ARG360      0.0489
     47  CD        21.2920  -60.4430  -15.9730 C.3   360  ARG360      0.2205
     48  NE        20.6930  -59.1560  -15.6450 N.pl3 360  ARG360     -0.0865
     49  CZ        20.9750  -58.0050  -16.2550 C.cat 360  ARG360      0.5346
     50  NH1       21.8610  -57.9440  -17.2500 N.pl3 360  ARG360      0.1354
     51  NH2       20.3610  -56.9040  -15.8560 N.pl3 360  ARG360      0.1354
     52  N         22.6460  -66.3630  -12.1160 N.3   365  PHE365     -0.1241
     53  CA        23.0080  -66.0150  -10.7470 C.3   365  PHE365      0.1605
     54  C         23.4780  -67.2010   -9.9260 C.2   365  PHE365      0.2264
     55  O         23.8640  -67.0480   -8.7690 O.2   365  PHE365     -0.2867
     56  CB        21.8460  -65.3060  -10.0570 C.3   365  PHE365      0.0534
     57  CG        21.3460  -64.1170  -10.8110 C.ar  365  PHE365     -0.0203
     58  CD1       22.1500  -62.9920  -10.9600 C.ar  365  PHE365     -0.0042
     59  CD2       20.0800  -64.1170  -11.3730 C.ar  365  PHE365     -0.0042
     60  CE1       21.7010  -61.8900  -11.6560 C.ar  365  PHE365     -0.0003
     61  CE2       19.6170  -63.0180  -12.0620 C.ar  365  PHE365     -0.0003
     62  CZ        20.4310  -61.8990  -12.2070 C.ar  365  PHE365     -0.0000
     63  N         20.5650  -56.0620   -5.7560 N.3   373  THR373     -0.1218
     64  CA        19.7360  -54.9230   -6.0960 C.3   373  THR373      0.1862
     65  C         19.4550  -54.1250   -4.8390 C.2   373  THR373      0.2287
     66  O         19.1450  -54.6900   -3.7930 O.2   373  THR373     -0.2866
     67  CB        18.4050  -55.3760   -6.7200 C.3   373  THR373      0.1770
     68  OG1       18.6710  -56.2880   -7.8030 O.3   373  THR373     -0.2211
     69  CG2       17.6180  -54.1610   -7.2310 C.3   373  THR373      0.0375
     70  N         17.1050  -51.2980   -2.9570 N.3   375  TRP375     -0.1241
     71  CA        15.8280  -50.5950   -2.9570 C.3   375  TRP375      0.1605
     72  C         15.9090  -49.4460   -1.9700 C.2   375  TRP375      0.2264
     73  O         14.8920  -48.8430   -1.5960 O.2   375  TRP375     -0.2867
     74  CB        14.6850  -51.5440   -2.5720 C.3   375  TRP375      0.0550
     75  CG        14.3640  -52.5620   -3.6200 C.ar  375  TRP375      0.0003
     76  CD1       14.9940  -52.7270   -4.8150 C.ar  375  TRP375      0.0946
     77  CD2       13.3180  -53.5530   -3.5780 C.ar  375  TRP375      0.0152
     78  NE1       14.4160  -53.7550   -5.5180 N.ar  375  TRP375     -0.2442
     79  CE2       13.3850  -54.2800   -4.7830 C.ar  375  TRP375      0.0810
     80  CE3       12.3320  -53.8880   -2.6400 C.ar  375  TRP375      0.0012
     81  CZ2       12.5080  -55.3290   -5.0790 C.ar  375  TRP375      0.0191
     82  CZ3       11.4580  -54.9290   -2.9340 C.ar  375  TRP375      0.0001
     83  CH2       11.5570  -55.6410   -4.1400 C.ar  375  TRP375      0.0015
     84  N         10.8360  -58.3240   -1.6660 N.3   395  PRO395     -0.2116
     85  CA        10.5770  -59.2540   -2.7730 C.3   395  PRO395      0.1372
     86  C          9.6780  -60.3880   -2.2980 C.2   395  PRO395      0.2244
     87  O          9.7230  -60.7550   -1.1290 O.2   395  PRO395     -0.2868
     88  CB        11.9720  -59.7770   -3.1460 C.3   395  PRO395      0.0268
     89  CG        12.8400  -59.4590   -1.9960 C.3   395  PRO395      0.0207
     90  CD        12.2550  -58.2850   -1.2770 C.3   395  PRO395      0.0892
     91  N          9.3460  -63.8360   -2.8050 N.3   397  GLY397     -0.1210
     92  CA         9.6520  -65.2440   -2.9700 C.3   397  GLY397      0.1956
     93  C         10.7060  -65.4680   -4.0340 C.2   397  GLY397      0.2612
     94  O         10.4420  -65.3400   -5.2350 O.2   397  GLY397     -0.2717
     95  N         11.9100  -65.8060   -3.5900 N.am  398  ILE398     -0.1965
     96  CA        13.0230  -66.0450   -4.4970 C.3   398  ILE398      0.1727
     97  C         13.1740  -67.5430   -4.7340 C.2   398  ILE398      0.2616
     98  O         13.3790  -68.3040   -3.7890 O.2   398  ILE398     -0.2715
     99  CB        14.3230  -65.4870   -3.9110 C.3   398  ILE398      0.0290
    100  CG1       14.1480  -64.0020   -3.5840 C.3   398  ILE398      0.0022
    101  CG2       15.4700  -65.7110   -4.8750 C.3   398  ILE398      0.0023
    102  CD1       15.2580  -63.4430   -2.7050 C.3   398  ILE398      0.0001
    103  N         13.0730  -67.9620   -5.9920 N.am  399  ALA399     -0.1963
    104  CA        12.9930  -69.3840   -6.3250 C.3   399  ALA399      0.1728
    105  C         14.3550  -70.0500   -6.4890 C.2   399  ALA399      0.2616
    106  O         14.4750  -71.2800   -6.3840 O.2   399  ALA399     -0.2715
    107  CB        12.1470  -69.5890   -7.5920 C.3   399  ALA399      0.0334
    108  N         15.3830  -69.2470   -6.7400 N.am  400  TYR400     -0.1974
    109  CA        16.7030  -69.8080   -6.9830 C.3   400  TYR400      0.1639
    110  C         17.8230  -69.0030   -6.3100 C.2   400  TYR400      0.2290
    111  O         17.6200  -67.8660   -5.8980 O.2   400  TYR400     -0.2864
    112  CB        16.9430  -69.9570   -8.4860 C.3   400  TYR400      0.0560
    113  CG        16.6790  -68.6920   -9.2620 C.ar  400  TYR400     -0.0198
    114  CD1       17.5790  -67.6320   -9.2340 C.ar  400  TYR400     -0.0009
    115  CD2       15.5270  -68.5540  -10.0340 C.ar  400  TYR400     -0.0009
    116  CE1       17.3350  -66.4570   -9.9530 C.ar  400  TYR400      0.0417
    117  CE2       15.2770  -67.3870  -10.7600 C.ar  400  TYR400      0.0417
    118  CZ        16.1800  -66.3470  -10.7140 C.ar  400  TYR400      0.1957
    119  OH        15.9330  -65.1940  -11.4340 O.3   400  TYR400     -0.2866
    120  N         20.5440  -64.4130   -5.6300 N.3   403  LEU403     -0.1245
    121  CA        19.9380  -63.0800   -5.6600 C.3   403  LEU403      0.1561
    122  C         19.9250  -62.4420   -4.2880 C.2   403  LEU403      0.2260
    123  O         19.5440  -63.0760   -3.3050 O.2   403  LEU403     -0.2867
    124  CB        18.4950  -63.1440   -6.1510 C.3   403  LEU403      0.0270
    125  CG        18.2400  -63.4470   -7.6200 C.3   403  LEU403      0.0019
    126  CD1       16.7350  -63.3990   -7.8640 C.3   403  LEU403      0.0001
    127  CD2       18.9590  -62.4300   -8.4950 C.3   403  LEU403      0.0001
    128  N         19.0130  -58.6340   -2.0840 N.3   405  PHE405     -0.1241
    129  CA        18.3070  -57.3570   -2.0980 C.3   405  PHE405      0.1605
    130  C         18.6690  -56.5600   -0.8590 C.2   405  PHE405      0.2264
    131  O         18.6880  -57.1090    0.2410 O.2   405  PHE405     -0.2867
    132  CB        16.8020  -57.5990   -2.0890 C.3   405  PHE405      0.0534
    133  CG        16.2890  -58.2810   -3.3220 C.ar  405  PHE405     -0.0203
    134  CD1       16.3410  -59.6560   -3.4400 C.ar  405  PHE405     -0.0042
    135  CD2       15.7240  -57.5440   -4.3500 C.ar  405  PHE405     -0.0042
    136  CE1       15.8570  -60.2900   -4.5840 C.ar  405  PHE405     -0.0003
    137  CE2       15.2350  -58.1690   -5.4920 C.ar  405  PHE405     -0.0003
    138  CZ        15.3030  -59.5470   -5.6040 C.ar  405  PHE405     -0.0000
@<TRIPOS>BOND
     1    41    42    1
     2     4     3    2
     3     3     2    1
     4    34    33    2
     5    33    32    1
     6    50    49    1
     7     1     2    1
     8     1     7    1
     9     2     5    1
    10    42    43    1
    11    42    45    1
    12    46    45    1
    13    46    47    1
    14    49    51    1
    15    49    48    2
    16    32    31    1
    17    32    35    1
    18    43    44    2
    19    47    48    1
    20     7     6    1
    21    35    36    1
    22     5     6    1
    23    36    37   ar
    24    36    38   ar
    25    37    39   ar
    26    38    40   ar
    27    39    40   ar
    28    62    61   ar
    29    62    60   ar
    30    52    53    1
    31    13    12    1
    32    61    59   ar
    33     8     9    1
    34    60    58   ar
    35   119   118    1
    36    59    57   ar
    37    58    57   ar
    38    12     9    1
    39    12    14    1
    40    57    56    1
    41   117   118   ar
    42   117   115   ar
    43    53    56    1
    44    53    54    1
    45   118   116   ar
    46     9    10    1
    47   115   113   ar
    48   116   114   ar
    49    54    55    2
    50    10    11    2
    51    10    15   am
    52   113   114   ar
    53   113   112    1
    54   127   125    1
    55   112   109    1
    56    15    21    1
    57    15    16    1
    58    21    20    1
    59   126   125    1
    60    68    67    1
    61   125   124    1
    62   107   104    1
    63    69    67    1
    64    16    19    1
    65    16    17    1
    66   109   108    1
    67   109   110    1
    68    20    19    1
    69   108   105   am
    70    67    64    1
    71    30    29    1
    72    29    28    1
    73   105   106    2
    74   105   104    1
    75   104   103    1
    76   110   111    2
    77   124   121    1
    78    64    63    1
    79    64    65    1
    80   103    97   am
    81    17    18    2
    82   121   120    1
    83   121   122    1
    84   138   137   ar
    85   138   136   ar
    86    78    76   ar
    87    78    79   ar
    88   137   135   ar
    89    27    28    1
    90    27    26    1
    91    94    93    2
    92    81    79   ar
    93    81    83   ar
    94   101    99    1
    95    65    66    2
    96    76    75   ar
    97    79    77   ar
    98    97    96    1
    99    97    98    2
   100   136   134   ar
   101    96    99    1
   102    96    95    1
   103   135   133   ar
   104   122   123    2
   105    83    82   ar
   106    93    95   am
   107    93    92    1
   108    99   100    1
   109    26    23    1
   110    25    24    2
   111    75    77   ar
   112    75    74    1
   113   100   102    1
   114    77    80   ar
   115   134   133   ar
   116   133   132    1
   117    88    85    1
   118    88    89    1
   119    23    24    1
   120    23    22    1
   121    92    91    1
   122    71    70    1
   123    71    74    1
   124    71    72    1
   125    82    80   ar
   126    85    86    1
   127    85    84    1
   128    86    87    2
   129   129   132    1
   130   129   128    1
   131   129   130    1
   132    89    90    1
   133    72    73    2
   134    84    90    1
   135   130   131    2
