@<TRIPOS>MOLECULE
tmp/4ke4A01.pdb
 98 91 0 0 0
SMALL
GASTEIGER

@<TRIPOS>ATOM
      1  N         30.8770  -45.2970   -2.2080 N.3   257  SER257     -0.1217
      2  CA        29.4730  -45.2510   -1.7840 C.3   257  SER257      0.1889
      3  C         29.2190  -46.3250   -0.7250 C.2   257  SER257      0.2288
      4  O         29.9130  -47.3350   -0.6820 O.2   257  SER257     -0.2866
      5  CB        28.5260  -45.4830   -2.9610 C.3   257  SER257      0.2089
      6  OG        28.7560  -46.7490   -3.5710 O.3   257  SER257     -0.2183
      7  N         26.7290  -48.1930   -0.7620 N.3   259  TYR259     -0.1241
      8  CA        26.3200  -49.2990   -1.6070 C.3   259  TYR259      0.1605
      9  C         27.5090  -50.1740   -2.0130 C.2   259  TYR259      0.2264
     10  O         27.4540  -51.3940   -1.8820 O.2   259  TYR259     -0.2867
     11  CB        25.6110  -48.7850   -2.8500 C.3   259  TYR259      0.0534
     12  CG        25.2700  -49.8680   -3.8450 C.ar  259  TYR259     -0.0201
     13  CD1       26.1880  -50.2710   -4.8130 C.ar  259  TYR259     -0.0009
     14  CD2       24.0300  -50.4840   -3.8240 C.ar  259  TYR259     -0.0009
     15  CE1       25.8680  -51.2720   -5.7320 C.ar  259  TYR259      0.0417
     16  CE2       23.7030  -51.4730   -4.7360 C.ar  259  TYR259      0.0417
     17  CZ        24.6180  -51.8560   -5.6900 C.ar  259  TYR259      0.1957
     18  OH        24.2750  -52.8370   -6.5880 O.3   259  TYR259     -0.2866
     19  N         21.9860  -53.7350  -10.6610 N.3   287  ALA287     -0.1231
     20  CA        21.0000  -52.9520  -11.4100 C.3   287  ALA287      0.1694
     21  C         21.1150  -51.4740  -11.0630 C.2   287  ALA287      0.2593
     22  O         21.2520  -51.1080   -9.8980 O.2   287  ALA287     -0.2718
     23  CB        19.5900  -53.4530  -11.1200 C.3   287  ALA287      0.0304
     24  N         21.0450  -50.6300  -12.0880 N.am  288  THR288     -0.1939
     25  CA        21.3020  -49.2020  -11.9590 C.3   288  THR288      0.2028
     26  C         20.1670  -48.4480  -12.6720 C.2   288  THR288      0.2642
     27  O         19.7670  -48.8340  -13.7650 O.2   288  THR288     -0.2714
     28  CB        22.6560  -48.8760  -12.6280 C.3   288  THR288      0.1808
     29  OG1       23.7090  -48.9000  -11.6530 O.3   288  THR288     -0.2208
     30  CG2       22.6260  -47.5590  -13.3330 C.3   288  THR288      0.0379
     31  N         19.6410  -47.3950  -12.0470 N.am  289  ASP289     -0.1971
     32  CA        18.5560  -46.6010  -12.6360 C.3   289  ASP289      0.1709
     33  C         19.1400  -45.5570  -13.5810 C.2   289  ASP289      0.2293
     34  O         19.9200  -44.7070  -13.1680 O.2   289  ASP289     -0.2864
     35  CB        17.7240  -45.9330  -11.5290 C.3   289  ASP289      0.1436
     36  CG        16.5720  -45.0830  -12.0730 C.2   289  ASP289      0.3671
     37  OD1       16.3320  -45.0780  -13.3000 O.co2 289  ASP289     -0.2456
     38  OD2       15.8950  -44.4170  -11.2550 O.co2 289  ASP289     -0.2456
     39  N         20.9890  -40.8120  -15.0990 N.3   293  ARG293     -0.1245
     40  CA        22.2850  -41.0030  -15.7610 C.3   293  ARG293      0.1563
     41  C         22.2500  -40.4990  -17.2100 C.2   293  ARG293      0.2260
     42  O         23.2200  -39.9210  -17.7030 O.2   293  ARG293     -0.2867
     43  CB        22.7420  -42.4620  -15.6900 C.3   293  ARG293      0.0307
     44  CG        23.1570  -42.8880  -14.2900 C.3   293  ARG293      0.0489
     45  CD        23.4410  -44.3830  -14.1960 C.3   293  ARG293      0.2205
     46  NE        24.2150  -44.6770  -12.9870 N.pl3 293  ARG293     -0.0865
     47  CZ        23.6830  -44.7870  -11.7770 C.cat 293  ARG293      0.5346
     48  NH1       22.3750  -44.6270  -11.6110 N.pl3 293  ARG293      0.1354
     49  NH2       24.4520  -45.0510  -10.7280 N.pl3 293  ARG293      0.1354
     50  N         32.8770  -50.0290   -7.2660 N.3   331  GLN331     -0.1245
     51  CA        32.7000  -48.5960   -7.4920 C.3   331  GLN331      0.1566
     52  C         33.1910  -48.2030   -8.9000 C.2   331  GLN331      0.2260
     53  O         32.5930  -47.3680   -9.5600 O.2   331  GLN331     -0.2867
     54  CB        33.4310  -47.7790   -6.4300 C.3   331  GLN331      0.0367
     55  CG        33.0920  -46.2900   -6.4770 C.3   331  GLN331      0.0905
     56  CD        31.6570  -46.0130   -6.0580 C.2   331  GLN331      0.2608
     57  OE1       31.2520  -46.3700   -4.9540 O.2   331  GLN331     -0.2717
     58  NE2       30.8830  -45.3880   -6.9380 N.am  331  GLN331     -0.0878
     59  N         30.3840  -49.0740  -11.2000 N.3   334  LEU334     -0.1245
     60  CA        29.2860  -48.1140  -11.0760 C.3   334  LEU334      0.1561
     61  C         29.6220  -46.7950  -11.7760 C.2   334  LEU334      0.2260
     62  O         28.7750  -46.1920  -12.4490 O.2   334  LEU334     -0.2867
     63  CB        28.9850  -47.8200   -9.5960 C.3   334  LEU334      0.0270
     64  CG        28.4430  -48.9890   -8.7660 C.3   334  LEU334      0.0019
     65  CD1       28.3410  -48.6030   -7.2940 C.3   334  LEU334      0.0001
     66  CD2       27.0840  -49.4500   -9.3280 C.3   334  LEU334      0.0001
     67  N         20.5650  -56.0620   -5.7560 N.3   373  THR373     -0.1203
     68  CA        19.7360  -54.9230   -6.0960 C.3   373  THR373      0.1994
     69  C         19.4550  -54.1250   -4.8390 C.2   373  THR373      0.2618
     70  O         19.1450  -54.6900   -3.7930 O.2   373  THR373     -0.2717
     71  CB        18.4050  -55.3760   -6.7200 C.3   373  THR373      0.1784
     72  OG1       18.6710  -56.2880   -7.8030 O.3   373  THR373     -0.2211
     73  CG2       17.6180  -54.1610   -7.2310 C.3   373  THR373      0.0376
     74  N         19.5890  -52.8080   -4.9270 N.am  374  SER374     -0.1951
     75  CA        19.2790  -51.9790   -3.7790 C.3   374  SER374      0.1924
     76  C         17.9520  -51.2630   -3.9850 C.2   374  SER374      0.2314
     77  O         17.7040  -50.7090   -5.0530 O.2   374  SER374     -0.2863
     78  CB        20.3780  -50.9490   -3.5280 C.3   374  SER374      0.2116
     79  OG        20.0540  -50.1770   -2.3860 O.3   374  SER374     -0.2180
     80  N         16.9060  -46.3590   -2.1190 N.3   377  ARG377     -0.1231
     81  CA        16.3870  -45.0420   -2.4690 C.3   377  ARG377      0.1694
     82  C         15.0410  -45.1100   -3.1840 C.2   377  ARG377      0.2591
     83  O         14.6350  -44.1630   -3.8570 O.2   377  ARG377     -0.2718
     84  CB        17.4130  -44.2410   -3.2680 C.3   377  ARG377      0.0321
     85  CG        18.6620  -43.8930   -2.4690 C.3   377  ARG377      0.0489
     86  CD        19.5130  -42.8690   -3.2100 C.3   377  ARG377      0.2205
     87  NE        20.9430  -43.1140   -3.0370 N.pl3 377  ARG377     -0.0865
     88  CZ        21.6780  -43.8570   -3.8610 C.cat 377  ARG377      0.5346
     89  NH1       22.9750  -44.0260   -3.6260 N.pl3 377  ARG377      0.1354
     90  NH2       21.1130  -44.4350   -4.9190 N.pl3 377  ARG377      0.1354
     91  N         14.3510  -46.2340   -3.0270 N.am  378  LEU378     -0.1980
     92  CA        12.9970  -46.3700   -3.5420 C.3   378  LEU378      0.1596
     93  C         11.9780  -46.0980   -2.4340 C.2   378  LEU378      0.2287
     94  O         12.2150  -46.4290   -1.2650 O.2   378  LEU378     -0.2864
     95  CB        12.7730  -47.7560   -4.1410 C.3   378  LEU378      0.0297
     96  CG        13.6190  -48.0980   -5.3670 C.3   378  LEU378      0.0022
     97  CD1       13.3040  -49.5030   -5.8390 C.3   378  LEU378      0.0001
     98  CD2       13.3790  -47.0840   -6.4790 C.3   378  LEU378      0.0001
@<TRIPOS>BOND
     1    42    41    2
     2    41    40    1
     3    40    43    1
     4    40    39    1
     5    43    44    1
     6    44    45    1
     7    45    46    1
     8    27    26    2
     9    33    34    2
    10    33    32    1
    11    30    28    1
    12    37    36   ar
    13    46    47    2
    14    26    31   am
    15    26    25    1
    16    32    31    1
    17    32    35    1
    18    28    25    1
    19    28    29    1
    20    62    61    2
    21    24    25    1
    22    24    21   am
    23    36    35    1
    24    36    38   ar
    25    47    48    1
    26    47    49    1
    27    61    60    1
    28    20    23    1
    29    20    21    1
    30    20    19    1
    31    59    60    1
    32    60    63    1
    33    21    22    2
    34    63    64    1
    35    53    52    2
    36    66    64    1
    37    52    51    1
    38    64    65    1
    39    72    71    1
    40    51    50    1
    41    51    54    1
    42    73    71    1
    43    58    56   am
    44    71    68    1
    45    18    17    1
    46    98    96    1
    47    55    54    1
    48    55    56    1
    49    68    67    1
    50    68    69    1
    51    56    57    2
    52    97    96    1
    53    15    17   ar
    54    15    13   ar
    55    17    16   ar
    56    96    95    1
    57    77    76    2
    58    74    69   am
    59    74    75    1
    60    90    88    1
    61    69    70    2
    62    13    12   ar
    63    16    14   ar
    64    95    92    1
    65    76    75    1
    66    88    89    1
    67    88    87    2
    68    83    82    2
    69    12    14   ar
    70    12    11    1
    71    75    78    1
    72     6     5    1
    73    92    91    1
    74    92    93    1
    75    78    79    1
    76    84    81    1
    77    84    85    1
    78    86    87    1
    79    86    85    1
    80    82    91   am
    81    82    81    1
    82     5     2    1
    83    11     8    1
    84    81    80    1
    85    93    94    2
    86     1     2    1
    87     9    10    2
    88     9     8    1
    89     2     3    1
    90     8     7    1
    91     3     4    2
