@<TRIPOS>MOLECULE
tmp/4ke4A02.pdb
 107 103 0 0 0
SMALL
GASTEIGER

@<TRIPOS>ATOM
      1  N          7.0720  -60.4130  -11.6720 N.3    36  THR36      -0.1218
      2  CA         7.9690  -60.1270  -10.5630 C.3    36  THR36       0.1862
      3  C          7.1480  -59.8820   -9.2970 C.2    36  THR36       0.2287
      4  O          6.2570  -59.0430   -9.2850 O.2    36  THR36      -0.2866
      5  CB         8.8140  -58.8780  -10.8630 C.3    36  THR36       0.1770
      6  OG1        9.5030  -59.0670  -12.1050 O.3    36  THR36      -0.2211
      7  CG2        9.8180  -58.6150   -9.7390 C.3    36  THR36       0.0375
      8  N          7.2110  -57.3410  -16.0310 N.3   162  HIS162     -0.1241
      9  CA         8.1530  -56.2280  -16.1440 C.3   162  HIS162      0.1621
     10  C          8.3000  -55.5840  -17.5200 C.2   162  HIS162      0.2264
     11  O          8.9390  -54.5430  -17.6300 O.2   162  HIS162     -0.2867
     12  CB         9.5250  -56.5730  -15.5360 C.3   162  HIS162      0.0745
     13  CG         9.7150  -56.0240  -14.1540 C.ar  162  HIS162      0.0817
     14  ND1       10.9400  -55.6090  -13.6740 N.ar  162  HIS162     -0.2268
     15  CD2        8.8240  -55.8070  -13.1510 C.ar  162  HIS162      0.1154
     16  CE1       10.7960  -55.1670  -12.4340 C.ar  162  HIS162      0.1986
     17  NE2        9.5230  -55.2740  -12.0950 N.ar  162  HIS162     -0.2212
     18  N          9.7060  -50.8760  -14.9810 N.3   166  ASP166     -0.1225
     19  CA        10.6570  -51.3520  -13.9730 C.3   166  ASP166      0.1805
     20  C         10.1240  -51.0780  -12.5720 C.2   166  ASP166      0.2598
     21  O          9.0010  -50.5940  -12.4130 O.2   166  ASP166     -0.2718
     22  CB        12.0580  -50.7490  -14.1630 C.3   166  ASP166      0.1424
     23  CG        12.0840  -49.2280  -14.0330 C.2   166  ASP166      0.3668
     24  OD1       11.2170  -48.6490  -13.3360 O.co2 166  ASP166     -0.2456
     25  OD2       13.0020  -48.6020  -14.6160 O.co2 166  ASP166     -0.2456
     26  N         10.9350  -51.3770  -11.5640 N.am  167  GLY167     -0.1942
     27  CA        10.5200  -51.2610  -10.1750 C.3   167  GLY167      0.2014
     28  C         10.2120  -49.8400   -9.7590 C.2   167  GLY167      0.2638
     29  O          9.3160  -49.5850   -8.9500 O.2   167  GLY167     -0.2714
     30  N         10.9650  -48.9050  -10.3160 N.am  168  PHE168     -0.1973
     31  CA        10.7560  -47.5000  -10.0400 C.3   168  PHE168      0.1639
     32  C          9.3580  -47.0700  -10.4990 C.2   168  PHE168      0.2290
     33  O          8.6190  -46.4230   -9.7500 O.2   168  PHE168     -0.2864
     34  CB        11.8200  -46.6650  -10.7560 C.3   168  PHE168      0.0560
     35  CG        11.7950  -45.2250  -10.3830 C.ar  168  PHE168     -0.0200
     36  CD1       10.8670  -44.3590  -10.9540 C.ar  168  PHE168     -0.0042
     37  CD2       12.6830  -44.7270   -9.4390 C.ar  168  PHE168     -0.0042
     38  CE1       10.8320  -43.0140  -10.6030 C.ar  168  PHE168     -0.0003
     39  CE2       12.6550  -43.3810   -9.0820 C.ar  168  PHE168     -0.0003
     40  CZ        11.7260  -42.5230   -9.6690 C.ar  168  PHE168     -0.0000
     41  N         21.9860  -53.7350  -10.6610 N.3   287  ALA287     -0.1245
     42  CA        21.0000  -52.9520  -11.4100 C.3   287  ALA287      0.1562
     43  C         21.1150  -51.4740  -11.0630 C.2   287  ALA287      0.2260
     44  O         21.2520  -51.1080   -9.8980 O.2   287  ALA287     -0.2867
     45  CB        19.5900  -53.4530  -11.1200 C.3   287  ALA287      0.0290
     46  N         19.6410  -47.3950  -12.0470 N.3   289  ASP289     -0.1239
     47  CA        18.5560  -46.6010  -12.6360 C.3   289  ASP289      0.1674
     48  C         19.1400  -45.5570  -13.5810 C.2   289  ASP289      0.2266
     49  O         19.9200  -44.7070  -13.1680 O.2   289  ASP289     -0.2867
     50  CB        17.7240  -45.9330  -11.5290 C.3   289  ASP289      0.1410
     51  CG        16.5720  -45.0830  -12.0730 C.2   289  ASP289      0.3668
     52  OD1       16.3320  -45.0780  -13.3000 O.co2 289  ASP289     -0.2456
     53  OD2       15.8950  -44.4170  -11.2550 O.co2 289  ASP289     -0.2456
     54  N         16.5480  -49.5220  -16.7630 N.3   307  ILE307     -0.1245
     55  CA        17.5640  -50.2220  -16.0020 C.3   307  ILE307      0.1561
     56  C         18.8090  -50.5070  -16.8330 C.2   307  ILE307      0.2260
     57  O         18.7270  -51.0880  -17.9100 O.2   307  ILE307     -0.2867
     58  CB        17.0240  -51.5360  -15.4470 C.3   307  ILE307      0.0252
     59  CG1       15.7660  -51.2680  -14.6130 C.3   307  ILE307      0.0019
     60  CG2       18.1020  -52.2370  -14.6250 C.3   307  ILE307      0.0019
     61  CD1       15.9540  -50.2410  -13.5120 C.3   307  ILE307      0.0001
     62  N         20.5650  -56.0620   -5.7560 N.3   373  THR373     -0.1203
     63  CA        19.7360  -54.9230   -6.0960 C.3   373  THR373      0.1994
     64  C         19.4550  -54.1250   -4.8390 C.2   373  THR373      0.2619
     65  O         19.1450  -54.6900   -3.7930 O.2   373  THR373     -0.2717
     66  CB        18.4050  -55.3760   -6.7200 C.3   373  THR373      0.1784
     67  OG1       18.6710  -56.2880   -7.8030 O.3   373  THR373     -0.2211
     68  CG2       17.6180  -54.1610   -7.2310 C.3   373  THR373      0.0376
     69  N         19.5890  -52.8080   -4.9270 N.am  374  SER374     -0.1937
     70  CA        19.2790  -51.9790   -3.7790 C.3   374  SER374      0.2055
     71  C         17.9520  -51.2630   -3.9850 C.2   374  SER374      0.2643
     72  O         17.7040  -50.7090   -5.0530 O.2   374  SER374     -0.2714
     73  CB        20.3780  -50.9490   -3.5280 C.3   374  SER374      0.2130
     74  OG        20.0540  -50.1770   -2.3860 O.3   374  SER374     -0.2179
     75  N         17.1050  -51.2980   -2.9570 N.am  375  TRP375     -0.1973
     76  CA        15.8280  -50.5950   -2.9570 C.3   375  TRP375      0.1640
     77  C         15.9090  -49.4460   -1.9700 C.2   375  TRP375      0.2290
     78  O         14.8920  -48.8430   -1.5960 O.2   375  TRP375     -0.2864
     79  CB        14.6850  -51.5440   -2.5720 C.3   375  TRP375      0.0576
     80  CG        14.3640  -52.5620   -3.6200 C.ar  375  TRP375      0.0006
     81  CD1       14.9940  -52.7270   -4.8150 C.ar  375  TRP375      0.0946
     82  CD2       13.3180  -53.5530   -3.5780 C.ar  375  TRP375      0.0152
     83  NE1       14.4160  -53.7550   -5.5180 N.ar  375  TRP375     -0.2442
     84  CE2       13.3850  -54.2800   -4.7830 C.ar  375  TRP375      0.0810
     85  CE3       12.3320  -53.8880   -2.6400 C.ar  375  TRP375      0.0012
     86  CZ2       12.5080  -55.3290   -5.0790 C.ar  375  TRP375      0.0191
     87  CZ3       11.4580  -54.9290   -2.9340 C.ar  375  TRP375      0.0001
     88  CH2       11.5570  -55.6410   -4.1400 C.ar  375  TRP375      0.0015
     89  N         14.3510  -46.2340   -3.0270 N.3   378  LEU378     -0.1245
     90  CA        12.9970  -46.3700   -3.5420 C.3   378  LEU378      0.1561
     91  C         11.9780  -46.0980   -2.4340 C.2   378  LEU378      0.2260
     92  O         12.2150  -46.4290   -1.2650 O.2   378  LEU378     -0.2867
     93  CB        12.7730  -47.7560   -4.1410 C.3   378  LEU378      0.0270
     94  CG        13.6190  -48.0980   -5.3670 C.3   378  LEU378      0.0019
     95  CD1       13.3040  -49.5030   -5.8390 C.3   378  LEU378      0.0001
     96  CD2       13.3790  -47.0840   -6.4790 C.3   378  LEU378      0.0001
     97  N         19.0130  -58.6340   -2.0840 N.3   405  PHE405     -0.1241
     98  CA        18.3070  -57.3570   -2.0980 C.3   405  PHE405      0.1605
     99  C         18.6690  -56.5600   -0.8590 C.2   405  PHE405      0.2264
    100  O         18.6880  -57.1090    0.2410 O.2   405  PHE405     -0.2867
    101  CB        16.8020  -57.5990   -2.0890 C.3   405  PHE405      0.0534
    102  CG        16.2890  -58.2810   -3.3220 C.ar  405  PHE405     -0.0203
    103  CD1       16.3410  -59.6560   -3.4400 C.ar  405  PHE405     -0.0042
    104  CD2       15.7240  -57.5440   -4.3500 C.ar  405  PHE405     -0.0042
    105  CE1       15.8570  -60.2900   -4.5840 C.ar  405  PHE405     -0.0003
    106  CE2       15.2350  -58.1690   -5.4920 C.ar  405  PHE405     -0.0003
    107  CZ        15.3030  -59.5470   -5.6040 C.ar  405  PHE405     -0.0000
@<TRIPOS>BOND
     1    57    56    2
     2    11    10    2
     3    10     9    1
     4    56    55    1
     5    54    55    1
     6     9     8    1
     7     9    12    1
     8    55    58    1
     9    12    13    1
    10    58    60    1
    11    58    59    1
    12    18    19    1
    13    25    23   ar
    14    59    61    1
    15    22    23    1
    16    22    19    1
    17    13    14   ar
    18    13    15   ar
    19    23    24   ar
    20    19    20    1
    21    14    16   ar
    22    48    49    2
    23    48    47    1
    24    52    51   ar
    25    15    17   ar
    26    47    46    1
    27    47    50    1
    28    20    21    2
    29    20    26   am
    30    16    17   ar
    31     6     5    1
    32    51    50    1
    33    51    53   ar
    34     1     2    1
    35    26    27    1
    36    42    45    1
    37    42    43    1
    38    42    41    1
    39    43    44    2
    40    36    38   ar
    41    36    35   ar
    42     5     2    1
    43     5     7    1
    44    34    35    1
    45    34    31    1
    46    38    40   ar
    47     2     3    1
    48    32    31    1
    49    32    33    2
    50    35    37   ar
    51    30    31    1
    52    30    28   am
    53    27    28    1
    54    28    29    2
    55    40    39   ar
    56    37    39   ar
    57     3     4    2
    58    67    66    1
    59    68    66    1
    60    66    63    1
    61    96    94    1
    62    63    62    1
    63    63    64    1
    64    95    94    1
    65   107   106   ar
    66   107   105   ar
    67    83    81   ar
    68    83    84   ar
    69   106   104   ar
    70    94    93    1
    71    86    84   ar
    72    86    88   ar
    73    72    71    2
    74    69    64   am
    75    69    70    1
    76    64    65    2
    77    81    80   ar
    78    84    82   ar
    79   105   103   ar
    80   104   102   ar
    81    93    90    1
    82    88    87   ar
    83    71    70    1
    84    71    75   am
    85    70    73    1
    86    80    82   ar
    87    80    79    1
    88    82    85   ar
    89    90    89    1
    90    90    91    1
    91    73    74    1
    92   103   102   ar
    93   102   101    1
    94    75    76    1
    95    76    79    1
    96    76    77    1
    97    87    85   ar
    98    91    92    2
    99    98   101    1
   100    98    97    1
   101    98    99    1
   102    77    78    2
   103    99   100    2
