@<TRIPOS>MOLECULE
tmp/4ke6A00.pdb
 178 164 0 0 0
SMALL
GASTEIGER

@<TRIPOS>ATOM
      1  N         -0.0870   26.1160   -6.7290 N.3    28  GLY28      -0.1210
      2  CA        -0.0240   26.0500   -5.2810 C.3    28  GLY28       0.1956
      3  C         -0.2300   27.3410   -4.5080 C.2    28  GLY28       0.2612
      4  O         -0.4660   28.4140   -5.0790 O.2    28  GLY28      -0.2717
      5  N         -0.1120   27.1950   -3.1900 N.am   29  PHE29      -0.1962
      6  CA        -0.3100   28.2200   -2.1620 C.3    29  PHE29       0.1771
      7  C          0.7130   29.3570   -2.3080 C.2    29  PHE29       0.2620
      8  O          1.9230   29.1180   -2.2690 O.2    29  PHE29      -0.2715
      9  CB        -0.1540   27.5110   -0.8100 C.3    29  PHE29       0.0574
     10  CG        -0.3850   28.3700    0.3870 C.ar   29  PHE29      -0.0200
     11  CD1       -1.6610   28.5230    0.9180 C.ar   29  PHE29      -0.0042
     12  CD2        0.6820   29.0060    1.0080 C.ar   29  PHE29      -0.0042
     13  CE1       -1.8670   29.2980    2.0400 C.ar   29  PHE29      -0.0003
     14  CE2        0.4860   29.7880    2.1210 C.ar   29  PHE29      -0.0003
     15  CZ        -0.7930   29.9340    2.6440 C.ar   29  PHE29      -0.0000
     16  N          0.2070   30.5750   -2.5190 N.am   30  THR30      -0.1937
     17  CA         0.9970   31.7850   -2.8510 C.3    30  THR30       0.2028
     18  C          1.6050   31.7870   -4.2520 C.2    30  THR30       0.2642
     19  O          2.2720   32.7480   -4.6270 O.2    30  THR30      -0.2714
     20  CB         2.1370   32.1280   -1.8340 C.3    30  THR30       0.1808
     21  OG1        3.2470   31.2430   -2.0200 O.3    30  THR30      -0.2208
     22  CG2        1.6440   32.0800   -0.3940 C.3    30  THR30       0.0379
     23  N          1.4220   30.7060   -5.0000 N.am   31  GLY31      -0.1954
     24  CA         1.9710   30.5940   -6.3440 C.3    31  GLY31       0.1869
     25  C          1.0600   31.1300   -7.4380 C.2    31  GLY31       0.2309
     26  O          0.0460   31.7720   -7.1710 O.2    31  GLY31      -0.2863
     27  N          4.0010   28.0320  -12.4480 N.3    35  SER35      -0.1217
     28  CA         4.6050   26.7950  -11.9960 C.3    35  SER35       0.1889
     29  C          4.0780   25.5710  -12.7560 C.2    35  SER35       0.2288
     30  O          4.7490   24.5410  -12.8060 O.2    35  SER35      -0.2866
     31  CB         4.4440   26.6480  -10.4800 C.3    35  SER35       0.2089
     32  OG         3.0930   26.5010  -10.1110 O.3    35  SER35      -0.2183
     33  N          0.3280   20.7600   -8.1400 N.3    96  LEU96      -0.1231
     34  CA         1.5620   20.8240   -7.3740 C.3    96  LEU96       0.1693
     35  C          1.3050   21.3210   -5.9710 C.2    96  LEU96       0.2593
     36  O          0.6410   22.3290   -5.7700 O.2    96  LEU96      -0.2718
     37  CB         2.5580   21.7570   -8.0630 C.3    96  LEU96       0.0284
     38  CG         3.8460   22.0510   -7.2900 C.3    96  LEU96       0.0019
     39  CD1        4.6850   20.7960   -7.1210 C.3    96  LEU96       0.0001
     40  CD2        4.6470   23.1640   -7.9740 C.3    96  LEU96       0.0001
     41  N          1.8060   20.5650   -5.0000 N.am   97  SER97      -0.1938
     42  CA         1.7330   20.9470   -3.5960 C.3    97  SER97       0.2055
     43  C          0.2720   21.0840   -3.1510 C.2    97  SER97       0.2642
     44  O         -0.4660   20.0950   -3.1490 O.2    97  SER97      -0.2714
     45  CB         2.5420   22.2070   -3.3230 C.3    97  SER97       0.2130
     46  OG         2.8750   22.2590   -1.9550 O.3    97  SER97      -0.2179
     47  N         -0.1500   22.2960   -2.7720 N.am   98  MET98      -0.1976
     48  CA        -1.5670   22.5290   -2.4540 C.3    98  MET98       0.1605
     49  C         -2.4430   22.2980   -3.6850 C.2    98  MET98       0.2287
     50  O         -3.6220   21.9580   -3.5640 O.2    98  MET98      -0.2864
     51  CB        -1.8260   23.9350   -1.9070 C.3    98  MET98       0.0413
     52  CG        -3.2470   24.1080   -1.3740 C.3    98  MET98       0.0598
     53  SD        -3.7030   25.7700   -0.8420 S.3    98  MET98      -0.1393
     54  CE        -3.7600   26.6410   -2.4060 C.3    98  MET98       0.0692
     55  N          0.1380   18.1640   -0.3320 N.3   122  ALA122     -0.1245
     56  CA         0.2340   18.3610    1.1140 C.3   122  ALA122      0.1562
     57  C         -1.0320   17.9080    1.8570 C.2   122  ALA122      0.2260
     58  O         -2.1380   18.3550    1.5600 O.2   122  ALA122     -0.2867
     59  CB         0.5170   19.8210    1.4090 C.3   122  ALA122      0.0290
     60  N          1.2940   18.6880    7.4790 N.3   125  ILE125     -0.1245
     61  CA         2.4940   19.4580    7.7600 C.3   125  ILE125      0.1561
     62  C          2.4410   19.9300    9.2030 C.2   125  ILE125      0.2260
     63  O          1.8970   20.9900    9.4960 O.2   125  ILE125     -0.2867
     64  CB         2.6290   20.6560    6.8260 C.3   125  ILE125      0.0252
     65  CG1        2.4810   20.2200    5.3690 C.3   125  ILE125      0.0019
     66  CG2        3.9680   21.3300    7.0360 C.3   125  ILE125      0.0019
     67  CD1        2.5270   21.3700    4.4140 C.3   125  ILE125      0.0001
     68  N          4.3590   21.2480   11.3330 N.3   127  ALA127     -0.1231
     69  CA         4.8360   22.5820   11.7030 C.3   127  ALA127      0.1694
     70  C          3.7500   23.6530   11.5440 C.2   127  ALA127      0.2591
     71  O          3.6570   24.5840   12.3460 O.2   127  ALA127     -0.2718
     72  CB         6.0730   22.9510   10.8880 C.3   127  ALA127      0.0304
     73  N          2.9070   23.4920   10.5290 N.am  128  ILE128     -0.1980
     74  CA         1.8420   24.4540   10.2600 C.3   128  ILE128      0.1595
     75  C          0.8480   24.3610   11.4010 C.2   128  ILE128      0.2287
     76  O          0.2440   25.3490   11.8310 O.2   128  ILE128     -0.2864
     77  CB         1.1670   24.3030    8.8730 C.3   128  ILE128      0.0276
     78  CG1        2.1720   24.6220    7.7640 C.3   128  ILE128      0.0022
     79  CG2        0.0240   25.2940    8.7200 C.3   128  ILE128      0.0022
     80  CD1        1.5530   24.7810    6.3970 C.3   128  ILE128      0.0001
     81  N          2.8070   35.0180   15.7650 N.3   136  LEU136     -0.1245
     82  CA         3.4750   35.2930   14.5310 C.3   136  LEU136      0.1561
     83  C          3.0060   36.5970   13.9760 C.2   136  LEU136      0.2260
     84  O          1.9000   36.9970   14.2120 O.2   136  LEU136     -0.2867
     85  CB         3.1660   34.1910   13.5450 C.3   136  LEU136      0.0270
     86  CG         3.6200   32.8160   13.9430 C.3   136  LEU136      0.0019
     87  CD1        3.6170   31.9550   12.7190 C.3   136  LEU136      0.0001
     88  CD2        5.0100   32.8860   14.5030 C.3   136  LEU136      0.0001
     89  N          4.5330   36.4090    6.6310 N.3   140  LEU140     -0.1245
     90  CA         5.8560   35.8080    6.7190 C.3   140  LEU140      0.1561
     91  C          6.6270   36.0500    5.4390 C.2   140  LEU140      0.2260
     92  O          6.0910   35.9220    4.3500 O.2   140  LEU140     -0.2867
     93  CB         5.7720   34.3070    6.9780 C.3   140  LEU140      0.0270
     94  CG         4.9740   33.8530    8.1850 C.3   140  LEU140      0.0019
     95  CD1        4.8900   32.3450    8.2150 C.3   140  LEU140      0.0001
     96  CD2        5.6320   34.3730    9.4310 C.3   140  LEU140      0.0001
     97  N         12.0980   29.9430   -3.5510 N.3   145  SER145     -0.1202
     98  CA        11.4460   28.6630   -3.7580 C.3   145  SER145      0.2020
     99  C         12.4190   27.5060   -3.5500 C.2   145  SER145      0.2618
    100  O         13.6240   27.6330   -3.7770 O.2   145  SER145     -0.2717
    101  CB        10.8220   28.5840   -5.1460 C.3   145  SER145      0.2103
    102  OG         9.7440   29.4920   -5.2610 O.3   145  SER145     -0.2182
    103  N         11.8730   26.3840   -3.0910 N.am  146  ASP146     -0.1973
    104  CA        12.6450   25.1720   -2.8830 C.3   146  ASP146      0.1709
    105  C         12.8660   24.4770   -4.2200 C.2   146  ASP146      0.2293
    106  O         12.0690   23.6350   -4.6380 O.2   146  ASP146     -0.2864
    107  CB        11.9190   24.2400   -1.9080 C.3   146  ASP146      0.1436
    108  CG        12.7610   23.0530   -1.4850 C.2   146  ASP146      0.3671
    109  OD1       14.0000   23.1920   -1.4140 O.co2 146  ASP146     -0.2456
    110  OD2       12.1760   21.9800   -1.2070 O.co2 146  ASP146     -0.2456
    111  N         10.7030   31.1710   -9.7310 N.3   154  GLU154     -0.1245
    112  CA         9.2700   30.9040   -9.6790 C.3   154  GLU154      0.1567
    113  C          8.4470   32.1320   -9.2920 C.2   154  GLU154      0.2260
    114  O          8.8140   32.9030   -8.4060 O.2   154  GLU154     -0.2867
    115  CB         8.9600   29.7700   -8.6850 C.3   154  GLU154      0.0388
    116  CG         7.5450   29.9000   -8.1120 C.3   154  GLU154      0.1160
    117  CD         6.9610   28.6150   -7.5580 C.2   154  GLU154      0.3649
    118  OE1        5.8680   28.2160   -8.0190 O.co2 154  GLU154     -0.2457
    119  OE2        7.5650   28.0260   -6.6430 O.co2 154  GLU154     -0.2457
    120  N          5.8630   33.7980   -7.4330 N.3   156  ALA156     -0.1245
    121  CA         5.1060   33.5960   -6.1990 C.3   156  ALA156      0.1562
    122  C          5.2320   34.8460   -5.3280 C.2   156  ALA156      0.2260
    123  O          6.1700   35.6170   -5.5090 O.2   156  ALA156     -0.2867
    124  CB         5.5880   32.3440   -5.4560 C.3   156  ALA156      0.0290
    125  N          3.7630   35.8120    2.7140 N.3   160  THR160     -0.1218
    126  CA         2.6710   34.9060    3.0070 C.3   160  THR160      0.1862
    127  C          1.8220   35.3810    4.1840 C.2   160  THR160      0.2287
    128  O          2.3390   35.5500    5.2850 O.2   160  THR160     -0.2866
    129  CB         3.2200   33.5150    3.3410 C.3   160  THR160      0.1770
    130  OG1        3.9510   33.0100    2.2180 O.3   160  THR160     -0.2211
    131  CG2        2.0970   32.5710    3.7170 C.3   160  THR160      0.0375
    132  N         -2.3860   30.5030    6.2590 N.3   165  LEU165     -0.1245
    133  CA        -1.8330   29.2370    6.7120 C.3   165  LEU165      0.1561
    134  C         -2.9050   28.4210    7.4240 C.2   165  LEU165      0.2260
    135  O         -2.9940   27.2030    7.2560 O.2   165  LEU165     -0.2867
    136  CB        -0.6210   29.4550    7.6190 C.3   165  LEU165      0.0270
    137  CG         0.7170   29.8870    7.0140 C.3   165  LEU165      0.0019
    138  CD1        1.6990   30.1860    8.1360 C.3   165  LEU165      0.0001
    139  CD2        1.2910   28.8310    6.0600 C.3   165  LEU165      0.0001
    140  N         -5.0110   26.9570    4.7860 N.3   168  LEU168     -0.1245
    141  CA        -4.3100   25.8050    4.2250 C.3   168  LEU168      0.1561
    142  C         -4.4110   24.5560    5.0790 C.2   168  LEU168      0.2260
    143  O         -4.6790   23.4710    4.5640 O.2   168  LEU168     -0.2867
    144  CB        -2.8340   26.1470    4.0210 C.3   168  LEU168      0.0270
    145  CG        -1.9070   24.9950    3.6210 C.3   168  LEU168      0.0019
    146  CD1       -2.3470   24.3730    2.3100 C.3   168  LEU168      0.0001
    147  CD2       -0.4830   25.5190    3.5020 C.3   168  LEU168      0.0001
    148  N          9.9210   21.5560    2.2330 N.3   196  VAL196     -0.1231
    149  CA         8.6680   22.2630    2.4630 C.3   196  VAL196      0.1692
    150  C          7.6270   21.3180    3.0220 C.2   196  VAL196      0.2591
    151  O          7.0890   21.4890    4.1110 O.2   196  VAL196     -0.2718
    152  CB         8.1270   22.8940    1.1550 C.3   196  VAL196      0.0266
    153  CG1        6.7700   23.5430    1.3640 C.3   196  VAL196      0.0020
    154  CG2        9.1300   23.8690    0.5880 C.3   196  VAL196      0.0020
    155  N          7.3380   20.3020    2.2370 N.am  197  VAL197     -0.1980
    156  CA         6.3600   19.2900    2.6080 C.3   197  VAL197      0.1595
    157  C          7.0200   17.9700    2.9440 C.2   197  VAL197      0.2287
    158  O          7.8290   17.4740    2.1490 O.2   197  VAL197     -0.2864
    159  CB         5.4100   19.0080    1.4450 C.3   197  VAL197      0.0276
    160  CG1        4.5600   17.7490    1.7440 C.3   197  VAL197      0.0022
    161  CG2        4.5180   20.2160    1.1750 C.3   197  VAL197      0.0022
    162  N         11.1320   20.5600   -3.7030 N.3   224  HIS224     -0.1226
    163  CA         9.6780   20.6850   -3.6150 C.3   224  HIS224      0.1752
    164  C          8.9810   21.1670   -4.9050 C.2   224  HIS224      0.2595
    165  O          7.9940   20.5710   -5.3370 O.2   224  HIS224     -0.2718
    166  CB         9.2880   21.5850   -2.4430 C.3   224  HIS224      0.0759
    167  CG         7.8120   21.7000   -2.2480 C.ar  224  HIS224      0.0818
    168  ND1        6.9910   20.6000   -2.1340 N.ar  224  HIS224     -0.2268
    169  CD2        7.0030   22.7830   -2.1730 C.ar  224  HIS224      0.1154
    170  CE1        5.7400   21.0010   -1.9800 C.ar  224  HIS224      0.1986
    171  NE2        5.7200   22.3210   -2.0030 N.ar  224  HIS224     -0.2212
    172  N          9.4840   22.2330   -5.5210 N.am  225  VAL225     -0.1980
    173  CA         8.8380   22.7840   -6.7220 C.3   225  VAL225      0.1595
    174  C          9.2740   21.9670   -7.9290 C.2   225  VAL225      0.2287
    175  O          9.8990   22.4910   -8.8550 O.2   225  VAL225     -0.2864
    176  CB         9.1700   24.2900   -6.9150 C.3   225  VAL225      0.0276
    177  CG1        8.3120   24.9240   -8.0080 C.3   225  VAL225      0.0022
    178  CG2        9.0260   25.0300   -5.5950 C.3   225  VAL225      0.0022
@<TRIPOS>BOND
     1    30    29    2
     2    29    28    1
     3    27    28    1
     4    28    31    1
     5    31    32    1
     6   111   112    1
     7   112   113    1
     8   112   115    1
     9   113   114    2
    10   175   174    2
    11   115   116    1
    12    33    34    1
    13   116   117    1
    14    37    34    1
    15    37    38    1
    16   118   117   ar
    17   177   176    1
    18    40    38    1
    19   174   173    1
    20   117   119   ar
    21    25    26    2
    22    25    24    1
    23   120   121    1
    24    34    35    1
    25    38    39    1
    26   176   173    1
    27   176   178    1
    28     1     2    1
    29   173   172    1
    30    24    23    1
    31   121   124    1
    32   121   122    1
    33    35    36    2
    34    35    41   am
    35   172   164   am
    36   123   122    2
    37   165   164    2
    38     2     3    1
    39   102   101    1
    40   101    98    1
    41     4     3    2
    42    41    42    1
    43    23    18   am
    44   164   163    1
    45   106   105    2
    46    19    18    2
    47     3     5   am
    48    18    17    1
    49   105   104    1
    50   100    99    2
    51    98    97    1
    52    98    99    1
    53   162   163    1
    54    49    50    2
    55    49    48    1
    56   163   166    1
    57    42    45    1
    58    42    43    1
    59    99   103   am
    60    45    46    1
    61     5     6    1
    62    43    44    2
    63    43    47   am
    64   103   104    1
    65   104   107    1
    66    17    16    1
    67    17    20    1
    68    47    48    1
    69    16     7   am
    70    48    51    1
    71   166   167    1
    72    54    53    1
    73     7     8    2
    74     7     6    1
    75   167   169   ar
    76   167   168   ar
    77   169   171   ar
    78     6     9    1
    79   168   170   ar
    80    21    20    1
    81   171   170   ar
    82   107   108    1
    83    51    52    1
    84    20    22    1
    85   108   109   ar
    86   108   110   ar
    87    52    53    1
    88     9    10    1
    89    55    56    1
    90    10    11   ar
    91    10    12   ar
    92   154   152    1
    93    11    13   ar
    94    12    14   ar
    95    56    59    1
    96    56    57    1
    97   152   153    1
    98   152   149    1
    99   161   159    1
   100   159   160    1
   101   159   156    1
   102    58    57    2
   103    13    15   ar
   104    14    15   ar
   105   158   157    2
   106   130   129    1
   107   148   149    1
   108   155   156    1
   109   155   150   am
   110   146   145    1
   111   149   150    1
   112   156   157    1
   113   125   126    1
   114   126   129    1
   115   126   127    1
   116   150   151    2
   117   129   131    1
   118   147   145    1
   119   145   144    1
   120   144   141    1
   121   127   128    2
   122   141   140    1
   123   141   142    1
   124    92    91    2
   125    67    65    1
   126   143   142    2
   127    65    64    1
   128    91    90    1
   129   139   137    1
   130   132   133    1
   131    80    78    1
   132    89    90    1
   133   133   134    1
   134   133   136    1
   135    90    93    1
   136    64    66    1
   137    64    61    1
   138    93    94    1
   139   137   136    1
   140   137   138    1
   141   135   134    2
   142    60    61    1
   143    61    62    1
   144    78    77    1
   145    94    95    1
   146    94    96    1
   147    79    77    1
   148    77    74    1
   149    62    63    2
   150    74    73    1
   151    74    75    1
   152    73    70   am
   153    72    69    1
   154    68    69    1
   155    75    76    2
   156    70    69    1
   157    70    71    2
   158    87    86    1
   159    85    86    1
   160    85    82    1
   161    86    88    1
   162    83    84    2
   163    83    82    1
   164    82    81    1
