@<TRIPOS>MOLECULE
tmp/4ke8C00.pdb
 198 186 0 0 0
SMALL
GASTEIGER

@<TRIPOS>ATOM
      1  N         34.8400   -5.4550  -33.8380 N.3    27  GLY27      -0.1210
      2  CA        33.5930   -5.0770  -33.1930 C.3    27  GLY27       0.1956
      3  C         33.4800   -5.2280  -31.6840 C.2    27  GLY27       0.2612
      4  O         34.4140   -5.6390  -30.9870 O.2    27  GLY27      -0.2717
      5  N         32.2840   -4.8970  -31.2010 N.am   28  PHE28      -0.1962
      6  CA        31.9070   -4.8360  -29.7890 C.3    28  PHE28       0.1771
      7  C         31.9450   -6.2200  -29.1290 C.2    28  PHE28       0.2620
      8  O         31.2740   -7.1490  -29.5860 O.2    28  PHE28      -0.2715
      9  CB        30.4910   -4.2450  -29.7710 C.3    28  PHE28       0.0574
     10  CG        29.8920   -4.0190  -28.4080 C.ar   28  PHE28      -0.0200
     11  CD1       30.1240   -2.8370  -27.7100 C.ar   28  PHE28      -0.0042
     12  CD2       28.9900   -4.9390  -27.8800 C.ar   28  PHE28      -0.0042
     13  CE1       29.5070   -2.6070  -26.4700 C.ar   28  PHE28      -0.0003
     14  CE2       28.3770   -4.7210  -26.6500 C.ar   28  PHE28      -0.0003
     15  CZ        28.6410   -3.5550  -25.9390 C.ar   28  PHE28      -0.0000
     16  N         32.7280   -6.3220  -28.0480 N.am   29  THR29      -0.1937
     17  CA        33.0660   -7.5700  -27.3320 C.3    29  THR29       0.2028
     18  C         33.9820   -8.5090  -28.1020 C.2    29  THR29       0.2642
     19  O         34.3900   -9.5490  -27.5670 O.2    29  THR29      -0.2714
     20  CB        31.8410   -8.3930  -26.8430 C.3    29  THR29       0.1808
     21  OG1       31.2370   -9.0630  -27.9550 O.3    29  THR29      -0.2208
     22  CG2       30.8220   -7.5200  -26.1160 C.3    29  THR29       0.0379
     23  N         34.3140   -8.1430  -29.3400 N.am   30  GLY30      -0.1954
     24  CA        35.1850   -8.9540  -30.1660 C.3    30  GLY30       0.1869
     25  C         36.6630   -8.6210  -30.0210 C.2    30  GLY30       0.2309
     26  O         37.0950   -8.0160  -29.0240 O.2    30  GLY30      -0.2863
     27  N         34.0390   -4.1780  -38.9900 N.3    95  LEU95      -0.1231
     28  CA        32.8830   -5.0500  -38.8030 C.3    95  LEU95       0.1693
     29  C         32.0630   -4.6280  -37.5930 C.2    95  LEU95       0.2593
     30  O         32.6060   -4.4270  -36.4960 O.2    95  LEU95      -0.2718
     31  CB        33.3150   -6.5100  -38.6540 C.3    95  LEU95       0.0284
     32  CG        32.1870   -7.4970  -38.3370 C.3    95  LEU95       0.0019
     33  CD1       31.2310   -7.6830  -39.5330 C.3    95  LEU95       0.0001
     34  CD2       32.7920   -8.8310  -37.8750 C.3    95  LEU95       0.0001
     35  N         30.7590   -4.4640  -37.8050 N.am   96  SER96      -0.1938
     36  CA        29.8120   -4.1900  -36.7080 C.3    96  SER96       0.2055
     37  C         30.0950   -2.8230  -36.0790 C.2    96  SER96       0.2642
     38  O         30.0020   -1.8060  -36.7630 O.2    96  SER96      -0.2714
     39  CB        29.8450   -5.3100  -35.6640 C.3    96  SER96       0.2130
     40  OG        28.6200   -5.3760  -34.9590 O.3    96  SER96      -0.2179
     41  N         30.4430   -2.7830  -34.7940 N.am   97  MET97      -0.1976
     42  CA        30.8340   -1.5100  -34.1840 C.3    97  MET97       0.1605
     43  C         32.1260   -1.0200  -34.8550 C.2    97  MET97       0.2287
     44  O         32.4300    0.1870  -34.8740 O.2    97  MET97      -0.2864
     45  CB        31.0190   -1.6310  -32.6680 C.3    97  MET97       0.0413
     46  CG        31.3110   -0.2760  -31.9920 C.3    97  MET97       0.0598
     47  SD        31.6260   -0.3060  -30.2040 S.3    97  MET97      -0.1393
     48  CE        33.1880   -1.1810  -30.1710 C.3    97  MET97       0.0692
     49  N         26.8790   -0.7490  -37.4090 N.3   121  ALA121     -0.1245
     50  CA        25.7360   -0.4950  -36.5390 C.3   121  ALA121      0.1562
     51  C         25.4930    1.0010  -36.3370 C.2   121  ALA121      0.2260
     52  O         26.3660    1.7050  -35.8250 O.2   121  ALA121     -0.2867
     53  CB        25.9470   -1.1740  -35.2030 C.3   121  ALA121      0.0290
     54  N         19.9600    0.2020  -33.4320 N.3   124  ILE124     -0.1245
     55  CA        19.5920   -1.1440  -32.9930 C.3   124  ILE124      0.1561
     56  C         18.4590   -1.0810  -31.9610 C.2   124  ILE124      0.2260
     57  O         18.7120   -0.9560  -30.7610 O.2   124  ILE124     -0.2867
     58  CB        20.8030   -1.9020  -32.3890 C.3   124  ILE124      0.0252
     59  CG1       22.0200   -1.8260  -33.3190 C.3   124  ILE124      0.0019
     60  CG2       20.4570   -3.3640  -32.1240 C.3   124  ILE124      0.0019
     61  CD1       23.2050   -2.6200  -32.8090 C.3   124  ILE124      0.0001
     62  N         16.5740   -3.0660  -30.4580 N.3   126  ALA126     -0.1231
     63  CA        16.6080   -3.9820  -29.3180 C.3   126  ALA126      0.1694
     64  C         17.3750   -3.3920  -28.1310 C.2   126  ALA126      0.2591
     65  O         16.9910   -3.6000  -26.9730 O.2   126  ALA126     -0.2718
     66  CB        17.1810   -5.3200  -29.7220 C.3   126  ALA126      0.0304
     67  N         18.4690   -2.6800  -28.4150 N.am  127  ILE127     -0.1980
     68  CA        19.2260   -2.0110  -27.3600 C.3   127  ILE127      0.1595
     69  C         18.4110   -0.8840  -26.7310 C.2   127  ILE127      0.2287
     70  O         18.3150   -0.7890  -25.5100 O.2   127  ILE127     -0.2864
     71  CB        20.5830   -1.4640  -27.8750 C.3   127  ILE127      0.0276
     72  CG1       21.4780   -2.6230  -28.3090 C.3   127  ILE127      0.0022
     73  CG2       21.2600   -0.6320  -26.7960 C.3   127  ILE127      0.0022
     74  CD1       22.8060   -2.1980  -28.9410 C.3   127  ILE127      0.0001
     75  N         15.7070   -2.4050  -24.5510 N.3   130  GLY130     -0.1210
     76  CA        16.2420   -2.9920  -23.3270 C.3   130  GLY130      0.1956
     77  C         16.7510   -1.9780  -22.3170 C.2   130  GLY130      0.2611
     78  O         16.5340   -2.1210  -21.1040 O.2   130  GLY130     -0.2717
     79  N         17.4090   -0.9360  -22.8200 N.am  131  MET131     -0.1979
     80  CA        18.1380   -0.0040  -21.9660 C.3   131  MET131      0.1605
     81  C         17.3200    1.1970  -21.4790 C.2   131  MET131      0.2287
     82  O         17.5670    1.7120  -20.3870 O.2   131  MET131     -0.2864
     83  CB        19.4110    0.4730  -22.6830 C.3   131  MET131      0.0413
     84  CG        20.3920   -0.6490  -23.0390 C.3   131  MET131      0.0598
     85  SD        21.2000   -1.4020  -21.6050 S.3   131  MET131     -0.1393
     86  CE        22.1660   -0.0080  -20.9970 C.3   131  MET131      0.0692
     87  N         18.6380   -2.5810  -14.2920 N.3   137  LEU137     -0.1231
     88  CA        19.1720   -3.3030  -15.4520 C.3   137  LEU137      0.1678
     89  C         20.1090   -4.4100  -14.9830 C.2   137  LEU137      0.2434
     90  O         20.9470   -4.1760  -14.1060 O.2   137  LEU137     -0.2733
     91  CB        19.9490   -2.3580  -16.3710 C.3   137  LEU137      0.0284
     92  CG        19.1680   -1.1960  -16.9730 C.3   137  LEU137      0.0019
     93  CD1       20.0790   -0.3530  -17.8560 C.3   137  LEU137      0.0001
     94  CD2       17.9900   -1.7340  -17.7650 C.3   137  LEU137      0.0001
     95  N         19.9860   -5.6180  -15.5660 N.am  138  PRO138     -0.2729
     96  CA        20.9370   -6.6760  -15.1930 C.3   138  PRO138      0.1401
     97  C         22.3420   -6.2410  -15.5930 C.2   138  PRO138      0.2269
     98  O         22.4810   -5.5540  -16.6050 O.2   138  PRO138     -0.2865
     99  CB        20.5010   -7.8630  -16.0590 C.3   138  PRO138      0.0296
    100  CG        19.8390   -7.2210  -17.2630 C.3   138  PRO138      0.0237
    101  CD        19.1290   -6.0120  -16.7030 C.3   138  PRO138      0.0939
    102  N         24.5140   -9.4530  -19.9890 N.3   141  LEU141     -0.1245
    103  CA        23.7580  -10.3370  -20.8750 C.3   141  LEU141      0.1561
    104  C         24.6550  -11.5090  -21.2570 C.2   141  LEU141      0.2260
    105  O         25.8430  -11.5050  -20.9450 O.2   141  LEU141     -0.2867
    106  CB        23.3580   -9.6100  -22.1620 C.3   141  LEU141      0.0270
    107  CG        22.4470   -8.3930  -22.0850 C.3   141  LEU141      0.0019
    108  CD1       22.1230   -7.9360  -23.5010 C.3   141  LEU141      0.0001
    109  CD2       21.1690   -8.7080  -21.3050 C.3   141  LEU141      0.0001
    110  N         27.0810  -12.1770  -27.3440 N.3   144  ILE144     -0.1231
    111  CA        26.4360  -11.8110  -28.6050 C.3   144  ILE144      0.1692
    112  C         27.2820  -12.2230  -29.8150 C.2   144  ILE144      0.2593
    113  O         26.9080  -11.9530  -30.9560 O.2   144  ILE144     -0.2718
    114  CB        26.1570  -10.2960  -28.6800 C.3   144  ILE144      0.0266
    115  CG1       27.4290   -9.5150  -28.3370 C.3   144  ILE144      0.0019
    116  CG2       25.0080   -9.9090  -27.7330 C.3   144  ILE144      0.0020
    117  CD1       27.6310   -8.2720  -29.1690 C.3   144  ILE144      0.0001
    118  N         28.4130  -12.8770  -29.5560 N.am  145  GLY145     -0.1942
    119  CA        29.3270  -13.2880  -30.6140 C.3   145  GLY145      0.2014
    120  C         28.9470  -14.5710  -31.3410 C.2   145  GLY145      0.2640
    121  O         28.0380  -15.2940  -30.9200 O.2   145  GLY145     -0.2714
    122  N         29.6480  -14.8460  -32.4420 N.am  146  SER146     -0.1935
    123  CA        29.4440  -16.0620  -33.2330 C.3   146  SER146      0.2055
    124  C         28.0730  -16.2220  -33.8990 C.2   146  SER146      0.2643
    125  O         27.5930  -17.3520  -34.0470 O.2   146  SER146     -0.2714
    126  CB        29.7600  -17.3180  -32.4080 C.3   146  SER146      0.2130
    127  OG        31.1130  -17.3450  -32.0070 O.3   146  SER146     -0.2179
    128  N         27.4370  -15.1180  -34.2930 N.am  147  ASP147     -0.1971
    129  CA        26.3090  -15.2190  -35.2160 C.3   147  ASP147      0.1709
    130  C         26.8990  -15.5370  -36.5940 C.2   147  ASP147      0.2293
    131  O         27.2200  -14.6380  -37.3850 O.2   147  ASP147     -0.2864
    132  CB        25.4800  -13.9320  -35.2460 C.3   147  ASP147      0.1436
    133  CG        24.3330  -13.9950  -36.2530 C.2   147  ASP147      0.3671
    134  OD1       23.6710  -15.0550  -36.3540 O.co2 147  ASP147     -0.2456
    135  OD2       24.0960  -12.9830  -36.9550 O.co2 147  ASP147     -0.2456
    136  N         33.7060  -17.2880  -33.2320 N.3   155  GLU155     -0.1245
    137  CA        34.3370  -15.9880  -33.0720 C.3   155  GLU155      0.1567
    138  C         34.8970  -15.9120  -31.6520 C.2   155  GLU155      0.2260
    139  O         34.2760  -16.4060  -30.7060 O.2   155  GLU155     -0.2867
    140  CB        33.2960  -14.8830  -33.3040 C.3   155  GLU155      0.0388
    141  CG        33.8050  -13.4430  -33.1710 C.3   155  GLU155      0.1160
    142  CD        32.6740  -12.4130  -33.2140 C.2   155  GLU155      0.3649
    143  OE1       31.4980  -12.7960  -33.0180 O.co2 155  GLU155     -0.2457
    144  OE2       32.9610  -11.2170  -33.4400 O.co2 155  GLU155     -0.2457
    145  N         26.1050   -4.5710  -19.7070 N.3   163  THR163     -0.1218
    146  CA        25.0720   -3.6240  -20.1270 C.3   163  THR163      0.1862
    147  C         25.5510   -2.1780  -20.0550 C.2   163  THR163      0.2287
    148  O         25.0770   -1.3220  -20.8020 O.2   163  THR163     -0.2866
    149  CB        23.7410   -3.8170  -19.3640 C.3   163  THR163      0.1770
    150  OG1       23.9690   -3.6940  -17.9540 O.3   163  THR163     -0.2211
    151  CG2       23.1780   -5.1870  -19.6770 C.3   163  THR163      0.0375
    152  N         26.8110   -1.5160  -23.3760 N.3   166  LEU166     -0.1245
    153  CA        25.7370   -1.2640  -24.3390 C.3   166  LEU166      0.1561
    154  C         25.3410    0.2110  -24.3610 C.2   166  LEU166      0.2260
    155  O         25.0100    0.7620  -25.4130 O.2   166  LEU166     -0.2867
    156  CB        24.5100   -2.1210  -24.0250 C.3   166  LEU166      0.0270
    157  CG        24.6750   -3.6040  -24.3160 C.3   166  LEU166      0.0019
    158  CD1       23.5130   -4.3790  -23.7200 C.3   166  LEU166      0.0001
    159  CD2       24.7610   -3.8600  -25.8200 C.3   166  LEU166      0.0001
    160  N         27.9070    1.9510  -26.3500 N.3   169  LEU169     -0.1245
    161  CA        27.6950    1.6760  -27.7670 C.3   169  LEU169      0.1561
    162  C         26.5220    2.4880  -28.3030 C.2   169  LEU169      0.2260
    163  O         26.5750    2.9960  -29.4200 O.2   169  LEU169     -0.2867
    164  CB        27.4540    0.1810  -28.0060 C.3   169  LEU169      0.0270
    165  CG        26.9080   -0.1830  -29.3900 C.3   169  LEU169      0.0019
    166  CD1       27.9500    0.0800  -30.4870 C.3   169  LEU169      0.0001
    167  CD2       26.4460   -1.6400  -29.4040 C.3   169  LEU169      0.0001
    168  N         22.1720   -9.8320  -35.3600 N.3   197  VAL197     -0.1231
    169  CA        22.7540   -8.9400  -34.3520 C.3   197  VAL197      0.1692
    170  C         22.5240   -7.4740  -34.7100 C.2   197  VAL197      0.2591
    171  O         21.9620   -6.7150  -33.9260 O.2   197  VAL197     -0.2718
    172  CB        24.2700   -9.2030  -34.1570 C.3   197  VAL197      0.0266
    173  CG1       24.8500   -8.2170  -33.1580 C.3   197  VAL197      0.0020
    174  CG2       24.5180  -10.6240  -33.6650 C.3   197  VAL197      0.0020
    175  N         22.9910   -7.0740  -35.8870 N.am  198  VAL198     -0.1980
    176  CA        22.7440   -5.7240  -36.3920 C.3   198  VAL198      0.1595
    177  C         21.7190   -5.8010  -37.5280 C.2   198  VAL198      0.2287
    178  O         21.9560   -6.5070  -38.5120 O.2   198  VAL198     -0.2864
    179  CB        24.0420   -5.0950  -36.9320 C.3   198  VAL198      0.0276
    180  CG1       23.7480   -3.7970  -37.6810 C.3   198  VAL198      0.0022
    181  CG2       25.0240   -4.8540  -35.7920 C.3   198  VAL198      0.0022
    182  N         25.9560  -12.3610  -39.0960 N.3   225  HIS225     -0.1226
    183  CA        26.6150  -11.1310  -38.6710 C.3   225  HIS225      0.1752
    184  C         28.1300  -11.0840  -38.8680 C.2   225  HIS225      0.2595
    185  O         28.6710  -10.0920  -39.3630 O.2   225  HIS225     -0.2718
    186  CB        26.3060  -10.8210  -37.2110 C.3   225  HIS225      0.0759
    187  CG        26.9220   -9.5450  -36.7470 C.ar  225  HIS225      0.0818
    188  ND1       26.5730   -8.3210  -37.2800 N.ar  225  HIS225     -0.2268
    189  CD2       27.8940   -9.3010  -35.8400 C.ar  225  HIS225      0.1154
    190  CE1       27.2900   -7.3760  -36.7020 C.ar  225  HIS225      0.1986
    191  NE2       28.0990   -7.9430  -35.8250 N.ar  225  HIS225     -0.2212
    192  N         28.8280  -12.1350  -38.4560 N.am  226  VAL226     -0.1980
    193  CA        30.2860  -12.0960  -38.4720 C.3   226  VAL226      0.1595
    194  C         30.8100  -12.4250  -39.8710 C.2   226  VAL226      0.2287
    195  O         31.4980  -13.4220  -40.0750 O.2   226  VAL226     -0.2864
    196  CB        30.8890  -13.0220  -37.3980 C.3   226  VAL226      0.0276
    197  CG1       32.3870  -12.7390  -37.2170 C.3   226  VAL226      0.0022
    198  CG2       30.1580  -12.8300  -36.0800 C.3   226  VAL226      0.0022
@<TRIPOS>BOND
     1   195   194    2
     2   194   193    1
     3    33    32    1
     4   185   184    2
     5   182   183    1
     6    27    28    1
     7   184   183    1
     8   184   192   am
     9    28    31    1
    10    28    29    1
    11   183   186    1
    12    31    32    1
    13   178   177    2
    14   193   192    1
    15   193   196    1
    16    32    34    1
    17    35    29   am
    18    35    36    1
    19   180   179    1
    20    29    30    2
    21   177   176    1
    22    49    50    1
    23   196   197    1
    24   196   198    1
    25   131   130    2
    26   188   187   ar
    27   188   190   ar
    28   186   187    1
    29   135   133   ar
    30   179   176    1
    31   179   181    1
    32    38    37    2
    33   187   189   ar
    34    36    37    1
    35    36    39    1
    36   190   191   ar
    37   130   129    1
    38    50    51    1
    39    50    53    1
    40   176   175    1
    41   134   133   ar
    42    51    52    2
    43   133   132    1
    44    37    41   am
    45   175   170   am
    46   189   191   ar
    47    39    40    1
    48   168   169    1
    49   132   129    1
    50   129   128    1
    51    44    43    2
    52    43    42    1
    53    41    42    1
    54   170   169    1
    55   170   171    2
    56   169   172    1
    57   128   124   am
    58    42    45    1
    59   172   174    1
    60   172   173    1
    61   125   124    2
    62   124   123    1
    63     1     2    1
    64   144   142   ar
    65    54    55    1
    66    59    61    1
    67    59    58    1
    68   140   141    1
    69   140   137    1
    70   123   122    1
    71   123   126    1
    72   136   137    1
    73   142   141    1
    74   142   143   ar
    75     2     3    1
    76   137   138    1
    77    55    58    1
    78    55    56    1
    79    45    46    1
    80   122   120   am
    81   126   127    1
    82    58    60    1
    83    46    47    1
    84    56    57    2
    85     3     5   am
    86     3     4    2
    87   138   139    2
    88   120   121    2
    89   120   119    1
    90     5     6    1
    91   113   112    2
    92   119   118    1
    93   166   165    1
    94    62    63    1
    95    47    48    1
    96    24    25    1
    97    24    23    1
    98    25    26    2
    99   112   118   am
   100   112   111    1
   101     6     9    1
   102     6     7    1
   103     9    10    1
   104    66    63    1
   105     8     7    2
   106   163   162    2
   107   167   165    1
   108   165   164    1
   109    23    18   am
   110    63    64    1
   111   117   115    1
   112     7    16   am
   113    74    72    1
   114   114   111    1
   115   114   115    1
   116   114   116    1
   117   111   110    1
   118    67    64   am
   119    67    68    1
   120    10    12   ar
   121    10    11   ar
   122    72    71    1
   123   162   161    1
   124    64    65    2
   125    18    19    2
   126    18    17    1
   127    16    17    1
   128   164   161    1
   129    21    20    1
   130    12    14   ar
   131    71    68    1
   132    71    73    1
   133   161   160    1
   134    11    13   ar
   135    68    69    1
   136    17    20    1
   137    20    22    1
   138    69    70    2
   139    14    15   ar
   140    13    15   ar
   141   159   157    1
   142   155   154    2
   143    75    76    1
   144   154   153    1
   145   153   156    1
   146   153   152    1
   147   157   156    1
   148   157   158    1
   149   108   107    1
   150    76    77    1
   151    84    83    1
   152    84    85    1
   153    79    77   am
   154    79    80    1
   155    83    80    1
   156    77    78    2
   157   106   107    1
   158   106   103    1
   159   107   109    1
   160    80    81    1
   161    85    86    1
   162    81    82    2
   163   104   105    2
   164   104   103    1
   165   103   102    1
   166   148   147    2
   167   146   147    1
   168   146   145    1
   169   146   149    1
   170   151   149    1
   171   149   150    1
   172    93    92    1
   173    94    92    1
   174   100   101    1
   175   100    99    1
   176    92    91    1
   177   101    95    1
   178    98    97    2
   179    91    88    1
   180    99    96    1
   181    97    96    1
   182    95    96    1
   183    95    89   am
   184    88    89    1
   185    88    87    1
   186    89    90    2
