@<TRIPOS>MOLECULE
tmp/4keaA00.pdb
 102 96 0 0 0
SMALL
GASTEIGER

@<TRIPOS>ATOM
      1  N         19.6710  -26.0000   -6.2040 N.3    27  GLY27      -0.1210
      2  CA        19.6130  -25.9980   -4.7530 C.3    27  GLY27       0.1956
      3  C         19.8080  -27.3110   -4.0120 C.2    27  GLY27       0.2612
      4  O         20.0380  -28.3650   -4.6020 O.2    27  GLY27      -0.2717
      5  N         19.6950  -27.2000   -2.6900 N.am   28  PHE28      -0.1962
      6  CA        19.8870  -28.2570   -1.6990 C.3    28  PHE28       0.1771
      7  C         18.8570  -29.3830   -1.8560 C.2    28  PHE28       0.2620
      8  O         17.6540  -29.1480   -1.7450 O.2    28  PHE28      -0.2715
      9  CB        19.7640  -27.5690   -0.3350 C.3    28  PHE28       0.0574
     10  CG        19.9940  -28.4520    0.8570 C.ar   28  PHE28      -0.0200
     11  CD1       21.2740  -28.6420    1.3660 C.ar   28  PHE28      -0.0042
     12  CD2       18.9180  -29.0180    1.5260 C.ar   28  PHE28      -0.0042
     13  CE1       21.4790  -29.4220    2.4930 C.ar   28  PHE28      -0.0003
     14  CE2       19.1120  -29.7990    2.6500 C.ar   28  PHE28      -0.0003
     15  CZ        20.3960  -30.0030    3.1350 C.ar   28  PHE28      -0.0000
     16  N         19.3520  -30.6000   -2.1050 N.am   29  THR29      -0.1937
     17  CA        18.5540  -31.7910   -2.4590 C.3    29  THR29       0.2028
     18  C         17.9470  -31.7350   -3.8580 C.2    29  THR29       0.2642
     19  O         17.3040  -32.6940   -4.2920 O.2    29  THR29      -0.2714
     20  CB        17.4150  -32.1430   -1.4450 C.3    29  THR29       0.1808
     21  OG1       16.3190  -31.2300   -1.6020 O.3    29  THR29      -0.2208
     22  CG2       17.9150  -32.1270   -0.0110 C.3    29  THR29       0.0379
     23  N         18.1500  -30.6190   -4.5530 N.am   30  GLY30      -0.1954
     24  CA        17.6040  -30.4350   -5.8880 C.3    30  GLY30       0.1869
     25  C         18.5120  -30.9400   -6.9940 C.2    30  GLY30       0.2309
     26  O         19.4870  -31.6440   -6.7320 O.2    30  GLY30      -0.2863
     27  N         15.6450  -27.5910  -11.7780 N.3    34  SER34      -0.1217
     28  CA        15.1190  -26.3220  -11.2750 C.3    34  SER34       0.1889
     29  C         15.5520  -25.1200  -12.1070 C.2    34  SER34       0.2288
     30  O         14.8320  -24.1320  -12.2220 O.2    34  SER34      -0.2866
     31  CB        15.5730  -26.1010   -9.8300 C.3    34  SER34       0.2089
     32  OG        15.0650  -27.0950   -8.9620 O.3    34  SER34      -0.2183
     33  N         19.1990  -20.5560   -7.3840 N.3    95  LEU95      -0.1231
     34  CA        17.9680  -20.6520   -6.6040 C.3    95  LEU95       0.1693
     35  C         18.2360  -21.2340   -5.2210 C.2    95  LEU95       0.2592
     36  O         18.8640  -22.2880   -5.1010 O.2    95  LEU95      -0.2718
     37  CB        16.9530  -21.5300   -7.3370 C.3    95  LEU95       0.0284
     38  CG        15.6530  -21.8650   -6.6040 C.3    95  LEU95       0.0019
     39  CD1       14.8250  -20.6090   -6.3760 C.3    95  LEU95       0.0001
     40  CD2       14.8620  -22.8950   -7.3890 C.3    95  LEU95       0.0001
     41  N         17.7510  -20.5470   -4.1880 N.am   96  SER96      -0.1952
     42  CA        17.8410  -21.0280   -2.8040 C.3    96  SER96       0.1924
     43  C         19.2930  -21.2000   -2.3520 C.2    96  SER96       0.2314
     44  O         20.0360  -20.2190   -2.2860 O.2    96  SER96      -0.2863
     45  CB        17.0380  -22.3190   -2.6200 C.3    96  SER96       0.2116
     46  OG        16.6990  -22.5110   -1.2610 O.3    96  SER96      -0.2180
     47  N          7.1800  -32.5750   -0.6040 N.3   145  GLY145     -0.1210
     48  CA         6.9120  -31.7870   -1.7890 C.3   145  GLY145      0.1956
     49  C          7.5580  -30.4240   -1.8130 C.2   145  GLY145      0.2613
     50  O          8.0580  -29.9310   -0.8030 O.2   145  GLY145     -0.2717
     51  N          7.5400  -29.8110   -2.9890 N.am  146  SER146     -0.1938
     52  CA         8.1870  -28.5210   -3.1960 C.3   146  SER146      0.2055
     53  C          7.2440  -27.3550   -2.9280 C.2   146  SER146      0.2643
     54  O          6.0340  -27.4610   -3.1390 O.2   146  SER146     -0.2714
     55  CB         8.7460  -28.4250   -4.6150 C.3   146  SER146      0.2130
     56  OG         9.8080  -29.3400   -4.8030 O.3   146  SER146     -0.2179
     57  N          7.8080  -26.2460   -2.4600 N.am  147  ASP147     -0.1971
     58  CA         7.0330  -25.0440   -2.2000 C.3   147  ASP147      0.1709
     59  C          6.7740  -24.3120   -3.5090 C.2   147  ASP147      0.2293
     60  O          7.5690  -23.4730   -3.9400 O.2   147  ASP147     -0.2864
     61  CB         7.7700  -24.1410   -1.2130 C.3   147  ASP147      0.1436
     62  CG         6.9180  -22.9820   -0.7330 C.2   147  ASP147      0.3671
     63  OD1        5.6830  -23.1480   -0.6400 O.co2 147  ASP147     -0.2456
     64  OD2        7.4880  -21.9120   -0.4460 O.co2 147  ASP147     -0.2456
     65  N          9.0480  -30.8970   -9.1300 N.3   155  GLU155     -0.1245
     66  CA        10.4940  -30.6470   -9.0970 C.3   155  GLU155      0.1567
     67  C         11.2520  -31.9540   -8.8420 C.2   155  GLU155      0.2260
     68  O         10.7870  -32.8710   -8.1660 O.2   155  GLU155     -0.2867
     69  CB        10.8540  -29.7150   -7.9510 C.3   155  GLU155      0.0388
     70  CG        12.2750  -29.2420   -8.0150 C.3   155  GLU155      0.1160
     71  CD        12.7730  -28.4890   -6.8050 C.2   155  GLU155      0.3649
     72  OE1       13.9130  -28.0910   -6.8940 O.co2 155  GLU155     -0.2457
     73  OE2       12.0630  -28.3220   -5.7910 O.co2 155  GLU155     -0.2457
     74  N         13.7960  -33.7190   -7.1900 N.3   157  ALA157     -0.1245
     75  CA        14.5610  -33.5750   -5.9490 C.3   157  ALA157      0.1562
     76  C         14.4360  -34.8470   -5.0720 C.2   157  ALA157      0.2260
     77  O         13.5590  -35.6090   -5.2420 O.2   157  ALA157     -0.2867
     78  CB        14.1120  -32.3570   -5.1940 C.3   157  ALA157      0.0290
     79  N          9.6690  -21.5530    2.9310 N.3   197  VAL197     -0.1245
     80  CA        10.9440  -22.2400    3.1240 C.3   197  VAL197      0.1561
     81  C         12.0090  -21.2880    3.6640 C.2   197  VAL197      0.2260
     82  O         12.5550  -21.4980    4.7490 O.2   197  VAL197     -0.2867
     83  CB        11.4480  -22.8600    1.8090 C.3   197  VAL197      0.0252
     84  CG1       12.7980  -23.5250    2.0170 C.3   197  VAL197      0.0019
     85  CG2       10.4410  -23.8590    1.2710 C.3   197  VAL197      0.0019
     86  N          8.5190  -20.5110   -3.0450 N.3   225  HIS225     -0.1226
     87  CA         9.9800  -20.6080   -2.9810 C.3   225  HIS225      0.1752
     88  C         10.6640  -21.0210   -4.2920 C.2   225  HIS225      0.2595
     89  O         11.6420  -20.3960   -4.7090 O.2   225  HIS225     -0.2718
     90  CB        10.4060  -21.5470   -1.8530 C.3   225  HIS225      0.0759
     91  CG        11.8880  -21.6390   -1.6770 C.ar  225  HIS225      0.0818
     92  ND1       12.6930  -20.5300   -1.5270 N.ar  225  HIS225     -0.2268
     93  CD2       12.7160  -22.7110   -1.6270 C.ar  225  HIS225      0.1154
     94  CE1       13.9490  -20.9120   -1.3950 C.ar  225  HIS225      0.1986
     95  NE2       13.9890  -22.2330   -1.4480 N.ar  225  HIS225     -0.2212
     96  N         10.1590  -22.0720   -4.9300 N.am  226  VAL226     -0.1980
     97  CA        10.7730  -22.5840   -6.1560 C.3   226  VAL226      0.1595
     98  C         10.3050  -21.7480   -7.3500 C.2   226  VAL226      0.2287
     99  O          9.6100  -22.2360   -8.2400 O.2   226  VAL226     -0.2864
    100  CB        10.4530  -24.0790   -6.3650 C.3   226  VAL226      0.0276
    101  CG1       11.3430  -24.6730   -7.4460 C.3   226  VAL226      0.0022
    102  CG2       10.6440  -24.8420   -5.0640 C.3   226  VAL226      0.0022
@<TRIPOS>BOND
     1    30    29    2
     2    29    28    1
     3    27    28    1
     4    28    31    1
     5    31    32    1
     6    65    66    1
     7    66    67    1
     8    66    69    1
     9    67    68    2
    10    99    98    2
    11    70    69    1
    12    70    71    1
    13   101   100    1
    14    40    38    1
    15    33    34    1
    16    98    97    1
    17    37    34    1
    18    37    38    1
    19    74    75    1
    20    25    26    2
    21    25    24    1
    22    72    71   ar
    23    71    73   ar
    24    34    35    1
    25    38    39    1
    26   100    97    1
    27   100   102    1
    28     1     2    1
    29    97    96    1
    30    75    78    1
    31    75    76    1
    32    24    23    1
    33    77    76    2
    34    35    36    2
    35    35    41   am
    36    96    88   am
    37    56    55    1
    38     2     3    1
    39    89    88    2
    40    55    52    1
    41     4     3    2
    42    23    18   am
    43    88    87    1
    44    19    18    2
    45    41    42    1
    46     3     5   am
    47    60    59    2
    48    18    17    1
    49    59    58    1
    50    52    51    1
    51    52    53    1
    52    54    53    2
    53    86    87    1
    54    51    49   am
    55    87    90    1
    56    53    57   am
    57    42    45    1
    58    42    43    1
    59     5     6    1
    60    45    46    1
    61    57    58    1
    62    17    16    1
    63    17    20    1
    64    43    44    2
    65    58    61    1
    66    16     7   am
    67     7     8    2
    68     7     6    1
    69    90    91    1
    70    49    48    1
    71    49    50    2
    72    48    47    1
    73     6     9    1
    74    91    93   ar
    75    91    92   ar
    76    93    95   ar
    77    21    20    1
    78    92    94   ar
    79    95    94   ar
    80    20    22    1
    81    61    62    1
    82    62    63   ar
    83    62    64   ar
    84     9    10    1
    85    10    11   ar
    86    10    12   ar
    87    85    83    1
    88    11    13   ar
    89    12    14   ar
    90    83    84    1
    91    83    80    1
    92    13    15   ar
    93    14    15   ar
    94    79    80    1
    95    80    81    1
    96    81    82    2
