@<TRIPOS>MOLECULE
tmp/4keaA01.pdb
 93 85 0 0 0
SMALL
GASTEIGER

@<TRIPOS>ATOM
      1  N         19.6950  -27.2000   -2.6900 N.3    28  PHE28      -0.1241
      2  CA        19.8870  -28.2570   -1.6990 C.3    28  PHE28       0.1605
      3  C         18.8570  -29.3830   -1.8560 C.2    28  PHE28       0.2264
      4  O         17.6540  -29.1480   -1.7450 O.2    28  PHE28      -0.2867
      5  CB        19.7640  -27.5690   -0.3350 C.3    28  PHE28       0.0534
      6  CG        19.9940  -28.4520    0.8570 C.ar   28  PHE28      -0.0203
      7  CD1       21.2740  -28.6420    1.3660 C.ar   28  PHE28      -0.0042
      8  CD2       18.9180  -29.0180    1.5260 C.ar   28  PHE28      -0.0042
      9  CE1       21.4790  -29.4220    2.4930 C.ar   28  PHE28      -0.0003
     10  CE2       19.1120  -29.7990    2.6500 C.ar   28  PHE28      -0.0003
     11  CZ        20.3960  -30.0030    3.1350 C.ar   28  PHE28      -0.0000
     12  N         17.7510  -20.5470   -4.1880 N.3    96  SER96      -0.1202
     13  CA        17.8410  -21.0280   -2.8040 C.3    96  SER96       0.2020
     14  C         19.2930  -21.2000   -2.3520 C.2    96  SER96       0.2618
     15  O         20.0360  -20.2190   -2.2860 O.2    96  SER96      -0.2717
     16  CB        17.0380  -22.3190   -2.6200 C.3    96  SER96       0.2103
     17  OG        16.6990  -22.5110   -1.2610 O.3    96  SER96      -0.2182
     18  N         19.7080  -22.4280   -2.0430 N.am   97  MET97      -0.1979
     19  CA        21.1200  -22.6560   -1.7270 C.3    97  MET97       0.1605
     20  C         21.9820  -22.3430   -2.9460 C.2    97  MET97       0.2287
     21  O         23.1600  -21.9920   -2.8200 O.2    97  MET97      -0.2864
     22  CB        21.3870  -24.0830   -1.2420 C.3    97  MET97       0.0413
     23  CG        22.8100  -24.2560   -0.7070 C.3    97  MET97       0.0598
     24  SD        23.2930  -25.9220   -0.2310 S.3    97  MET97      -0.1393
     25  CE        23.3700  -26.7360   -1.8290 C.3    97  MET97       0.0692
     26  N         19.3750  -18.1650    0.4270 N.3   121  ALA121     -0.1245
     27  CA        19.2840  -18.4120    1.8610 C.3   121  ALA121      0.1562
     28  C         20.5720  -18.0250    2.5810 C.2   121  ALA121      0.2260
     29  O         21.6380  -18.5620    2.2800 O.2   121  ALA121     -0.2867
     30  CB        18.9580  -19.8740    2.1140 C.3   121  ALA121      0.0290
     31  N         18.4580  -18.9580    8.2800 N.3   124  ILE124     -0.1245
     32  CA        17.2820  -19.7460    8.6340 C.3   124  ILE124      0.1561
     33  C         17.4850  -20.2740   10.0550 C.2   124  ILE124      0.2260
     34  O         18.0310  -21.3620   10.2480 O.2   124  ILE124     -0.2867
     35  CB        17.0550  -20.9160    7.6500 C.3   124  ILE124      0.0252
     36  CG1       17.0950  -20.4210    6.2000 C.3   124  ILE124      0.0019
     37  CG2       15.7310  -21.6200    7.9380 C.3   124  ILE124      0.0019
     38  CD1       16.9550  -21.5240    5.1530 C.3   124  ILE124      0.0001
     39  N         17.1380  -23.9100   11.5110 N.3   127  ILE127     -0.1245
     40  CA        18.1200  -24.9300   11.1430 C.3   127  ILE127      0.1561
     41  C         19.2330  -25.0930   12.1810 C.2   127  ILE127      0.2260
     42  O         19.3850  -26.1660   12.7590 O.2   127  ILE127     -0.2867
     43  CB        18.7170  -24.6870    9.7370 C.3   127  ILE127      0.0252
     44  CG1       17.6080  -24.7160    8.6830 C.3   127  ILE127      0.0019
     45  CG2       19.7790  -25.7340    9.4190 C.3   127  ILE127      0.0019
     46  CD1       18.1010  -24.7680    7.2420 C.3   127  ILE127      0.0001
     47  N         15.8060  -35.8640    3.0670 N.3   161  THR161     -0.1218
     48  CA        16.8920  -34.9340    3.3400 C.3   161  THR161      0.1862
     49  C         17.7570  -35.4960    4.4550 C.2   161  THR161      0.2287
     50  O         17.2720  -35.7170    5.5620 O.2   161  THR161     -0.2866
     51  CB        16.3590  -33.5590    3.7660 C.3   161  THR161      0.1770
     52  OG1       15.5930  -32.9850    2.6980 O.3   161  THR161     -0.2211
     53  CG2       17.5060  -32.6230    4.1270 C.3   161  THR161      0.0375
     54  N         22.0910  -30.8430    6.6980 N.3   166  LEU166     -0.1245
     55  CA        21.5460  -29.5880    7.2100 C.3   166  LEU166      0.1561
     56  C         22.6140  -28.7570    7.9220 C.2   166  LEU166      0.2260
     57  O         22.6360  -27.5290    7.8080 O.2   166  LEU166     -0.2867
     58  CB        20.3600  -29.8470    8.1420 C.3   166  LEU166      0.0270
     59  CG        19.0570  -30.2590    7.4640 C.3   166  LEU166      0.0019
     60  CD1       18.0040  -30.6340    8.4960 C.3   166  LEU166      0.0001
     61  CD2       18.5500  -29.1340    6.5800 C.3   166  LEU166      0.0001
     62  N         24.6850  -27.0970    5.2950 N.3   169  LEU169     -0.1245
     63  CA        23.9640  -25.9280    4.7990 C.3   169  LEU169      0.1561
     64  C         24.0800  -24.7570    5.7770 C.2   169  LEU169      0.2260
     65  O         24.3180  -23.6190    5.3730 O.2   169  LEU169     -0.2867
     66  CB        22.4910  -26.2710    4.5600 C.3   169  LEU169      0.0270
     67  CG        21.5660  -25.1040    4.2160 C.3   169  LEU169      0.0019
     68  CD1       22.0260  -24.4170    2.9410 C.3   169  LEU169      0.0001
     69  CD2       20.1260  -25.5750    4.0810 C.3   169  LEU169      0.0001
     70  N          9.6690  -21.5530    2.9310 N.3   197  VAL197     -0.1231
     71  CA        10.9440  -22.2400    3.1240 C.3   197  VAL197      0.1692
     72  C         12.0090  -21.2880    3.6640 C.2   197  VAL197      0.2591
     73  O         12.5550  -21.4980    4.7490 O.2   197  VAL197     -0.2718
     74  CB        11.4480  -22.8600    1.8090 C.3   197  VAL197      0.0266
     75  CG1       12.7980  -23.5250    2.0170 C.3   197  VAL197      0.0020
     76  CG2       10.4410  -23.8590    1.2710 C.3   197  VAL197      0.0020
     77  N         12.2940  -20.2430    2.8940 N.am  198  VAL198     -0.1980
     78  CA        13.2490  -19.2160    3.2910 C.3   198  VAL198      0.1595
     79  C         12.4940  -17.9350    3.6160 C.2   198  VAL198      0.2287
     80  O         11.6920  -17.4690    2.8050 O.2   198  VAL198     -0.2864
     81  CB        14.2660  -18.9300    2.1640 C.3   198  VAL198      0.0276
     82  CG1       15.2190  -17.8090    2.5600 C.3   198  VAL198      0.0022
     83  CG2       15.0410  -20.1900    1.8190 C.3   198  VAL198      0.0022
     84  N          8.5190  -20.5110   -3.0450 N.3   225  HIS225     -0.1241
     85  CA         9.9800  -20.6080   -2.9810 C.3   225  HIS225      0.1621
     86  C         10.6640  -21.0210   -4.2920 C.2   225  HIS225      0.2264
     87  O         11.6420  -20.3960   -4.7090 O.2   225  HIS225     -0.2867
     88  CB        10.4060  -21.5470   -1.8530 C.3   225  HIS225      0.0745
     89  CG        11.8880  -21.6390   -1.6770 C.ar  225  HIS225      0.0817
     90  ND1       12.6930  -20.5300   -1.5270 N.ar  225  HIS225     -0.2268
     91  CD2       12.7160  -22.7110   -1.6270 C.ar  225  HIS225      0.1154
     92  CE1       13.9490  -20.9120   -1.3950 C.ar  225  HIS225      0.1986
     93  NE2       13.9890  -22.2330   -1.4480 N.ar  225  HIS225     -0.2212
@<TRIPOS>BOND
     1    87    86    2
     2    86    85    1
     3    12    13    1
     4    84    85    1
     5    85    88    1
     6    20    21    2
     7    20    19    1
     8    13    16    1
     9    13    14    1
    10     1     2    1
    11    16    17    1
    12    14    15    2
    13    14    18   am
    14    18    19    1
    15     3     4    2
    16     3     2    1
    17    88    89    1
    18    25    24    1
    19    19    22    1
    20     2     5    1
    21    89    91   ar
    22    89    90   ar
    23    91    93   ar
    24    90    92   ar
    25    93    92   ar
    26    22    23    1
    27    23    24    1
    28     5     6    1
    29    26    27    1
    30     6     7   ar
    31     6     8   ar
    32    76    74    1
    33     7     9   ar
    34     8    10   ar
    35    74    75    1
    36    74    71    1
    37    83    81    1
    38    27    30    1
    39    27    28    1
    40    81    82    1
    41    81    78    1
    42    29    28    2
    43     9    11   ar
    44    10    11   ar
    45    52    51    1
    46    80    79    2
    47    77    78    1
    48    77    72   am
    49    70    71    1
    50    68    67    1
    51    47    48    1
    52    71    72    1
    53    78    79    1
    54    48    51    1
    55    48    49    1
    56    72    73    2
    57    51    53    1
    58    69    67    1
    59    67    66    1
    60    49    50    2
    61    66    63    1
    62    63    62    1
    63    63    64    1
    64    38    36    1
    65    65    64    2
    66    36    35    1
    67    61    59    1
    68    54    55    1
    69    55    56    1
    70    55    58    1
    71    46    44    1
    72    59    58    1
    73    59    60    1
    74    35    37    1
    75    35    32    1
    76    57    56    2
    77    31    32    1
    78    32    33    1
    79    44    43    1
    80    45    43    1
    81    43    40    1
    82    33    34    2
    83    40    39    1
    84    40    41    1
    85    41    42    2
