@<TRIPOS>MOLECULE
tmp/4kebA01.pdb
 118 112 0 0 0
SMALL
GASTEIGER

@<TRIPOS>ATOM
      1  N         12.0590   11.8570   25.7000 N.3    21  ASP21      -0.1225
      2  CA        11.6500   10.9810   24.6120 C.3    21  ASP21       0.1805
      3  C         12.5820   11.2500   23.4340 C.2    21  ASP21       0.2597
      4  O         13.5600   11.9820   23.5630 O.2    21  ASP21      -0.2718
      5  CB        10.2030   11.2870   24.2200 C.3    21  ASP21       0.1424
      6  CG         9.5080   10.1030   23.5890 C.2    21  ASP21       0.3668
      7  OD1       10.1950    9.2190   23.0230 O.co2  21  ASP21      -0.2456
      8  OD2        8.2590   10.0590   23.6640 O.co2  21  ASP21      -0.2456
      9  N         12.3060   10.6350   22.2910 N.am   22  LEU22      -0.1979
     10  CA        13.0940   10.8980   21.0880 C.3    22  LEU22       0.1596
     11  C         12.6740   12.2490   20.5010 C.2    22  LEU22       0.2287
     12  O         11.5120   12.7020   20.6890 O.2    22  LEU22      -0.2864
     13  CB        12.8830    9.8050   20.0400 C.3    22  LEU22       0.0297
     14  CG        13.2730    8.4110   20.5120 C.3    22  LEU22       0.0022
     15  CD1       12.9430    7.4180   19.4110 C.3    22  LEU22       0.0001
     16  CD2       14.7590    8.3670   20.8870 C.3    22  LEU22       0.0001
     17  N         13.3260    1.4560   14.8990 N.3    31  PHE31      -0.1241
     18  CA        13.1340    0.7250   16.1490 C.3    31  PHE31       0.1605
     19  C         13.3760   -0.7780   15.9770 C.2    31  PHE31       0.2264
     20  O         14.0320   -1.4100   16.8190 O.2    31  PHE31      -0.2867
     21  CB        11.7270    0.9720   16.7270 C.3    31  PHE31       0.0534
     22  CG        11.3470   -0.0120   17.8050 C.ar   31  PHE31      -0.0203
     23  CD1       11.9070    0.0940   19.0580 C.ar   31  PHE31      -0.0042
     24  CD2       10.4690   -1.0710   17.5520 C.ar   31  PHE31      -0.0042
     25  CE1       11.5950   -0.8210   20.0560 C.ar   31  PHE31      -0.0003
     26  CE2       10.1520   -1.9880   18.5500 C.ar   31  PHE31      -0.0003
     27  CZ        10.7240   -1.8610   19.8030 C.ar   31  PHE31      -0.0000
     28  N         17.0440   -1.3910   15.9600 N.3    34  PHE34      -0.1227
     29  CA        17.5320   -1.3610   17.3320 C.3    34  PHE34       0.1736
     30  C         17.2230   -2.6710   18.0560 C.2    34  PHE34       0.2595
     31  O         18.1050   -3.2560   18.6940 O.2    34  PHE34      -0.2718
     32  CB        16.9270   -0.1660   18.0830 C.3    34  PHE34       0.0547
     33  CG        17.1700   -0.2290   19.5720 C.ar   34  PHE34      -0.0202
     34  CD1       18.3500    0.2330   20.1330 C.ar   34  PHE34      -0.0042
     35  CD2       16.2440   -0.7900   20.4130 C.ar   34  PHE34      -0.0042
     36  CE1       18.5770    0.1490   21.5010 C.ar   34  PHE34      -0.0003
     37  CE2       16.5000   -0.8760   21.7850 C.ar   34  PHE34      -0.0003
     38  CZ        17.6400   -0.4050   22.3200 C.ar   34  PHE34      -0.0000
     39  N         15.9810   -3.1470   17.9610 N.am   35  GLN35      -0.1979
     40  CA        15.5860   -4.4020   18.5800 C.3    35  GLN35       0.1601
     41  C         16.4020   -5.5800   18.0760 C.2    35  GLN35       0.2287
     42  O         16.9350   -6.3580   18.8730 O.2    35  GLN35      -0.2864
     43  CB        14.1010   -4.6380   18.3360 C.3    35  GLN35       0.0394
     44  CG        13.5300   -5.7880   19.1120 C.3    35  GLN35       0.0908
     45  CD        12.0450   -5.8930   18.8640 C.2    35  GLN35       0.2608
     46  OE1       11.2390   -5.7400   19.7790 O.2    35  GLN35      -0.2717
     47  NE2       11.6740   -6.1280   17.6040 N.am   35  GLN35      -0.0878
     48  N         17.4300    7.0700   30.5600 N.3    56  THR56      -0.1218
     49  CA        17.0790    6.2070   29.4470 C.3    56  THR56       0.1862
     50  C         16.1690    5.0670   29.8990 C.2    56  THR56       0.2287
     51  O         15.1730    4.7950   29.2460 O.2    56  THR56      -0.2866
     52  CB        18.3330    5.6980   28.7440 C.3    56  THR56       0.1770
     53  OG1       18.9890    6.8220   28.1480 O.3    56  THR56      -0.2211
     54  CG2       17.9870    4.6970   27.6420 C.3    56  THR56       0.0375
     55  N         12.8150    6.4390   30.2370 N.3    59  SER59      -0.1202
     56  CA        12.2520    6.8500   28.9530 C.3    59  SER59       0.2020
     57  C         11.6430    5.6860   28.1850 C.2    59  SER59       0.2619
     58  O         10.8850    5.9020   27.2300 O.2    59  SER59      -0.2717
     59  CB        13.2970    7.5500   28.0910 C.3    59  SER59       0.2103
     60  OG        14.1480    6.6010   27.4610 O.3    59  SER59      -0.2182
     61  N         11.9660    4.4600   28.6040 N.am   60  ILE60      -0.1966
     62  CA        11.3120    3.2850   28.0370 C.3    60  ILE60       0.1712
     63  C          9.9090    3.1870   28.6160 C.2    60  ILE60       0.2458
     64  O          9.7460    3.2510   29.8390 O.2    60  ILE60      -0.2730
     65  CB        12.0580    1.9890   28.3470 C.3    60  ILE60       0.0289
     66  CG1       13.4780    2.0590   27.7980 C.3    60  ILE60       0.0022
     67  CG2       11.3220    0.8080   27.7080 C.3    60  ILE60       0.0023
     68  CD1       14.3870    0.9790   28.3500 C.3    60  ILE60       0.0001
     69  N          8.8900    3.0360   27.7430 N.am   61  PRO61      -0.2727
     70  CA         7.5240    2.9160   28.2600 C.3    61  PRO61       0.1402
     71  C          7.4620    1.7650   29.2470 C.2    61  PRO61       0.2269
     72  O          7.9720    0.6820   28.9660 O.2    61  PRO61      -0.2865
     73  CB         6.6970    2.6140   27.0100 C.3    61  PRO61       0.0296
     74  CG         7.4920    3.2110   25.8840 C.3    61  PRO61       0.0237
     75  CD         8.9330    2.9890   26.2710 C.3    61  PRO61       0.0939
     76  N          7.0600   -1.9260   28.5330 N.3    64  ASN64      -0.1240
     77  CA         8.1020   -2.5690   27.7410 C.3    64  ASN64       0.1653
     78  C          9.4080   -2.7510   28.4910 C.2    64  ASN64       0.2266
     79  O         10.4300   -3.1210   27.8990 O.2    64  ASN64      -0.2867
     80  CB         8.3540   -1.7790   26.4670 C.3    64  ASN64       0.1155
     81  CG         7.1250   -1.6920   25.5920 C.2    64  ASN64       0.2627
     82  OD1        6.9340   -0.7160   24.8650 O.2    64  ASN64      -0.2716
     83  ND2        6.2930   -2.7240   25.6390 N.am   64  ASN64      -0.0877
     84  N         13.5860   -4.4670   28.6820 N.3    67  LEU67      -0.1231
     85  CA        13.5800   -4.8280   27.2610 C.3    67  LEU67       0.1693
     86  C         13.5970   -6.3530   27.0900 C.2    67  LEU67       0.2591
     87  O         14.5160   -7.0220   27.5610 O.2    67  LEU67      -0.2718
     88  CB        14.7590   -4.1770   26.5300 C.3    67  LEU67       0.0284
     89  CG        14.7740   -2.6390   26.5300 C.3    67  LEU67       0.0019
     90  CD1       16.0320   -2.0960   25.8310 C.3    67  LEU67       0.0001
     91  CD2       13.4840   -2.0390   25.9740 C.3    67  LEU67       0.0001
     92  N         12.5820   -6.9070   26.4360 N.am   68  LYS68      -0.1980
     93  CA        12.4230   -8.3610   26.3600 C.3    68  LYS68       0.1596
     94  C         13.5940   -9.0520   25.6540 C.2    68  LYS68       0.2287
     95  O         14.2160   -8.4880   24.7470 O.2    68  LYS68      -0.2864
     96  CB        11.1130   -8.7020   25.6610 C.3    68  LYS68       0.0298
     97  CG        11.0840   -8.2430   24.2280 C.3    68  LYS68       0.0038
     98  CD         9.7540   -8.4990   23.5620 C.3    68  LYS68       0.0206
     99  CE         9.8050   -7.9880   22.1280 C.3    68  LYS68       0.1093
    100  NZ         8.5620   -8.2810   21.3580 N.3    68  LYS68      -0.1314
    101  N         16.5720   -9.5780   26.5510 N.3    70  ARG70      -0.1245
    102  CA        17.8950   -9.0310   26.8800 C.3    70  ARG70       0.1563
    103  C         18.0040   -8.8690   28.3890 C.2    70  ARG70       0.2260
    104  O         17.0030   -8.6290   29.0670 O.2    70  ARG70      -0.2867
    105  CB        18.0820   -7.6630   26.2030 C.3    70  ARG70       0.0307
    106  CG        18.2590   -7.7420   24.6850 C.3    70  ARG70       0.0489
    107  CD        17.6710   -6.5210   23.9870 C.3    70  ARG70       0.2205
    108  NE        16.2140   -6.5730   23.9980 N.pl3  70  ARG70      -0.0865
    109  CZ        15.4100   -5.7510   23.3310 C.cat  70  ARG70       0.5346
    110  NH1       15.8800   -4.7680   22.5770 N.pl3  70  ARG70       0.1354
    111  NH2       14.0990   -5.9280   23.4350 N.pl3  70  ARG70       0.1354
    112  N         23.2090    1.4400   25.2380 N.3   115  VAL115     -0.1245
    113  CA        22.0650    2.0220   24.5710 C.3   115  VAL115      0.1561
    114  C         21.7470    3.4420   25.0580 C.2   115  VAL115      0.2260
    115  O         20.6430    3.9330   24.8620 O.2   115  VAL115     -0.2867
    116  CB        20.8010    1.0870   24.6480 C.3   115  VAL115      0.0252
    117  CG1       21.1170   -0.2810   24.0790 C.3   115  VAL115      0.0019
    118  CG2       20.2190    0.9530   26.0670 C.3   115  VAL115      0.0019
@<TRIPOS>BOND
     1    17    18    1
     2    28    29    1
     3    19    18    1
     4    19    20    2
     5    18    21    1
     6    21    22    1
     7    29    30    1
     8    29    32    1
     9    24    22   ar
    10    24    26   ar
    11    47    45   am
    12    22    23   ar
    13    39    30   am
    14    39    40    1
    15    30    31    2
    16    41    40    1
    17    41    42    2
    18    32    33    1
    19    43    40    1
    20    43    44    1
    21    26    27   ar
    22    45    44    1
    23    45    46    2
    24    23    25   ar
    25    15    14    1
    26    33    34   ar
    27    33    35   ar
    28    27    25   ar
    29    13    14    1
    30    13    10    1
    31    34    36   ar
    32    35    37   ar
    33    11    12    2
    34    11    10    1
    35    14    16    1
    36    10     9    1
    37   100    99    1
    38    36    38   ar
    39    37    38   ar
    40    99    98    1
    41     9     3   am
    42   110   109    1
    43     7     6   ar
    44   109   111    1
    45   109   108    2
    46     3     4    2
    47     3     2    1
    48    98    97    1
    49     6     8   ar
    50     6     5    1
    51   107   108    1
    52   107   106    1
    53   117   116    1
    54     5     2    1
    55    97    96    1
    56   113   116    1
    57   113   114    1
    58   113   112    1
    59     2     1    1
    60   116   118    1
    61   106   105    1
    62    95    94    2
    63   115   114    2
    64    82    81    2
    65    81    83   am
    66    81    80    1
    67    94    93    1
    68    96    93    1
    69    90    89    1
    70    74    75    1
    71    74    73    1
    72    91    89    1
    73   105   102    1
    74    75    69    1
    75    93    92    1
    76    92    86   am
    77    80    77    1
    78    89    88    1
    79    88    85    1
    80   101   102    1
    81   102   103    1
    82    73    70    1
    83    86    85    1
    84    86    87    2
    85    58    57    2
    86    85    84    1
    87    60    59    1
    88    54    52    1
    89    67    65    1
    90    77    78    1
    91    77    76    1
    92    69    70    1
    93    69    63   am
    94    66    65    1
    95    66    68    1
    96    79    78    2
    97    62    65    1
    98    62    61    1
    99    62    63    1
   100    59    56    1
   101    53    52    1
   102    57    61   am
   103    57    56    1
   104    70    71    1
   105   103   104    2
   106    63    64    2
   107    52    49    1
   108    56    55    1
   109    72    71    2
   110    51    50    2
   111    49    50    1
   112    49    48    1
