@<TRIPOS>MOLECULE
tmp/4kecA00.pdb
 174 169 0 0 0
SMALL
GASTEIGER

@<TRIPOS>ATOM
      1  N          9.8780  -51.5430  -13.2420 N.3   166  ASP166     -0.1225
      2  CA        10.9000  -51.9040  -12.2680 C.3   166  ASP166      0.1805
      3  C         10.4340  -51.4390  -10.8980 C.2   166  ASP166      0.2598
      4  O          9.3390  -50.8990  -10.7650 O.2   166  ASP166     -0.2718
      5  CB        12.2640  -51.3000  -12.6330 C.3   166  ASP166      0.1424
      6  CG        12.2260  -49.7860  -12.7920 C.2   166  ASP166      0.3668
      7  OD1       11.3230  -49.1260  -12.2400 O.co2 166  ASP166     -0.2456
      8  OD2       13.1280  -49.2450  -13.4660 O.co2 166  ASP166     -0.2456
      9  N         11.2590  -51.6510   -9.8830 N.am  167  GLY167     -0.1942
     10  CA        10.9280  -51.2380   -8.5400 C.3   167  GLY167      0.2014
     11  C         10.4030  -49.8230   -8.4530 C.2   167  GLY167      0.2638
     12  O          9.4820  -49.5370   -7.6950 O.2   167  GLY167     -0.2714
     13  N         10.9870  -48.9280   -9.2280 N.am  168  PHE168     -0.1973
     14  CA        10.5990  -47.5290   -9.1670 C.3   168  PHE168      0.1639
     15  C          9.1860  -47.2740   -9.7110 C.2   168  PHE168      0.2290
     16  O          8.3900  -46.5710   -9.0880 O.2   168  PHE168     -0.2864
     17  CB        11.6030  -46.6850   -9.9330 C.3   168  PHE168      0.0560
     18  CG        11.6070  -45.2510   -9.5290 C.ar  168  PHE168     -0.0200
     19  CD1       10.7230  -44.3510  -10.1130 C.ar  168  PHE168     -0.0042
     20  CD2       12.4900  -44.7970   -8.5610 C.ar  168  PHE168     -0.0042
     21  CE1       10.7230  -43.0170   -9.7410 C.ar  168  PHE168     -0.0003
     22  CE2       12.4990  -43.4620   -8.1870 C.ar  168  PHE168     -0.0003
     23  CZ        11.6150  -42.5700   -8.7760 C.ar  168  PHE168     -0.0000
     24  N         32.1490  -50.3930    7.3920 N.3   239  ARG239     -0.1245
     25  CA        32.6520  -49.2660    6.6440 C.3   239  ARG239      0.1563
     26  C         34.0730  -48.8890    7.0810 C.2   239  ARG239      0.2260
     27  O         34.9160  -48.5410    6.2520 O.2   239  ARG239     -0.2867
     28  CB        31.7140  -48.0820    6.8310 C.3   239  ARG239      0.0307
     29  CG        32.3710  -46.7740    6.5430 C.3   239  ARG239      0.0489
     30  CD        32.6290  -46.6440    5.0680 C.3   239  ARG239      0.2205
     31  NE        31.4070  -46.2920    4.3520 N.pl3 239  ARG239     -0.0865
     32  CZ        31.3880  -45.8540    3.0990 C.cat 239  ARG239      0.5346
     33  NH1       32.5330  -45.7180    2.4340 N.pl3 239  ARG239      0.1354
     34  NH2       30.2320  -45.5480    2.5180 N.pl3 239  ARG239      0.1354
     35  N         30.5710  -45.9370   -1.7520 N.3   254  SER254     -0.1202
     36  CA        29.1780  -45.9200   -1.2730 C.3   254  SER254      0.2020
     37  C         28.9480  -47.0360   -0.2540 C.2   254  SER254      0.2619
     38  O         29.7200  -47.9910   -0.1620 O.2   254  SER254     -0.2717
     39  CB        28.1840  -46.0820   -2.4230 C.3   254  SER254      0.2103
     40  OG        28.2830  -47.3910   -2.9540 O.3   254  SER254     -0.2182
     41  N         27.8750  -46.9110    0.5100 N.am  255  THR255     -0.1938
     42  CA        27.5120  -47.9230    1.4900 C.3   255  THR255      0.2028
     43  C         27.1800  -49.2390    0.7890 C.2   255  THR255      0.2642
     44  O         27.5430  -50.3170    1.2600 O.2   255  THR255     -0.2714
     45  CB        26.3150  -47.4700    2.3300 C.3   255  THR255      0.1808
     46  OG1       26.6640  -46.2730    3.0390 O.3   255  THR255     -0.2208
     47  CG2       25.9100  -48.5720    3.3160 C.3   255  THR255      0.0379
     48  N         26.5250  -49.1320   -0.3640 N.am  256  TYR256     -0.1973
     49  CA        26.2010  -50.3100   -1.1510 C.3   256  TYR256      0.1639
     50  C         27.4600  -51.1230   -1.5040 C.2   256  TYR256      0.2290
     51  O         27.5210  -52.3340   -1.2310 O.2   256  TYR256     -0.2864
     52  CB        25.4020  -49.9420   -2.4070 C.3   256  TYR256      0.0560
     53  CG        25.1710  -51.1410   -3.2970 C.ar  256  TYR256     -0.0198
     54  CD1       24.1050  -52.0120   -3.0700 C.ar  256  TYR256     -0.0009
     55  CD2       26.0390  -51.4240   -4.3410 C.ar  256  TYR256     -0.0009
     56  CE1       23.9010  -53.1280   -3.8650 C.ar  256  TYR256      0.0417
     57  CE2       25.8510  -52.5320   -5.1420 C.ar  256  TYR256      0.0417
     58  CZ        24.7640  -53.3790   -4.9090 C.ar  256  TYR256      0.1957
     59  OH        24.5750  -54.4870   -5.7100 O.3   256  TYR256     -0.2866
     60  N         24.4410  -56.2730  -10.3140 N.3   283  CYS283     -0.1221
     61  CA        23.8960  -55.1750   -9.5310 C.3   283  CYS283      0.1808
     62  C         22.9540  -54.3370  -10.3850 C.2   283  CYS283      0.2601
     63  O         23.4260  -53.5140  -11.1760 O.2   283  CYS283     -0.2717
     64  CB        25.0170  -54.2500   -9.0470 C.3   283  CYS283      0.0970
     65  SG        26.4060  -55.0240   -8.2020 S.3   283  CYS283     -0.0800
     66  N         21.6460  -54.5230  -10.2160 N.am  284  ALA284     -0.1965
     67  CA        20.6590  -53.7520  -10.9550 C.3   284  ALA284      0.1728
     68  C         20.8560  -52.2970  -10.6170 C.2   284  ALA284      0.2617
     69  O         20.9690  -51.9380   -9.4520 O.2   284  ALA284     -0.2715
     70  CB        19.2390  -54.1950  -10.5910 C.3   284  ALA284      0.0334
     71  N         20.8950  -51.4650  -11.6480 N.am  285  THR285     -0.1937
     72  CA        21.2050  -50.0570  -11.4910 C.3   285  THR285      0.2028
     73  C         20.0970  -49.2080  -12.1060 C.2   285  THR285      0.2642
     74  O         19.6580  -49.4600  -13.2300 O.2   285  THR285     -0.2714
     75  CB        22.5730  -49.7080  -12.1530 C.3   285  THR285      0.1808
     76  OG1       23.6120  -50.4720  -11.5310 O.3   285  THR285     -0.2208
     77  CG2       22.8870  -48.2460  -11.9820 C.3   285  THR285      0.0379
     78  N         19.6520  -48.2000  -11.3670 N.am  286  ASP286     -0.1971
     79  CA        18.6300  -47.3080  -11.8770 C.3   286  ASP286      0.1709
     80  C         19.2280  -46.2280  -12.7780 C.2   286  ASP286      0.2293
     81  O         19.9400  -45.3200  -12.3160 O.2   286  ASP286     -0.2864
     82  CB        17.8560  -46.6610  -10.7370 C.3   286  ASP286      0.1436
     83  CG        16.7510  -45.7420  -11.2380 C.2   286  ASP286      0.3671
     84  OD1       16.2220  -46.0010  -12.3470 O.co2 286  ASP286     -0.2456
     85  OD2       16.4230  -44.7610  -10.5250 O.co2 286  ASP286     -0.2456
     86  N         21.1320  -41.6190  -14.2630 N.3   290  ARG290     -0.1245
     87  CA        22.3920  -41.8610  -14.9590 C.3   290  ARG290      0.1563
     88  C         22.3070  -41.1890  -16.3370 C.2   290  ARG290      0.2260
     89  O         23.2350  -40.5000  -16.7660 O.2   290  ARG290     -0.2867
     90  CB        22.6660  -43.3620  -15.1360 C.3   290  ARG290      0.0307
     91  CG        22.7440  -44.2010  -13.8620 C.3   290  ARG290      0.0489
     92  CD        23.5990  -43.5480  -12.8010 C.3   290  ARG290      0.2205
     93  NE        24.4590  -44.4920  -12.0800 N.pl3 290  ARG290     -0.0865
     94  CZ        24.0580  -45.2660  -11.0740 C.cat 290  ARG290      0.5346
     95  NH1       22.7840  -45.2390  -10.6770 N.pl3 290  ARG290      0.1354
     96  NH2       24.9280  -46.0760  -10.4680 N.pl3 290  ARG290      0.1354
     97  N         16.4000  -50.2030  -15.8910 N.3   304  ILE304     -0.1245
     98  CA        17.4000  -50.9490  -15.1640 C.3   304  ILE304      0.1561
     99  C         18.5350  -51.3360  -16.0760 C.2   304  ILE304      0.2260
    100  O         18.3550  -52.0930  -17.0380 O.2   304  ILE304     -0.2867
    101  CB        16.8320  -52.2140  -14.5330 C.3   304  ILE304      0.0252
    102  CG1       15.8410  -51.8540  -13.4130 C.3   304  ILE304      0.0019
    103  CG2       17.9640  -53.1210  -14.0550 C.3   304  ILE304      0.0019
    104  CD1       16.3200  -50.7260  -12.4770 C.3   304  ILE304      0.0001
    105  N         32.6950  -50.6580   -6.6590 N.3   328  GLN328     -0.1245
    106  CA        32.5630  -49.2210   -6.8790 C.3   328  GLN328      0.1566
    107  C         33.0300  -48.7630   -8.2720 C.2   328  GLN328      0.2260
    108  O         32.4530  -47.8540   -8.8500 O.2   328  GLN328     -0.2867
    109  CB        33.2670  -48.4320   -5.7790 C.3   328  GLN328      0.0367
    110  CG        32.9140  -46.9600   -5.7950 C.3   328  GLN328      0.0905
    111  CD        31.4600  -46.7100   -5.4690 C.2   328  GLN328      0.2608
    112  OE1       31.0300  -46.9080   -4.3360 O.2   328  GLN328     -0.2717
    113  NE2       30.6880  -46.2740   -6.4620 N.am  328  GLN328     -0.0878
    114  N         30.2440  -49.7340  -10.7110 N.3   331  LEU331     -0.1245
    115  CA        29.1640  -48.7480  -10.5830 C.3   331  LEU331      0.1561
    116  C         29.4690  -47.3770  -11.1970 C.2   331  LEU331      0.2260
    117  O         28.6060  -46.7690  -11.8410 O.2   331  LEU331     -0.2867
    118  CB        28.7840  -48.5500   -9.1040 C.3   331  LEU331      0.0270
    119  CG        28.3130  -49.7770   -8.3160 C.3   331  LEU331      0.0019
    120  CD1       28.2270  -49.4600   -6.8090 C.3   331  LEU331      0.0001
    121  CD2       26.9620  -50.2930   -8.8580 C.3   331  LEU331      0.0001
    122  N         20.3490  -57.0010   -5.3030 N.3   370  THR370     -0.1203
    123  CA        19.4640  -55.9440   -5.7720 C.3   370  THR370      0.1994
    124  C         19.1100  -55.0960   -4.5820 C.2   370  THR370      0.2619
    125  O         18.7110  -55.6090   -3.5350 O.2   370  THR370     -0.2717
    126  CB        18.2300  -56.5330   -6.4340 C.3   370  THR370      0.1784
    127  OG1       18.6460  -57.2450   -7.6070 O.3   370  THR370     -0.2211
    128  CG2       17.2320  -55.4700   -6.8100 C.3   370  THR370      0.0376
    129  N         19.3000  -53.7970   -4.7210 N.am  371  SER371     -0.1937
    130  CA        19.0530  -52.9080   -3.6100 C.3   371  SER371      0.2055
    131  C         17.6980  -52.2500   -3.7410 C.2   371  SER371      0.2643
    132  O         17.4010  -51.6440   -4.7650 O.2   371  SER371     -0.2714
    133  CB        20.1310  -51.8350   -3.5100 C.3   371  SER371      0.2130
    134  OG        19.8600  -51.0010   -2.3990 O.3   371  SER371     -0.2179
    135  N         16.8860  -52.3690   -2.6950 N.am  372  TRP372     -0.1959
    136  CA        15.6200  -51.6480   -2.6290 C.3   372  TRP372      0.1771
    137  C         15.7540  -50.4790   -1.6720 C.2   372  TRP372      0.2620
    138  O         14.7880  -49.7570   -1.4130 O.2   372  TRP372     -0.2715
    139  CB        14.4810  -52.5800   -2.1950 C.3   372  TRP372      0.0590
    140  CG        14.1020  -53.5860   -3.2410 C.ar  372  TRP372      0.0006
    141  CD1       14.6990  -53.7770   -4.4490 C.ar  372  TRP372      0.0946
    142  CD2       13.0290  -54.5360   -3.1700 C.ar  372  TRP372      0.0152
    143  NE1       14.0700  -54.7990   -5.1410 N.ar  372  TRP372     -0.2442
    144  CE2       13.0420  -55.2780   -4.3740 C.ar  372  TRP372      0.0810
    145  CE3       12.0510  -54.8240   -2.2100 C.ar  372  TRP372      0.0012
    146  CZ2       12.1110  -56.2820   -4.6440 C.ar  372  TRP372      0.0191
    147  CZ3       11.1400  -55.8290   -2.4750 C.ar  372  TRP372      0.0001
    148  CH2       11.1760  -56.5470   -3.6830 C.ar  372  TRP372      0.0015
    149  N         16.9670  -50.2960   -1.1570 N.am  373  VAL373     -0.1963
    150  CA        17.2420  -49.2640   -0.1600 C.3   373  VAL373      0.1727
    151  C         16.6840  -47.8890   -0.5330 C.2   373  VAL373      0.2616
    152  O         16.2570  -47.1280    0.3370 O.2   373  VAL373     -0.2715
    153  CB        18.7640  -49.1430    0.1250 C.3   373  VAL373      0.0290
    154  CG1       19.0760  -47.8370    0.8930 C.3   373  VAL373      0.0023
    155  CG2       19.2530  -50.3700    0.8780 C.3   373  VAL373      0.0023
    156  N         16.6790  -47.5750   -1.8230 N.am  374  ARG374     -0.1963
    157  CA        16.1940  -46.2780   -2.2730 C.3   374  ARG374      0.1729
    158  C         14.7170  -46.2760   -2.6830 C.2   374  ARG374      0.2616
    159  O         14.1390  -45.2250   -2.9230 O.2   374  ARG374     -0.2715
    160  CB        17.0650  -45.7670   -3.4220 C.3   374  ARG374      0.0348
    161  CG        18.3410  -45.1170   -2.9470 C.3   374  ARG374      0.0492
    162  CD        18.0150  -44.0220   -1.9500 C.3   374  ARG374      0.2205
    163  NE        17.1490  -42.9870   -2.5240 N.pl3 374  ARG374     -0.0865
    164  CZ        16.0930  -42.4550   -1.9060 C.cat 374  ARG374      0.5346
    165  NH1       15.7580  -42.8560   -0.6840 N.pl3 374  ARG374      0.1354
    166  NH2       15.3700  -41.5170   -2.5100 N.pl3 374  ARG374      0.1354
    167  N         14.1220  -47.4580   -2.7730 N.am  375  LEU375     -0.1977
    168  CA        12.7330  -47.5810   -3.1920 C.3   375  LEU375      0.1596
    169  C         11.7710  -47.2990   -2.0400 C.2   375  LEU375      0.2287
    170  O         12.0320  -47.6850   -0.8920 O.2   375  LEU375     -0.2864
    171  CB        12.4730  -48.9660   -3.7760 C.3   375  LEU375      0.0297
    172  CG        13.2860  -49.3270   -5.0170 C.3   375  LEU375      0.0022
    173  CD1       13.0050  -50.7480   -5.4050 C.3   375  LEU375      0.0001
    174  CD2       13.0050  -48.3880   -6.1710 C.3   375  LEU375      0.0001
@<TRIPOS>BOND
     1   100    99    2
     2    89    88    2
     3    88    87    1
     4    99    98    1
     5    97    98    1
     6    98   101    1
     7    90    87    1
     8    90    91    1
     9    87    86    1
    10   101   103    1
    11   101   102    1
    12    91    92    1
    13     8     6   ar
    14   102   104    1
    15     1     2    1
    16    74    73    2
    17    92    93    1
    18     6     5    1
    19     6     7   ar
    20    80    81    2
    21    80    79    1
    22     5     2    1
    23    84    83   ar
    24     2     3    1
    25    75    77    1
    26    75    76    1
    27    75    72    1
    28    73    72    1
    29    73    78   am
    30    93    94    2
    31    79    78    1
    32    79    82    1
    33   117   116    2
    34    71    72    1
    35    71    68   am
    36    83    82    1
    37    83    85   ar
    38   116   115    1
    39    63    62    2
    40    94    95    1
    41    94    96    1
    42    67    68    1
    43    67    70    1
    44    67    66    1
    45     3     4    2
    46     3     9   am
    47   114   115    1
    48    68    69    2
    49   115   118    1
    50    62    66   am
    51    62    61    1
    52    60    61    1
    53    19    21   ar
    54    19    18   ar
    55    17    18    1
    56    17    14    1
    57     9    10    1
    58    21    23   ar
    59    15    14    1
    60    15    16    2
    61    61    64    1
    62    18    20   ar
    63    13    14    1
    64    13    11   am
    65   118   119    1
    66    64    65    1
    67   121   119    1
    68   108   107    2
    69    23    22   ar
    70    20    22   ar
    71    10    11    1
    72    11    12    2
    73   119   120    1
    74   107   106    1
    75   127   126    1
    76   106   105    1
    77   106   109    1
    78   128   126    1
    79   113   111   am
    80   126   123    1
    81   174   172    1
    82   110   109    1
    83   110   111    1
    84   123   122    1
    85   123   124    1
    86    59    58    1
    87   111   112    2
    88   173   172    1
    89    57    58   ar
    90    57    55   ar
    91   143   141   ar
    92   143   144   ar
    93   172   171    1
    94    58    56   ar
    95   132   131    2
    96   129   124   am
    97   129   130    1
    98   146   144   ar
    99   146   148   ar
   100   124   125    2
   101   141   140   ar
   102   144   142   ar
   103    55    53   ar
   104    56    54   ar
   105   171   168    1
   106   131   130    1
   107   131   135   am
   108   148   147   ar
   109   130   133    1
   110   133   134    1
   111   160   161    1
   112   160   157    1
   113    53    54   ar
   114    53    52    1
   115   140   142   ar
   116   140   139    1
   117   168   167    1
   118   168   169    1
   119   142   145   ar
   120    40    39    1
   121   161   162    1
   122   159   158    2
   123   167   158   am
   124   135   136    1
   125   158   157    1
   126   136   139    1
   127   136   137    1
   128   163   162    1
   129   163   164    2
   130   166   164    1
   131   147   145   ar
   132    39    36    1
   133    52    49    1
   134   157   156    1
   135   169   170    2
   136   164   165    1
   137   156   151   am
   138    35    36    1
   139   137   138    2
   140   137   149   am
   141    50    51    2
   142    50    49    1
   143    36    37    1
   144   149   150    1
   145    49    48    1
   146   151   150    1
   147   151   152    2
   148    48    43   am
   149    37    38    2
   150    37    41   am
   151   150   153    1
   152   153   155    1
   153   153   154    1
   154    41    42    1
   155    43    44    2
   156    43    42    1
   157    42    45    1
   158    45    46    1
   159    45    47    1
   160    33    32    1
   161    34    32    1
   162    32    31    2
   163    31    30    1
   164    30    29    1
   165    27    26    2
   166    29    28    1
   167    25    28    1
   168    25    26    1
   169    25    24    1
