@<TRIPOS>MOLECULE
tmp/4kecA01.pdb
 226 213 0 0 0
SMALL
GASTEIGER

@<TRIPOS>ATOM
      1  N         15.3960  -58.1080  -18.0390 N.3    31  VAL31      -0.1231
      2  CA        15.0190  -58.4250  -16.6640 C.3    31  VAL31       0.1678
      3  C         14.3570  -59.8150  -16.5930 C.2    31  VAL31       0.2434
      4  O         13.8700  -60.3160  -17.5960 O.2    31  VAL31      -0.2733
      5  CB        14.0550  -57.3650  -16.0970 C.3    31  VAL31       0.0265
      6  CG1       14.8050  -56.0800  -15.7950 C.3    31  VAL31       0.0020
      7  CG2       12.8920  -57.1190  -17.0680 C.3    31  VAL31       0.0020
      8  N         14.3480  -60.4400  -15.4060 N.am   32  PRO32      -0.2729
      9  CA        13.8760  -61.8310  -15.3030 C.3    32  PRO32       0.1401
     10  C         12.4160  -62.0120  -15.7510 C.2    32  PRO32       0.2269
     11  O         11.6010  -61.0800  -15.7100 O.2    32  PRO32      -0.2865
     12  CB        14.0540  -62.1540  -13.8170 C.3    32  PRO32       0.0296
     13  CG        15.0940  -61.1580  -13.3320 C.3    32  PRO32       0.0237
     14  CD        14.7840  -59.9110  -14.1010 C.3    32  PRO32       0.0939
     15  N          7.5810  -60.1400  -10.3470 N.3    36  THR36      -0.1204
     16  CA         8.2670  -59.6880   -9.1520 C.3    36  THR36       0.1979
     17  C          7.3600  -59.9280   -7.9510 C.2    36  THR36       0.2460
     18  O          6.3320  -59.2560   -7.8010 O.2    36  THR36      -0.2732
     19  CB         8.5790  -58.1750   -9.2130 C.3    36  THR36       0.1783
     20  OG1        9.3580  -57.8880  -10.3750 O.3    36  THR36      -0.2211
     21  CG2        9.3330  -57.7300   -7.9790 C.3    36  THR36       0.0376
     22  N          7.7540  -60.8720   -7.0850 N.am   37  PRO37      -0.2717
     23  CA         7.0810  -61.1440   -5.8160 C.3    37  PRO37       0.1535
     24  C          7.4710  -60.1270   -4.7500 C.2    37  PRO37       0.2599
     25  O          8.6310  -59.9860   -4.3640 O.2    37  PRO37      -0.2715
     26  CB         7.5900  -62.5370   -5.4490 C.3    37  PRO37       0.0310
     27  CG         8.9780  -62.5670   -6.0080 C.3    37  PRO37       0.0237
     28  CD         8.9480  -61.7160   -7.2660 C.3    37  PRO37       0.0939
     29  N          6.4620  -59.4190   -4.2800 N.am   38  SER38      -0.1950
     30  CA         6.5770  -58.4120   -3.2460 C.3    38  SER38       0.1924
     31  C          5.4930  -58.7440   -2.2000 C.2    38  SER38       0.2314
     32  O          4.4600  -59.3250   -2.5380 O.2    38  SER38      -0.2863
     33  CB         6.3280  -57.0490   -3.8920 C.3    38  SER38       0.2116
     34  OG         6.2150  -56.0180   -2.9410 O.3    38  SER38      -0.2180
     35  N          3.5880  -57.0500    1.4980 N.3    40  TYR40      -0.1241
     36  CA         3.4880  -56.0910    2.6010 C.3    40  TYR40       0.1605
     37  C          2.8140  -56.7100    3.8310 C.2    40  TYR40       0.2264
     38  O          2.0230  -57.6480    3.7210 O.2    40  TYR40      -0.2867
     39  CB         2.6940  -54.8530    2.2040 C.3    40  TYR40       0.0534
     40  CG         3.2130  -54.0480    1.0370 C.ar   40  TYR40      -0.0201
     41  CD1        3.1400  -54.5400   -0.2580 C.ar   40  TYR40      -0.0009
     42  CD2        3.7280  -52.7630    1.2280 C.ar   40  TYR40      -0.0009
     43  CE1        3.5910  -53.7920   -1.3290 C.ar   40  TYR40       0.0417
     44  CE2        4.1780  -51.9910    0.1480 C.ar   40  TYR40       0.0417
     45  CZ         4.1060  -52.5190   -1.1290 C.ar   40  TYR40       0.1957
     46  OH         4.5450  -51.7810   -2.2120 O.3    40  TYR40      -0.2866
     47  N          1.9130  -59.0320   -3.7400 N.3   158  VAL158     -0.1245
     48  CA         1.9340  -58.4480   -5.0770 C.3   158  VAL158      0.1561
     49  C          2.7940  -59.2520   -6.0420 C.2   158  VAL158      0.2260
     50  O          3.9180  -59.6450   -5.7100 O.2   158  VAL158     -0.2867
     51  CB         2.4960  -57.0290   -5.0460 C.3   158  VAL158      0.0252
     52  CG1        2.4580  -56.4160   -6.4280 C.3   158  VAL158      0.0019
     53  CG2        1.7430  -56.1810   -4.0310 C.3   158  VAL158      0.0019
     54  N          3.9770  -58.6010   -9.8000 N.3   160  MET160     -0.1245
     55  CA         4.0200  -57.7130  -10.9660 C.3   160  MET160      0.1570
     56  C          5.0090  -58.1880  -12.0170 C.2   160  MET160      0.2261
     57  O          6.1650  -58.4650  -11.7060 O.2   160  MET160     -0.2867
     58  CB         4.3530  -56.2970  -10.5310 C.3   160  MET160      0.0387
     59  CG         4.2740  -55.2940  -11.6420 C.3   160  MET160      0.0595
     60  SD         4.4540  -53.6510  -10.9590 S.3   160  MET160     -0.1393
     61  CE         3.4540  -53.7580   -9.4780 C.3   160  MET160      0.0692
     62  N          7.7400  -58.4640  -14.8320 N.3   162  HIS162     -0.1241
     63  CA         8.9520  -57.6430  -14.9960 C.3   162  HIS162      0.1621
     64  C          8.9320  -56.6650  -16.1690 C.2   162  HIS162      0.2264
     65  O          9.2950  -55.5100  -15.9920 O.2   162  HIS162     -0.2867
     66  CB        10.2220  -58.5090  -15.0190 C.3   162  HIS162      0.0745
     67  CG        10.7850  -58.7840  -13.6570 C.ar  162  HIS162      0.0817
     68  ND1       10.7550  -60.0370  -13.0730 N.ar  162  HIS162     -0.2268
     69  CD2       11.3750  -57.9610  -12.7550 C.ar  162  HIS162      0.1154
     70  CE1       11.3130  -59.9750  -11.8740 C.ar  162  HIS162      0.1986
     71  NE2       11.6950  -58.7270  -11.6560 N.ar  162  HIS162     -0.2212
     72  N          7.3150  -52.9450  -15.3630 N.3   165  ALA165     -0.1231
     73  CA         7.8530  -51.8920  -14.5170 C.3   165  ALA165      0.1694
     74  C          8.9950  -52.4340  -13.6830 C.2   165  ALA165      0.2592
     75  O          9.0730  -53.6300  -13.4480 O.2   165  ALA165     -0.2718
     76  CB         6.7620  -51.3310  -13.6070 C.3   165  ALA165      0.0304
     77  N          9.8780  -51.5430  -13.2420 N.am  166  ASP166     -0.1960
     78  CA        10.9000  -51.9040  -12.2680 C.3   166  ASP166      0.1840
     79  C         10.4340  -51.4390  -10.8980 C.2   166  ASP166      0.2622
     80  O          9.3390  -50.8990  -10.7650 O.2   166  ASP166     -0.2715
     81  CB        12.2640  -51.3000  -12.6330 C.3   166  ASP166      0.1450
     82  CG        12.2260  -49.7860  -12.7920 C.2   166  ASP166      0.3671
     83  OD1       11.3230  -49.1260  -12.2400 O.co2 166  ASP166     -0.2456
     84  OD2       13.1280  -49.2450  -13.4660 O.co2 166  ASP166     -0.2456
     85  N         11.2590  -51.6510   -9.8830 N.am  167  GLY167     -0.1954
     86  CA        10.9280  -51.2380   -8.5400 C.3   167  GLY167      0.1869
     87  C         10.4030  -49.8230   -8.4530 C.2   167  GLY167      0.2309
     88  O          9.4820  -49.5370   -7.6950 O.2   167  GLY167     -0.2863
     89  N          6.9700  -49.7370  -10.5850 N.3   170  GLY170     -0.1210
     90  CA         6.0700  -50.6860   -9.9660 C.3   170  GLY170      0.1956
     91  C          5.5620  -50.1280   -8.6540 C.2   170  GLY170      0.2611
     92  O          4.4010  -50.2980   -8.3020 O.2   170  GLY170     -0.2717
     93  N          6.4330  -49.4500   -7.9250 N.am  171  LEU171     -0.1979
     94  CA         6.0490  -48.9470   -6.6240 C.3   171  LEU171      0.1596
     95  C          5.2890  -47.6750   -6.8310 C.2   171  LEU171      0.2287
     96  O          4.5110  -47.2630   -5.9760 O.2   171  LEU171     -0.2864
     97  CB         7.2670  -48.7170   -5.7290 C.3   171  LEU171      0.0297
     98  CG         7.9230  -50.0040   -5.2220 C.3   171  LEU171      0.0022
     99  CD1        9.2330  -49.6960   -4.4800 C.3   171  LEU171      0.0001
    100  CD2        6.9840  -50.7940   -4.3440 C.3   171  LEU171      0.0001
    101  N          1.6650  -49.1720   -7.2400 N.3   174  ILE174     -0.1245
    102  CA         1.1740  -49.6070   -5.9400 C.3   174  ILE174      0.1561
    103  C          0.9500  -48.4430   -4.9850 C.2   174  ILE174      0.2260
    104  O         -0.0880  -48.3610   -4.3400 O.2   174  ILE174     -0.2867
    105  CB         2.1250  -50.6080   -5.3020 C.3   174  ILE174      0.0252
    106  CG1        2.2410  -51.8460   -6.1920 C.3   174  ILE174      0.0019
    107  CG2        1.6750  -50.9560   -3.8910 C.3   174  ILE174      0.0019
    108  CD1        1.0030  -52.6970   -6.2400 C.3   174  ILE174      0.0001
    109  N         26.0670  -59.3370  -10.0590 N.3   282  TYR282     -0.1241
    110  CA        25.1130  -58.5300  -10.8170 C.3   282  TYR282      0.1605
    111  C         24.4190  -57.5330   -9.9080 C.2   282  TYR282      0.2264
    112  O         23.8890  -57.9000   -8.8640 O.2   282  TYR282     -0.2867
    113  CB        24.0810  -59.4120  -11.5270 C.3   282  TYR282      0.0534
    114  CG        24.6500  -60.2480  -12.6580 C.ar  282  TYR282     -0.0201
    115  CD1       25.3950  -61.3960  -12.3960 C.ar  282  TYR282     -0.0009
    116  CD2       24.4370  -59.8930  -13.9840 C.ar  282  TYR282     -0.0009
    117  CE1       25.9160  -62.1660  -13.4250 C.ar  282  TYR282      0.0417
    118  CE2       24.9780  -60.6460  -15.0220 C.ar  282  TYR282      0.0417
    119  CZ        25.7060  -61.7820  -14.7330 C.ar  282  TYR282      0.1957
    120  OH        26.2130  -62.5400  -15.7540 O.3   282  TYR282     -0.2866
    121  N         21.6460  -54.5230  -10.2160 N.3   284  ALA284     -0.1245
    122  CA        20.6590  -53.7520  -10.9550 C.3   284  ALA284      0.1562
    123  C         20.8560  -52.2970  -10.6170 C.2   284  ALA284      0.2260
    124  O         20.9690  -51.9380   -9.4520 O.2   284  ALA284     -0.2867
    125  CB        19.2390  -54.1950  -10.5910 C.3   284  ALA284      0.0290
    126  N         10.8640  -50.3010  -17.0750 N.3   302  ASN302     -0.1240
    127  CA        12.2080  -50.5410  -16.5390 C.3   302  ASN302      0.1653
    128  C         13.2710  -49.5760  -17.0410 C.2   302  ASN302      0.2266
    129  O         13.4550  -49.4260  -18.2420 O.2   302  ASN302     -0.2867
    130  CB        12.6810  -51.9550  -16.8550 C.3   302  ASN302      0.1155
    131  CG        11.8420  -53.0070  -16.1850 C.2   302  ASN302      0.2627
    132  OD1       10.9080  -53.5360  -16.7850 O.2   302  ASN302     -0.2716
    133  ND2       12.1740  -53.3320  -14.9400 N.am  302  ASN302     -0.0877
    134  N         16.4000  -50.2030  -15.8910 N.3   304  ILE304     -0.1245
    135  CA        17.4000  -50.9490  -15.1640 C.3   304  ILE304      0.1561
    136  C         18.5350  -51.3360  -16.0760 C.2   304  ILE304      0.2260
    137  O         18.3550  -52.0930  -17.0380 O.2   304  ILE304     -0.2867
    138  CB        16.8320  -52.2140  -14.5330 C.3   304  ILE304      0.0252
    139  CG1       15.8410  -51.8540  -13.4130 C.3   304  ILE304      0.0019
    140  CG2       17.9640  -53.1210  -14.0550 C.3   304  ILE304      0.0019
    141  CD1       16.3200  -50.7260  -12.4770 C.3   304  ILE304      0.0001
    142  N         22.7010  -52.7640  -15.8220 N.3   306  THR306     -0.1218
    143  CA        23.3160  -53.7590  -14.9660 C.3   306  THR306      0.1862
    144  C         24.8230  -53.5750  -14.8230 C.2   306  THR306      0.2287
    145  O         25.5610  -53.6380  -15.8020 O.2   306  THR306     -0.2866
    146  CB        23.0380  -55.1600  -15.5210 C.3   306  THR306      0.1770
    147  OG1       21.6310  -55.2850  -15.7720 O.3   306  THR306     -0.2211
    148  CG2       23.5160  -56.2360  -14.5460 C.3   306  THR306      0.0375
    149  N         17.8650  -62.5100  -17.7270 N.3   357  ARG357     -0.1245
    150  CA        18.5850  -62.9690  -16.5440 C.3   357  ARG357      0.1563
    151  C         17.7780  -64.0130  -15.7690 C.2   357  ARG357      0.2260
    152  O         16.6090  -63.8090  -15.4780 O.2   357  ARG357     -0.2867
    153  CB        18.9880  -61.7850  -15.6540 C.3   357  ARG357      0.0307
    154  CG        20.0970  -60.9540  -16.2450 C.3   357  ARG357      0.0489
    155  CD        20.5180  -59.8290  -15.3220 C.3   357  ARG357      0.2205
    156  NE        19.5680  -58.7220  -15.2710 N.pl3 357  ARG357     -0.0865
    157  CZ        19.3260  -57.8810  -16.2720 C.cat 357  ARG357      0.5346
    158  NH1       19.9620  -58.0310  -17.4250 N.pl3 357  ARG357      0.1354
    159  NH2       18.4420  -56.8950  -16.1190 N.pl3 357  ARG357      0.1354
    160  N         22.6010  -66.0910  -11.8730 N.3   362  PHE362     -0.1241
    161  CA        22.9240  -65.7890  -10.4850 C.3   362  PHE362      0.1605
    162  C         23.5150  -66.9390   -9.6900 C.2   362  PHE362      0.2264
    163  O         24.0250  -66.7290   -8.5870 O.2   362  PHE362     -0.2867
    164  CB        21.6870  -65.2720   -9.7570 C.3   362  PHE362      0.0534
    165  CG        21.0400  -64.1130  -10.4290 C.ar  362  PHE362     -0.0203
    166  CD1       21.6810  -62.8900  -10.4850 C.ar  362  PHE362     -0.0042
    167  CD2       19.7820  -64.2380  -10.9970 C.ar  362  PHE362     -0.0042
    168  CE1       21.0780  -61.8100  -11.1100 C.ar  362  PHE362     -0.0003
    169  CE2       19.1780  -63.1720  -11.6210 C.ar  362  PHE362     -0.0003
    170  CZ        19.8190  -61.9550  -11.6760 C.ar  362  PHE362     -0.0000
    171  N         20.3490  -57.0010   -5.3030 N.3   370  THR370     -0.1218
    172  CA        19.4640  -55.9440   -5.7720 C.3   370  THR370      0.1862
    173  C         19.1100  -55.0960   -4.5820 C.2   370  THR370      0.2287
    174  O         18.7110  -55.6090   -3.5350 O.2   370  THR370     -0.2866
    175  CB        18.2300  -56.5330   -6.4340 C.3   370  THR370      0.1770
    176  OG1       18.6460  -57.2450   -7.6070 O.3   370  THR370     -0.2211
    177  CG2       17.2320  -55.4700   -6.8100 C.3   370  THR370      0.0375
    178  N         16.8860  -52.3690   -2.6950 N.3   372  TRP372     -0.1241
    179  CA        15.6200  -51.6480   -2.6290 C.3   372  TRP372      0.1605
    180  C         15.7540  -50.4790   -1.6720 C.2   372  TRP372      0.2264
    181  O         14.7880  -49.7570   -1.4130 O.2   372  TRP372     -0.2867
    182  CB        14.4810  -52.5800   -2.1950 C.3   372  TRP372      0.0550
    183  CG        14.1020  -53.5860   -3.2410 C.ar  372  TRP372      0.0003
    184  CD1       14.6990  -53.7770   -4.4490 C.ar  372  TRP372      0.0946
    185  CD2       13.0290  -54.5360   -3.1700 C.ar  372  TRP372      0.0152
    186  NE1       14.0700  -54.7990   -5.1410 N.ar  372  TRP372     -0.2442
    187  CE2       13.0420  -55.2780   -4.3740 C.ar  372  TRP372      0.0810
    188  CE3       12.0510  -54.8240   -2.2100 C.ar  372  TRP372      0.0012
    189  CZ2       12.1110  -56.2820   -4.6440 C.ar  372  TRP372      0.0191
    190  CZ3       11.1400  -55.8290   -2.4750 C.ar  372  TRP372      0.0001
    191  CH2       11.1760  -56.5470   -3.6830 C.ar  372  TRP372      0.0015
    192  N         14.1220  -47.4580   -2.7730 N.3   375  LEU375     -0.1245
    193  CA        12.7330  -47.5810   -3.1920 C.3   375  LEU375      0.1561
    194  C         11.7710  -47.2990   -2.0400 C.2   375  LEU375      0.2260
    195  O         12.0320  -47.6850   -0.8920 O.2   375  LEU375     -0.2867
    196  CB        12.4730  -48.9660   -3.7760 C.3   375  LEU375      0.0270
    197  CG        13.2860  -49.3270   -5.0170 C.3   375  LEU375      0.0019
    198  CD1       13.0050  -50.7480   -5.4050 C.3   375  LEU375      0.0001
    199  CD2       13.0050  -48.3880   -6.1710 C.3   375  LEU375      0.0001
    200  N          7.9800  -54.7790    4.1950 N.3   390  MET390     -0.1245
    201  CA         7.7780  -55.2350    2.8300 C.3   390  MET390      0.1570
    202  C          9.1120  -55.7470    2.2910 C.2   390  MET390      0.2261
    203  O         10.1780  -55.2040    2.6050 O.2   390  MET390     -0.2867
    204  CB         7.1210  -54.1520    1.9520 C.3   390  MET390      0.0387
    205  CG         7.9910  -53.5100    0.8920 C.3   390  MET390      0.0595
    206  SD         8.4200  -54.5800   -0.4960 S.3   390  MET390     -0.1393
    207  CE         7.8460  -53.6040   -1.8880 C.3   390  MET390      0.0692
    208  N         20.6720  -65.1510   -5.6450 N.3   400  LEU400     -0.1245
    209  CA        20.0810  -63.8210   -5.7400 C.3   400  LEU400      0.1561
    210  C         19.8070  -63.2730   -4.3350 C.2   400  LEU400      0.2260
    211  O         19.4140  -64.0070   -3.4370 O.2   400  LEU400     -0.2867
    212  CB        18.8120  -63.8570   -6.5940 C.3   400  LEU400      0.0270
    213  CG        17.9470  -62.6070   -6.8080 C.3   400  LEU400      0.0019
    214  CD1       18.7290  -61.5090   -7.5450 C.3   400  LEU400      0.0001
    215  CD2       16.6890  -62.9870   -7.6000 C.3   400  LEU400      0.0001
    216  N         18.7440  -59.4570   -1.9290 N.3   402  PHE402     -0.1241
    217  CA        18.1710  -58.1320   -1.9870 C.3   402  PHE402      0.1605
    218  C         18.6540  -57.3450   -0.7810 C.2   402  PHE402      0.2264
    219  O         18.8060  -57.9050    0.2950 O.2   402  PHE402     -0.2867
    220  CB        16.6350  -58.2000   -1.9230 C.3   402  PHE402      0.0534
    221  CG        15.9850  -58.8420   -3.1240 C.ar  402  PHE402     -0.0203
    222  CD1       15.9710  -60.2240   -3.2730 C.ar  402  PHE402     -0.0042
    223  CD2       15.3500  -58.0650   -4.0830 C.ar  402  PHE402     -0.0042
    224  CE1       15.3610  -60.8150   -4.3790 C.ar  402  PHE402     -0.0003
    225  CE2       14.7380  -58.6460   -5.1880 C.ar  402  PHE402     -0.0003
    226  CZ        14.7430  -60.0300   -5.3370 C.ar  402  PHE402     -0.0000
@<TRIPOS>BOND
     1   129   128    2
     2     1     2    1
     3   149   150    1
     4     4     3    2
     5   158   157    1
     6   126   127    1
     7     7     5    1
     8   128   127    1
     9   137   136    2
    10   130   127    1
    11   130   131    1
    12   132   131    2
    13     2     3    1
    14     2     5    1
    15     3     8   am
    16   150   151    1
    17   150   153    1
    18   157   159    1
    19   157   156    2
    20   154   153    1
    21   154   155    1
    22   131   133   am
    23    64    65    2
    24    64    63    1
    25     5     6    1
    26   136   135    1
    27   134   135    1
    28   142   143    1
    29   145   144    2
    30   147   146    1
    31   151   152    2
    32   120   119    1
    33    10    11    2
    34    10     9    1
    35   146   143    1
    36   146   148    1
    37     8     9    1
    38     8    14    1
    39    72    73    1
    40   155   156    1
    41     9    12    1
    42   135   138    1
    43   118   119   ar
    44   118   116   ar
    45    66    63    1
    46    66    67    1
    47    63    62    1
    48   143   144    1
    49   119   117   ar
    50   138   140    1
    51   138   139    1
    52    73    74    1
    53    73    76    1
    54    14    13    1
    55   116   114   ar
    56    12    13    1
    57    74    75    2
    58    74    77   am
    59    67    68   ar
    60    67    69   ar
    61    84    82   ar
    62   117   115   ar
    63   139   141    1
    64    77    78    1
    65    68    70   ar
    66    82    81    1
    67    82    83   ar
    68    69    71   ar
    69   114   115   ar
    70   114   113    1
    71    81    78    1
    72    78    79    1
    73    56    57    2
    74    56    55    1
    75    70    71   ar
    76   160   161    1
    77   170   169   ar
    78   170   168   ar
    79    59    60    1
    80    59    58    1
    81   169   167   ar
    82   113   110    1
    83   168   166   ar
    84   167   165   ar
    85    55    58    1
    86    55    54    1
    87    60    61    1
    88   122   123    1
    89   122   125    1
    90   122   121    1
    91    79    80    2
    92    79    85   am
    93   110   109    1
    94   110   111    1
    95   123   124    2
    96    89    90    1
    97   161   164    1
    98   161   162    1
    99   166   165   ar
   100   165   164    1
   101    20    19    1
   102    15    16    1
   103    90    91    1
   104   111   112    2
   105    85    86    1
   106   162   163    2
   107    19    16    1
   108    19    21    1
   109    16    17    1
   110    91    92    2
   111    91    93   am
   112    86    87    1
   113    87    88    2
   114    17    18    2
   115    17    22   am
   116    93    94    1
   117   176   175    1
   118   215   213    1
   119   214   213    1
   120    28    22    1
   121    28    27    1
   122   101   102    1
   123    22    23    1
   124    95    94    1
   125    95    96    2
   126   177   175    1
   127   213   212    1
   128    94    97    1
   129   212   209    1
   130   175   172    1
   131    52    51    1
   132   108   106    1
   133   106   105    1
   134   199   197    1
   135    49    50    2
   136    49    48    1
   137    27    26    1
   138   102   105    1
   139   102   103    1
   140    23    26    1
   141    23    24    1
   142   172   171    1
   143   172   173    1
   144   209   208    1
   145   209   210    1
   146    97    98    1
   147   198   197    1
   148   226   225   ar
   149   226   224   ar
   150   105   107    1
   151    98    99    1
   152    98   100    1
   153   225   223   ar
   154   186   184   ar
   155   186   187   ar
   156    48    51    1
   157    48    47    1
   158    51    53    1
   159   197   196    1
   160   103   104    2
   161    24    25    2
   162    24    29   am
   163   189   187   ar
   164   189   191   ar
   165   173   174    2
   166   184   183   ar
   167   224   222   ar
   168   187   185   ar
   169   210   211    2
   170    29    30    1
   171   223   221   ar
   172    33    30    1
   173    33    34    1
   174   196   193    1
   175   191   190   ar
   176   222   221   ar
   177    30    31    1
   178   183   185   ar
   179   183   182    1
   180   193   192    1
   181   193   194    1
   182   185   188   ar
   183   221   220    1
   184   178   179    1
   185   179   182    1
   186   179   180    1
   187    32    31    2
   188   190   188   ar
   189    46    45    1
   190   194   195    2
   191   217   216    1
   192   217   220    1
   193   217   218    1
   194   207   206    1
   195   180   181    2
   196    43    45   ar
   197    43    41   ar
   198    45    44   ar
   199   218   219    2
   200   206   205    1
   201    41    40   ar
   202    44    42   ar
   203   205   204    1
   204    40    42   ar
   205    40    39    1
   206    35    36    1
   207   204   201    1
   208    39    36    1
   209   202   203    2
   210   202   201    1
   211    36    37    1
   212   201   200    1
   213    38    37    2
