@<TRIPOS>MOLECULE
tmp/4kegA00.pdb
 87 80 0 0 0
SMALL
GASTEIGER

@<TRIPOS>ATOM
      1  N        -67.7510   45.4670  -19.2190 N.3    22  GLU22      -0.1231
      2  CA       -67.8310   46.8440  -19.7100 C.3    22  GLU22       0.1699
      3  C        -68.4200   46.8960  -21.1250 C.2    22  GLU22       0.2592
      4  O        -69.2560   47.7630  -21.4360 O.2    22  GLU22      -0.2718
      5  CB       -66.4750   47.5440  -19.6470 C.3    22  GLU22       0.0402
      6  CG       -65.9870   47.8010  -18.2320 C.3    22  GLU22       0.1161
      7  CD       -67.0140   48.5630  -17.3710 C.2    22  GLU22       0.3649
      8  OE1      -67.3930   49.7030  -17.7520 O.co2  22  GLU22      -0.2457
      9  OE2      -67.4460   48.0230  -16.3120 O.co2  22  GLU22      -0.2457
     10  N        -67.9990   45.9530  -21.9650 N.am   23  VAL23      -0.1980
     11  CA       -68.5970   45.7850  -23.2810 C.3    23  VAL23       0.1595
     12  C        -70.1090   45.6280  -23.1400 C.2    23  VAL23       0.2287
     13  O        -70.8760   46.2820  -23.8490 O.2    23  VAL23      -0.2864
     14  CB       -67.9560   44.6000  -24.0450 C.3    23  VAL23       0.0276
     15  CG1      -68.6130   44.4080  -25.4140 C.3    23  VAL23       0.0022
     16  CG2      -66.4560   44.8550  -24.2120 C.3    23  VAL23       0.0022
     17  N        -71.9550   49.0290  -22.2850 N.3    26  LYS26      -0.1245
     18  CA       -72.1340   49.8000  -23.5100 C.3    26  LYS26       0.1561
     19  C        -73.3220   49.2600  -24.3130 C.2    26  LYS26       0.2260
     20  O        -74.1170   50.0270  -24.8710 O.2    26  LYS26      -0.2867
     21  CB       -70.8580   49.7680  -24.3430 C.3    26  LYS26       0.0271
     22  CG       -70.5810   51.0630  -25.1000 C.3    26  LYS26       0.0035
     23  CD       -71.7430   51.4650  -26.0110 C.3    26  LYS26       0.0206
     24  CE       -71.5210   52.8530  -26.6220 C.3    26  LYS26       0.1093
     25  NZ       -72.6160   53.2330  -27.5740 N.3    26  LYS26      -0.1314
     26  N        -76.9310   51.2120  -25.2750 N.3    30  ASP30      -0.1239
     27  CA       -77.4410   51.3830  -26.6360 C.3    30  ASP30       0.1674
     28  C        -78.7650   50.6830  -26.8550 C.2    30  ASP30       0.2266
     29  O        -79.6830   51.2470  -27.4400 O.2    30  ASP30      -0.2867
     30  CB       -76.4500   50.8390  -27.6650 C.3    30  ASP30       0.1410
     31  CG       -75.1540   51.6120  -27.6930 C.2    30  ASP30       0.3668
     32  OD1      -75.0360   52.6030  -26.9370 O.co2  30  ASP30      -0.2456
     33  OD2      -74.2550   51.2390  -28.4790 O.co2  30  ASP30      -0.2456
     34  N        -75.6170   40.2630  -32.4680 N.3   278  GLU278     -0.1245
     35  CA       -75.4040   41.7110  -32.4670 C.3   278  GLU278      0.1567
     36  C        -74.3050   42.1280  -31.4930 C.2   278  GLU278      0.2260
     37  O        -73.4240   42.9400  -31.8250 O.2   278  GLU278     -0.2867
     38  CB       -76.7110   42.4280  -32.1200 C.3   278  GLU278      0.0388
     39  CG       -76.6030   43.9480  -32.0440 C.3   278  GLU278      0.1160
     40  CD       -76.1620   44.5850  -33.3740 C.2   278  GLU278      0.3649
     41  OE1      -76.3550   43.9330  -34.4370 O.co2 278  GLU278     -0.2457
     42  OE2      -75.6260   45.7340  -33.3560 O.co2 278  GLU278     -0.2457
     43  N        -70.9990   43.4630  -33.4780 N.3   282  ASN282     -0.1225
     44  CA       -70.8590   44.9260  -33.4660 C.3   282  ASN282      0.1785
     45  C        -70.3190   45.5610  -32.1840 C.2   282  ASN282      0.2597
     46  O        -69.9770   46.7410  -32.1570 O.2   282  ASN282     -0.2718
     47  CB       -72.1830   45.5600  -33.8920 C.3   282  ASN282      0.1169
     48  CG       -72.6900   44.9680  -35.1980 C.2   282  ASN282      0.2627
     49  OD1      -73.8300   44.5190  -35.2920 O.2   282  ASN282     -0.2716
     50  ND2      -71.8150   44.9260  -36.2050 N.am  282  ASN282     -0.0877
     51  N        -70.2260   44.7720  -31.1250 N.am  283  TYR283     -0.1976
     52  CA       -69.7720   45.3070  -29.8540 C.3   283  TYR283      0.1639
     53  C        -68.4410   44.7030  -29.4150 C.2   283  TYR283      0.2290
     54  O        -67.4240   45.4160  -29.3130 O.2   283  TYR283     -0.2864
     55  CB       -70.8750   45.1930  -28.7940 C.3   283  TYR283      0.0560
     56  CG       -71.9660   46.2310  -28.9990 C.ar  283  TYR283     -0.0198
     57  CD1      -72.9700   46.0460  -29.9470 C.ar  283  TYR283     -0.0009
     58  CD2      -71.9690   47.4200  -28.2680 C.ar  283  TYR283     -0.0009
     59  CE1      -73.9600   47.0100  -30.1480 C.ar  283  TYR283      0.0417
     60  CE2      -72.9530   48.3820  -28.4590 C.ar  283  TYR283      0.0417
     61  CZ       -73.9410   48.1720  -29.3990 C.ar  283  TYR283      0.1957
     62  OH       -74.9190   49.1260  -29.5890 O.3   283  TYR283     -0.2866
     63  N        -64.3980   44.4420  -32.1270 N.3   286  THR286     -0.1218
     64  CA       -64.1680   45.8020  -32.5750 C.3   286  THR286      0.1862
     65  C        -62.8760   46.1600  -31.8810 C.2   286  THR286      0.2287
     66  O        -62.5390   45.5420  -30.8800 O.2   286  THR286     -0.2866
     67  CB       -65.2670   46.7880  -32.0740 C.3   286  THR286      0.1770
     68  OG1      -65.3500   46.7550  -30.6360 O.3   286  THR286     -0.2211
     69  CG2      -66.6500   46.4900  -32.6920 C.3   286  THR286      0.0375
     70  N        -62.4790   48.5480  -29.9970 N.3   288  GLU288     -0.1231
     71  CA       -62.8190   49.0330  -28.6770 C.3   288  GLU288      0.1699
     72  C        -63.2030   47.8820  -27.7410 C.2   288  GLU288      0.2592
     73  O        -62.7640   47.8380  -26.5880 O.2   288  GLU288     -0.2718
     74  CB       -63.9330   50.0810  -28.7590 C.3   288  GLU288      0.0402
     75  CG       -63.6820   51.1400  -29.8190 C.3   288  GLU288      0.1161
     76  CD       -64.3760   50.8230  -31.1450 C.2   288  GLU288      0.3649
     77  OE1      -63.7150   50.2670  -32.0700 O.co2 288  GLU288     -0.2457
     78  OE2      -65.5920   51.1370  -31.2510 O.co2 288  GLU288     -0.2457
     79  N        -64.0100   46.9540  -28.2440 N.am  289  GLY289     -0.1957
     80  CA       -64.4770   45.8360  -27.4440 C.3   289  GLY289      0.1869
     81  C        -63.3300   44.9530  -26.9920 C.2   289  GLY289      0.2309
     82  O        -63.2370   44.5860  -25.8150 O.2   289  GLY289     -0.2863
     83  N        -61.0760   46.7160  -24.3140 N.3   292  ALA292     -0.1245
     84  CA       -61.6490   46.6420  -22.9830 C.3   292  ALA292      0.1562
     85  C        -61.2860   45.3160  -22.3230 C.2   292  ALA292      0.2260
     86  O        -60.7340   45.2900  -21.2130 O.2   292  ALA292     -0.2867
     87  CB       -63.1460   46.7880  -23.0630 C.3   292  ALA292      0.0290
@<TRIPOS>BOND
     1    50    48   am
     2    49    48    2
     3    48    47    1
     4    41    40   ar
     5    47    44    1
     6    43    44    1
     7    44    45    1
     8    40    42   ar
     9    40    39    1
    10    69    67    1
    11    64    63    1
    12    64    67    1
    13    64    65    1
    14    34    35    1
    15    35    38    1
    16    35    36    1
    17    45    46    2
    18    45    51   am
    19    38    39    1
    20    67    68    1
    21    77    76   ar
    22    65    66    2
    23    37    36    2
    24    78    76   ar
    25    76    75    1
    26    51    52    1
    27    59    57   ar
    28    59    61   ar
    29    70    71    1
    30    57    56   ar
    31    52    53    1
    32    52    55    1
    33    75    74    1
    34    62    61    1
    35    53    54    2
    36    61    60   ar
    37    56    55    1
    38    56    58   ar
    39    74    71    1
    40    71    72    1
    41    33    31   ar
    42    60    58   ar
    43    79    72   am
    44    79    80    1
    45    72    73    2
    46    31    30    1
    47    31    32   ar
    48    30    27    1
    49    25    24    1
    50    80    81    1
    51    29    28    2
    52    81    82    2
    53    28    27    1
    54    27    26    1
    55    24    23    1
    56    23    22    1
    57    15    14    1
    58    22    21    1
    59    20    19    2
    60    21    18    1
    61    83    84    1
    62    19    18    1
    63    16    14    1
    64    14    11    1
    65    13    12    2
    66    18    17    1
    67    11    12    1
    68    11    10    1
    69    87    84    1
    70    84    85    1
    71    85    86    2
    72    10     3   am
    73     4     3    2
    74     3     2    1
    75     2     5    1
    76     2     1    1
    77     5     6    1
    78     6     7    1
    79     8     7   ar
    80     7     9   ar
