@<TRIPOS>MOLECULE
tmp/4kehB00.pdb
 167 164 0 0 0
SMALL
GASTEIGER

@<TRIPOS>ATOM
      1  N        -28.3190  -46.9480  -13.5150 N.3    24  PRO24      -0.2102
      2  CA       -27.6020  -45.9320  -12.7420 C.3    24  PRO24       0.1504
      3  C        -28.1770  -45.7450  -11.3410 C.2    24  PRO24       0.2576
      4  O        -29.3440  -46.0670  -11.1220 O.2    24  PRO24      -0.2718
      5  CB       -27.8290  -44.6720  -13.5540 C.3    24  PRO24       0.0282
      6  CG       -29.0880  -44.9260  -14.3100 C.3    24  PRO24       0.0208
      7  CD       -29.0720  -46.3720  -14.6370 C.3    24  PRO24       0.0893
      8  N        -27.3710  -45.2180  -10.4300 N.am   25  GLN25      -0.1966
      9  CA       -27.7960  -44.8990   -9.0830 C.3    25  GLN25       0.1733
     10  C        -27.9840  -43.4130   -8.9350 C.2    25  GLN25       0.2616
     11  O        -27.2020  -42.6540   -9.4690 O.2    25  GLN25      -0.2715
     12  CB       -26.7410  -45.2830   -8.0760 C.3    25  GLN25       0.0408
     13  CG       -26.3190  -46.7080   -8.0220 C.3    25  GLN25       0.0908
     14  CD       -24.9610  -46.7990   -7.3570 C.2    25  GLN25       0.2608
     15  OE1      -23.9220  -46.8090   -8.0340 O.2    25  GLN25      -0.2717
     16  NE2      -24.9480  -46.7450   -6.0470 N.am   25  GLN25      -0.0878
     17  N        -28.9810  -42.9770   -8.1560 N.am   26  LEU26      -0.1964
     18  CA       -28.9820  -41.5910   -7.6930 C.3    26  LEU26       0.1713
     19  C        -27.8850  -41.4360   -6.6210 C.2    26  LEU26       0.2458
     20  O        -27.5120  -42.3960   -5.9830 O.2    26  LEU26      -0.2730
     21  CB       -30.3430  -41.2210   -7.0670 C.3    26  LEU26       0.0310
     22  CG       -31.4400  -40.8930   -8.0680 C.3    26  LEU26       0.0022
     23  CD1      -32.7990  -40.8150   -7.3760 C.3    26  LEU26       0.0001
     24  CD2      -31.1400  -39.5980   -8.8050 C.3    26  LEU26       0.0001
     25  N        -27.4570  -40.2070   -6.3540 N.am   27  PRO27      -0.2727
     26  CA       -26.6830  -39.9290   -5.1310 C.3    27  PRO27       0.1402
     27  C        -27.5000  -40.2410   -3.8890 C.2    27  PRO27       0.2269
     28  O        -28.7470  -40.1190   -3.9420 O.2    27  PRO27      -0.2865
     29  CB       -26.4320  -38.4200   -5.2130 C.3    27  PRO27       0.0296
     30  CG       -26.6520  -38.0470   -6.6610 C.3    27  PRO27       0.0237
     31  CD       -27.7150  -38.9930   -7.1440 C.3    27  PRO27       0.0939
     32  N        -26.2690  -35.6400   -0.7860 N.3    31  MET31      -0.1245
     33  CA       -26.2570  -35.0740   -2.1550 C.3    31  MET31       0.1570
     34  C        -27.5920  -35.2790   -2.9450 C.2    31  MET31       0.2261
     35  O        -27.8150  -34.6150   -3.9290 O.2    31  MET31      -0.2867
     36  CB       -25.0980  -35.6290   -2.9800 C.3    31  MET31       0.0387
     37  CG       -23.7290  -34.9080   -2.7490 C.3    31  MET31       0.0595
     38  SD       -23.8290  -33.1430   -3.0460 S.3    31  MET31      -0.1393
     39  CE       -24.3210  -33.0760   -4.7750 C.3    31  MET31       0.0692
     40  N        -27.7740  -29.5380   -9.5090 N.3    82  ASP82      -0.1239
     41  CA       -27.5330  -30.9640   -9.3940 C.3    82  ASP82       0.1674
     42  C        -28.8180  -31.7960   -9.3810 C.2    82  ASP82       0.2266
     43  O        -28.8210  -32.8760   -9.9720 O.2    82  ASP82      -0.2867
     44  CB       -26.6500  -31.3840   -8.2320 C.3    82  ASP82       0.1410
     45  CG       -25.8370  -32.6510   -8.5840 C.2    82  ASP82       0.3668
     46  OD1      -25.1180  -32.5930   -9.6100 O.co2  82  ASP82      -0.2456
     47  OD2      -25.9460  -33.7010   -7.9060 O.co2  82  ASP82      -0.2456
     48  N        -29.6120  -32.3840  -12.9840 N.3    85  TRP85      -0.1227
     49  CA       -28.7440  -33.4270  -13.5510 C.3    85  TRP85       0.1737
     50  C        -29.1260  -34.8050  -13.0180 C.2    85  TRP85       0.2595
     51  O        -29.1960  -35.7830  -13.7850 O.2    85  TRP85      -0.2718
     52  CB       -27.2540  -33.1530  -13.2910 C.3    85  TRP85       0.0564
     53  CG       -26.6570  -32.1350  -14.1710 C.ar   85  TRP85       0.0003
     54  CD1      -26.8350  -31.9930  -15.5250 C.ar   85  TRP85       0.0946
     55  CD2      -25.7340  -31.1160  -13.7820 C.ar   85  TRP85       0.0152
     56  NE1      -26.0960  -30.9390  -15.9870 N.ar   85  TRP85      -0.2442
     57  CE2      -25.4110  -30.3800  -14.9370 C.ar   85  TRP85       0.0810
     58  CE3      -25.1410  -30.7590  -12.5620 C.ar   85  TRP85       0.0012
     59  CZ2      -24.5070  -29.3150  -14.9200 C.ar   85  TRP85       0.0191
     60  CZ3      -24.2460  -29.6840  -12.5480 C.ar   85  TRP85       0.0001
     61  CH2      -23.9520  -28.9730  -13.7090 C.ar   85  TRP85       0.0015
     62  N        -29.4410  -34.8840  -11.7230 N.am   86  GLN86      -0.1979
     63  CA       -29.8730  -36.1460  -11.1280 C.3    86  GLN86       0.1601
     64  C        -31.1480  -36.6870  -11.8490 C.2    86  GLN86       0.2287
     65  O        -31.2840  -37.8850  -12.0960 O.2    86  GLN86      -0.2864
     66  CB       -30.1470  -35.9590   -9.6150 C.3    86  GLN86       0.0394
     67  CG       -28.8780  -35.7840   -8.7950 C.3    86  GLN86       0.0908
     68  CD       -29.1470  -35.3460   -7.3570 C.2    86  GLN86       0.2608
     69  OE1      -30.2020  -35.6440   -6.8080 O.2    86  GLN86      -0.2717
     70  NE2      -28.2110  -34.6060   -6.7710 N.am   86  GLN86      -0.0878
     71  N        -30.4830  -37.9260  -15.4110 N.3    89  GLY89      -0.1210
     72  CA       -29.9130  -39.2360  -15.2910 C.3    89  GLY89       0.1956
     73  C        -30.8780  -40.3020  -14.8210 C.2    89  GLY89       0.2611
     74  O        -30.8260  -41.4430  -15.2970 O.2    89  GLY89      -0.2717
     75  N        -31.7480  -39.9580  -13.8720 N.am   90  PHE90      -0.1976
     76  CA       -32.7400  -40.9070  -13.3610 C.3    90  PHE90       0.1639
     77  C        -33.6670  -41.3670  -14.4990 C.2    90  PHE90       0.2290
     78  O        -33.9910  -42.5560  -14.6230 O.2    90  PHE90      -0.2864
     79  CB       -33.5490  -40.2260  -12.2420 C.3    90  PHE90       0.0560
     80  CG       -34.4870  -41.1400  -11.4970 C.ar   90  PHE90      -0.0200
     81  CD1      -34.0160  -42.1240  -10.6480 C.ar   90  PHE90      -0.0042
     82  CD2      -35.8570  -40.9920  -11.6390 C.ar   90  PHE90      -0.0042
     83  CE1      -34.8710  -42.9170   -9.9430 C.ar   90  PHE90      -0.0003
     84  CE2      -36.7190  -41.7920  -10.9320 C.ar   90  PHE90      -0.0003
     85  CZ       -36.2450  -42.7540  -10.1060 C.ar   90  PHE90      -0.0000
     86  N        -24.1690  -42.9960  -13.9210 N.3   101  GLY101     -0.1210
     87  CA       -24.5590  -41.6650  -14.3130 C.3   101  GLY101      0.1956
     88  C        -23.3720  -40.7420  -14.1420 C.2   101  GLY101      0.2612
     89  O        -22.6650  -40.7030  -13.1250 O.2   101  GLY101     -0.2717
     90  N        -23.3650  -39.7980  -15.0510 N.am  102  ARG102     -0.1965
     91  CA       -22.4100  -38.7260  -14.9780 C.3   102  ARG102      0.1729
     92  C        -22.9830  -37.4500  -15.5980 C.2   102  ARG102      0.2616
     93  O        -23.4050  -37.4840  -16.7740 O.2   102  ARG102     -0.2715
     94  CB       -21.1220  -39.1360  -15.7210 C.3   102  ARG102      0.0348
     95  CG       -20.1660  -40.0860  -15.0920 C.3   102  ARG102      0.0492
     96  CD       -19.6630  -39.6520  -13.7550 C.3   102  ARG102      0.2205
     97  NE       -18.6600  -40.5980  -13.2320 N.pl3 102  ARG102     -0.0865
     98  CZ       -18.9390  -41.6490  -12.4710 C.cat 102  ARG102      0.5346
     99  NH1      -20.1920  -41.9140  -12.1160 N.pl3 102  ARG102      0.1354
    100  NH2      -17.9670  -42.4430  -12.0430 N.pl3 102  ARG102      0.1354
    101  N        -22.9910  -36.3160  -14.8710 N.am  103  ALA103     -0.1963
    102  CA       -23.2540  -35.0200  -15.5290 C.3   103  ALA103      0.1728
    103  C        -22.1590  -34.6720  -16.5470 C.2   103  ALA103      0.2616
    104  O        -20.9730  -34.9010  -16.2670 O.2   103  ALA103     -0.2715
    105  CB       -23.3780  -33.9100  -14.4970 C.3   103  ALA103      0.0334
    106  N        -22.5320  -34.0500  -17.6720 N.am  104  LEU104     -0.1977
    107  CA       -21.5960  -33.7530  -18.7530 C.3   104  LEU104      0.1596
    108  C        -21.5180  -32.2610  -18.9790 C.2   104  LEU104      0.2287
    109  O        -20.5340  -31.7600  -19.5020 O.2   104  LEU104     -0.2864
    110  CB       -22.0160  -34.4590  -20.0510 C.3   104  LEU104      0.0297
    111  CG       -22.1130  -35.9830  -19.9470 C.3   104  LEU104      0.0022
    112  CD1      -22.6410  -36.6110  -21.2330 C.3   104  LEU104      0.0001
    113  CD2      -20.7880  -36.5870  -19.5470 C.3   104  LEU104      0.0001
    114  N        -22.5070  -45.8810  -27.2250 N.3   135  ARG135     -0.1231
    115  CA       -21.7200  -46.4990  -26.1630 C.3   135  ARG135      0.1694
    116  C        -21.8650  -45.6800  -24.8660 C.2   135  ARG135      0.2591
    117  O        -21.8320  -46.2160  -23.7540 O.2   135  ARG135     -0.2718
    118  CB       -20.2470  -46.5960  -26.5770 C.3   135  ARG135      0.0321
    119  CG       -19.3370  -47.1580  -25.4930 C.3   135  ARG135      0.0489
    120  CD       -17.9340  -47.4780  -26.0250 C.3   135  ARG135      0.2205
    121  NE       -16.8670  -47.0960  -25.0930 N.pl3 135  ARG135     -0.0865
    122  CZ       -15.9960  -46.1030  -25.2940 C.cat 135  ARG135      0.5346
    123  NH1      -16.0460  -45.3760  -26.4120 N.pl3 135  ARG135      0.1354
    124  NH2      -15.0580  -45.8350  -24.3730 N.pl3 135  ARG135      0.1354
    125  N        -21.9660  -44.3680  -25.0480 N.am  136  LEU136     -0.1980
    126  CA       -22.4520  -43.4600  -24.0390 C.3   136  LEU136      0.1596
    127  C        -23.9250  -43.2620  -24.3630 C.2   136  LEU136      0.2287
    128  O        -24.2730  -43.0140  -25.5240 O.2   136  LEU136     -0.2864
    129  CB       -21.7260  -42.1290  -24.1490 C.3   136  LEU136      0.0297
    130  CG       -22.0200  -41.0960  -23.0540 C.3   136  LEU136      0.0022
    131  CD1      -21.5410  -41.5810  -21.6740 C.3   136  LEU136      0.0001
    132  CD2      -21.3740  -39.7490  -23.3900 C.3   136  LEU136      0.0001
    133  N        -26.5000  -35.1840  -19.5400 N.3   160  VAL160     -0.1245
    134  CA       -26.1130  -36.2390  -18.6160 C.3   160  VAL160      0.1561
    135  C        -25.9270  -37.5190  -19.4080 C.2   160  VAL160      0.2260
    136  O        -26.6510  -37.7620  -20.3870 O.2   160  VAL160     -0.2867
    137  CB       -27.2020  -36.4520  -17.4880 C.3   160  VAL160      0.0252
    138  CG1      -26.8070  -37.5520  -16.5220 C.3   160  VAL160      0.0019
    139  CG2      -27.4060  -35.1850  -16.7140 C.3   160  VAL160      0.0019
    140  N        -24.9870  -41.9590  -19.3080 N.3   162  LEU162     -0.1231
    141  CA       -24.7310  -43.2090  -18.6350 C.3   162  LEU162      0.1693
    142  C        -23.5740  -43.9040  -19.3290 C.2   162  LEU162      0.2592
    143  O        -23.6440  -44.1420  -20.5180 O.2   162  LEU162     -0.2718
    144  CB       -25.9370  -44.1310  -18.6720 C.3   162  LEU162      0.0284
    145  CG       -27.2610  -43.5430  -18.1600 C.3   162  LEU162      0.0019
    146  CD1      -28.2290  -44.6770  -18.1130 C.3   162  LEU162      0.0001
    147  CD2      -27.1010  -42.8620  -16.7920 C.3   162  LEU162      0.0001
    148  N        -22.5330  -44.2330  -18.5790 N.am  163  PHE163     -0.1962
    149  CA       -21.3430  -44.8440  -19.1670 C.3   163  PHE163      0.1771
    150  C        -20.9830  -46.1710  -18.4990 C.2   163  PHE163      0.2619
    151  O        -21.3470  -46.4180  -17.3340 O.2   163  PHE163     -0.2715
    152  CB       -20.1940  -43.8380  -19.1270 C.3   163  PHE163      0.0574
    153  CG       -19.3010  -43.9490  -17.9130 C.ar  163  PHE163     -0.0200
    154  CD1      -19.6620  -43.3680  -16.7040 C.ar  163  PHE163     -0.0042
    155  CD2      -18.0650  -44.5990  -18.0030 C.ar  163  PHE163     -0.0042
    156  CE1      -18.8110  -43.4620  -15.5880 C.ar  163  PHE163     -0.0003
    157  CE2      -17.2120  -44.6940  -16.9010 C.ar  163  PHE163     -0.0003
    158  CZ       -17.5770  -44.1270  -15.6980 C.ar  163  PHE163     -0.0000
    159  N        -20.2830  -47.0260  -19.2530 N.am  164  GLN164     -0.1977
    160  CA       -19.7850  -48.3160  -18.7630 C.3   164  GLN164      0.1601
    161  C        -18.2760  -48.2630  -18.5150 C.2   164  GLN164      0.2287
    162  O        -17.5500  -47.6000  -19.2630 O.2   164  GLN164     -0.2864
    163  CB       -20.0040  -49.4130  -19.8080 C.3   164  GLN164      0.0394
    164  CG       -21.3240  -49.3760  -20.5490 C.3   164  GLN164      0.0908
    165  CD       -22.4220  -50.1420  -19.8300 C.2   164  GLN164      0.2608
    166  OE1      -22.3540  -50.3620  -18.6210 O.2   164  GLN164     -0.2717
    167  NE2      -23.4360  -50.5670  -20.5790 N.am  164  GLN164     -0.0878
@<TRIPOS>BOND
     1   114   115    1
     2   118   115    1
     3   118   119    1
     4   123   122    1
     5   115   116    1
     6   120   119    1
     7   120   121    1
     8   128   127    2
     9   122   121    2
    10   122   124    1
    11   125   116   am
    12   125   126    1
    13   116   117    2
    14   127   126    1
    15   129   126    1
    16   129   130    1
    17   132   130    1
    18   130   131    1
    19   112   111    1
    20   167   165   am
    21   164   165    1
    22   164   163    1
    23   143   142    2
    24   136   135    2
    25   110   111    1
    26   110   107    1
    27   111   113    1
    28   165   166    2
    29   163   160    1
    30   133   134    1
    31   109   108    2
    32   135   134    1
    33   142   141    1
    34   142   148   am
    35   140   141    1
    36   162   161    2
    37   159   160    1
    38   159   150   am
    39   149   152    1
    40   149   148    1
    41   149   150    1
    42   152   153    1
    43   108   107    1
    44   160   161    1
    45   107   106    1
    46   144   141    1
    47   144   145    1
    48   134   137    1
    49   150   151    2
    50   145   146    1
    51   145   147    1
    52   155   153   ar
    53   155   157   ar
    54   153   154   ar
    55   106   103   am
    56   137   139    1
    57   137   138    1
    58   157   158   ar
    59    93    92    2
    60   154   156   ar
    61   103   104    2
    62   103   102    1
    63    56    54   ar
    64    56    57   ar
    65    94    95    1
    66    94    91    1
    67   158   156   ar
    68    92    91    1
    69    92   101   am
    70   102   101    1
    71   102   105    1
    72    54    53   ar
    73    71    72    1
    74    74    73    2
    75    72    73    1
    76    95    96    1
    77    90    91    1
    78    90    88   am
    79    57    59   ar
    80    57    55   ar
    81    59    61   ar
    82    73    75   am
    83     7     6    1
    84     7     1    1
    85    78    77    2
    86    77    76    1
    87    87    88    1
    88    87    86    1
    89     6     5    1
    90    53    55   ar
    91    53    52    1
    92    88    89    2
    93    75    76    1
    94    51    50    2
    95    55    58   ar
    96    96    97    1
    97    61    60   ar
    98     5     2    1
    99    49    52    1
   100    49    50    1
   101    49    48    1
   102     1     2    1
   103    76    79    1
   104    97    98    2
   105    50    62   am
   106     2     3    1
   107    58    60   ar
   108    98    99    1
   109    98   100    1
   110    79    80    1
   111    65    64    2
   112    64    63    1
   113    62    63    1
   114    82    80   ar
   115    82    84   ar
   116    80    81   ar
   117     3     4    2
   118     3     8   am
   119    63    66    1
   120    84    85   ar
   121    81    83   ar
   122     8     9    1
   123    85    83   ar
   124    43    42    2
   125    66    67    1
   126    46    45   ar
   127    40    41    1
   128    11    10    2
   129    41    42    1
   130    41    44    1
   131     9    10    1
   132     9    12    1
   133    10    17   am
   134    24    22    1
   135    67    68    1
   136    45    44    1
   137    45    47   ar
   138    17    18    1
   139    12    13    1
   140    22    23    1
   141    22    21    1
   142    15    14    2
   143    13    14    1
   144    18    21    1
   145    18    19    1
   146    14    16   am
   147    68    69    2
   148    68    70   am
   149    31    30    1
   150    31    25    1
   151    30    29    1
   152    19    25   am
   153    19    20    2
   154    25    26    1
   155    29    26    1
   156    26    27    1
   157    39    38    1
   158    28    27    2
   159    35    34    2
   160    38    37    1
   161    36    37    1
   162    36    33    1
   163    34    33    1
   164    33    32    1
