@<TRIPOS>MOLECULE
tmp/4kehB01.pdb
 96 97 0 0 0
SMALL
GASTEIGER

@<TRIPOS>ATOM
      1  N        -24.4590  -22.1940    4.3840 N.3    68  HIS68      -0.1226
      2  CA       -24.4640  -21.3170    3.2180 C.3    68  HIS68       0.1752
      3  C        -25.6590  -20.3740    3.1790 C.2    68  HIS68       0.2596
      4  O        -26.6770  -20.6860    2.5600 O.2    68  HIS68      -0.2718
      5  CB       -24.4110  -22.1440    1.9300 C.3    68  HIS68       0.0759
      6  CG       -24.2610  -21.3200    0.6890 C.ar   68  HIS68       0.0818
      7  ND1      -23.5100  -21.7310   -0.3910 N.ar   68  HIS68      -0.2268
      8  CD2      -24.7660  -20.1090    0.3570 C.ar   68  HIS68       0.1154
      9  CE1      -23.5580  -20.8090   -1.3350 C.ar   68  HIS68       0.1986
     10  NE2      -24.3140  -19.8140   -0.9070 N.ar   68  HIS68      -0.2212
     11  N        -25.5380  -19.2130    3.8180 N.am   69  PHE69      -0.1976
     12  CA       -24.3560  -18.8290    4.6170 C.3    69  PHE69       0.1639
     13  C        -24.7310  -18.6930    6.0990 C.2    69  PHE69       0.2290
     14  O        -25.8870  -18.4600    6.4520 O.2    69  PHE69      -0.2864
     15  CB       -23.8160  -17.4770    4.1600 C.3    69  PHE69       0.0560
     16  CG       -23.6100  -17.3650    2.6850 C.ar   69  PHE69      -0.0200
     17  CD1      -24.6660  -17.0000    1.8350 C.ar   69  PHE69      -0.0042
     18  CD2      -22.3780  -17.6310    2.1290 C.ar   69  PHE69      -0.0042
     19  CE1      -24.4830  -16.9040    0.4660 C.ar   69  PHE69      -0.0003
     20  CE2      -22.1850  -17.5330    0.7640 C.ar   69  PHE69      -0.0003
     21  CZ       -23.2220  -17.1640   -0.0680 C.ar   69  PHE69      -0.0000
     22  N        -29.5310  -19.6570    2.4880 N.3    74  VAL74      -0.1231
     23  CA       -30.1720  -19.7140    1.1790 C.3    74  VAL74       0.1692
     24  C        -29.7560  -21.0140    0.4840 C.2    74  VAL74       0.2592
     25  O        -28.6230  -21.4690    0.6360 O.2    74  VAL74      -0.2718
     26  CB       -29.8090  -18.4880    0.3280 C.3    74  VAL74       0.0266
     27  CG1      -28.2810  -18.3470    0.2070 C.3    74  VAL74       0.0020
     28  CG2      -30.4100  -18.6020   -1.0430 C.3    74  VAL74       0.0020
     29  N        -30.6620  -21.6410   -0.2530 N.am   75  MET75      -0.1966
     30  CA       -30.3080  -22.9010   -0.8850 C.3    75  MET75       0.1721
     31  C        -29.2670  -22.6280   -1.9770 C.2    75  MET75       0.2458
     32  O        -29.4730  -21.8020   -2.8370 O.2    75  MET75      -0.2730
     33  CB       -31.4850  -23.6210   -1.4710 C.3    75  MET75       0.0427
     34  CG       -31.1430  -25.0060   -1.9880 C.3    75  MET75       0.0599
     35  SD       -32.5750  -25.7800   -2.7760 S.3    75  MET75      -0.1393
     36  CE       -31.9590  -27.4290   -3.0800 C.3    75  MET75       0.0692
     37  N        -28.1370  -23.3340   -1.9260 N.am   76  PRO76      -0.2716
     38  CA       -27.1550  -23.1480   -3.0070 C.3    76  PRO76       0.1536
     39  C        -27.7410  -23.4510   -4.4050 C.2    76  PRO76       0.2599
     40  O        -28.3840  -24.4780   -4.5950 O.2    76  PRO76      -0.2715
     41  CB       -26.0310  -24.1200   -2.6330 C.3    76  PRO76       0.0310
     42  CG       -26.2450  -24.4330   -1.1890 C.3    76  PRO76       0.0237
     43  CD       -27.7310  -24.3700   -0.9730 C.3    76  PRO76       0.0939
     44  N        -27.5370  -22.5440   -5.3540 N.am   77  GLY77      -0.1941
     45  CA       -27.9540  -22.7500   -6.7390 C.3    77  GLY77       0.2014
     46  C        -27.3530  -24.0210   -7.3240 C.2    77  GLY77       0.2639
     47  O        -28.0180  -24.7570   -8.0440 O.2    77  GLY77      -0.2714
     48  N        -26.1080  -24.3150   -6.9670 N.am   78  CYS78      -0.1967
     49  CA       -25.4500  -25.5110   -7.4960 C.3    78  CYS78       0.1712
     50  C        -26.1990  -26.7950   -7.1360 C.2    78  CYS78       0.2296
     51  O        -26.2190  -27.7540   -7.9190 O.2    78  CYS78      -0.2864
     52  CB       -23.9960  -25.5940   -7.0500 C.3    78  CYS78       0.0983
     53  SG       -23.7970  -25.9810   -5.3150 S.3    78  CYS78      -0.0798
     54  N        -30.1580  -17.7830  -12.5450 N.3   111  PHE111     -0.1227
     55  CA       -30.7920  -17.7860  -11.2230 C.3   111  PHE111      0.1736
     56  C        -31.4240  -16.4170  -11.0200 C.2   111  PHE111      0.2596
     57  O        -30.7030  -15.4290  -10.9350 O.2   111  PHE111     -0.2718
     58  CB       -29.7510  -17.9940  -10.1340 C.3   111  PHE111      0.0547
     59  CG       -29.0370  -19.3130  -10.1890 C.ar  111  PHE111     -0.0202
     60  CD1      -29.6860  -20.4830  -10.4950 C.ar  111  PHE111     -0.0042
     61  CD2      -27.6950  -19.3720   -9.9180 C.ar  111  PHE111     -0.0042
     62  CE1      -28.9850  -21.7020  -10.5140 C.ar  111  PHE111     -0.0003
     63  CE2      -27.0050  -20.5700   -9.9490 C.ar  111  PHE111     -0.0003
     64  CZ       -27.6530  -21.7290  -10.2190 C.ar  111  PHE111     -0.0000
     65  N        -32.7500  -16.3270  -10.9810 N.am  112  THR112     -0.1939
     66  CA       -33.3910  -15.0200  -10.8360 C.3   112  THR112      0.2028
     67  C        -34.1380  -14.8340   -9.5110 C.2   112  THR112      0.2643
     68  O        -34.6060  -13.7400   -9.2260 O.2   112  THR112     -0.2714
     69  CB       -34.3870  -14.7560  -11.9700 C.3   112  THR112      0.1808
     70  OG1      -35.4310  -15.7250  -11.9000 O.3   112  THR112     -0.2208
     71  CG2      -33.6900  -14.8470  -13.3240 C.3   112  THR112      0.0379
     72  N        -34.2430  -15.8920   -8.7110 N.am  113  GLY113     -0.1939
     73  CA       -34.7920  -15.7860   -7.3730 C.3   113  GLY113      0.2014
     74  C        -34.1270  -16.7980   -6.4640 C.2   113  GLY113      0.2638
     75  O        -33.3230  -17.5940   -6.9260 O.2   113  GLY113     -0.2714
     76  N        -34.4840  -16.7940   -5.1900 N.am  114  GLN114     -0.1977
     77  CA       -33.8180  -17.6510   -4.2200 C.3   114  GLN114      0.1601
     78  C        -34.7870  -18.5290   -3.4580 C.2   114  GLN114      0.2287
     79  O        -35.9990  -18.2810   -3.4410 O.2   114  GLN114     -0.2864
     80  CB       -33.0050  -16.7840   -3.2720 C.3   114  GLN114      0.0394
     81  CG       -33.7830  -15.9140   -2.3590 C.3   114  GLN114      0.0908
     82  CD       -32.9160  -14.9150   -1.5980 C.2   114  GLN114      0.2608
     83  OE1      -31.6810  -15.0430   -1.5060 O.2   114  GLN114     -0.2717
     84  NE2      -33.5650  -13.9000   -1.0570 N.am  114  GLN114     -0.0878
     85  N        -35.2340  -20.5770  -11.3220 N.3   153  TYR153     -0.1241
     86  CA       -34.0600  -20.9540  -12.1270 C.3   153  TYR153      0.1605
     87  C        -34.4730  -21.5400  -13.4830 C.2   153  TYR153      0.2264
     88  O        -35.4560  -22.2750  -13.5720 O.2   153  TYR153     -0.2867
     89  CB       -33.1790  -22.0290  -11.4740 C.3   153  TYR153      0.0534
     90  CG       -32.7490  -21.9040  -10.0190 C.ar  153  TYR153     -0.0201
     91  CD1      -32.8240  -20.7210   -9.3170 C.ar  153  TYR153     -0.0009
     92  CD2      -32.2620  -23.0290   -9.3530 C.ar  153  TYR153     -0.0009
     93  CE1      -32.4290  -20.6560   -7.9660 C.ar  153  TYR153      0.0417
     94  CE2      -31.8710  -22.9740   -8.0350 C.ar  153  TYR153      0.0417
     95  CZ       -31.9600  -21.7870   -7.3450 C.ar  153  TYR153      0.1957
     96  OH       -31.5650  -21.7510   -6.0310 O.3   153  TYR153     -0.2866
@<TRIPOS>BOND
     1    88    87    2
     2    87    86    1
     3    71    69    1
     4    54    55    1
     5    86    89    1
     6    86    85    1
     7    69    70    1
     8    69    66    1
     9    89    90    1
    10    55    56    1
    11    55    58    1
    12    56    65   am
    13    56    57    2
    14    65    66    1
    15    66    67    1
    16    62    60   ar
    17    62    64   ar
    18    60    59   ar
    19    64    63   ar
    20    59    58    1
    21    59    61   ar
    22    90    92   ar
    23    90    91   ar
    24    63    61   ar
    25    67    68    2
    26    67    72   am
    27    92    94   ar
    28    91    93   ar
    29    72    73    1
    30    47    46    2
    31    94    95   ar
    32    93    95   ar
    33    51    50    2
    34    49    50    1
    35    49    52    1
    36    49    48    1
    37    73    74    1
    38    95    96    1
    39    46    48   am
    40    46    45    1
    41    52    53    1
    42    75    74    2
    43    45    44    1
    44    74    76   am
    45    44    39   am
    46    76    77    1
    47    40    39    2
    48    39    38    1
    49    77    78    1
    50    77    80    1
    51    78    79    2
    52    80    81    1
    53    36    35    1
    54    38    41    1
    55    38    37    1
    56    32    31    2
    57    35    34    1
    58    41    42    1
    59    81    82    1
    60    34    33    1
    61    31    37   am
    62    31    30    1
    63    37    43    1
    64    82    83    2
    65    82    84   am
    66    33    30    1
    67     9    10   ar
    68     9     7   ar
    69    42    43    1
    70    28    26    1
    71    10     8   ar
    72    30    29    1
    73     7     6   ar
    74    29    24   am
    75    21    19   ar
    76    21    20   ar
    77    27    26    1
    78    26    23    1
    79     8     6   ar
    80    19    17   ar
    81    24    25    2
    82    24    23    1
    83     6     5    1
    84    20    18   ar
    85    23    22    1
    86    17    16   ar
    87     5     2    1
    88    18    16   ar
    89     4     3    2
    90    16    15    1
    91     3     2    1
    92     3    11   am
    93     2     1    1
    94    11    12    1
    95    15    12    1
    96    12    13    1
    97    13    14    2
