@<TRIPOS>MOLECULE
tmp/4kenA00.pdb
 120 111 0 0 0
SMALL
GASTEIGER

@<TRIPOS>ATOM
      1  N         26.4190   -1.8600    9.0350 N.3    60  GLY60      -0.1210
      2  CA        26.2670   -0.4110    9.0370 C.3    60  GLY60       0.1956
      3  C         24.8670   -0.0280    8.5720 C.2    60  GLY60       0.2612
      4  O         23.8900   -0.6810    8.9850 O.2    60  GLY60      -0.2717
      5  N         24.8100    0.9610    7.6780 N.am   61  SER61      -0.1952
      6  CA        23.5440    1.5040    7.1700 C.3    61  SER61       0.1924
      7  C         22.6620    0.5040    6.4260 C.2    61  SER61       0.2314
      8  O         21.5230    0.7880    6.2530 O.2    61  SER61      -0.2863
      9  CB        23.7510    2.6950    6.3090 C.3    61  SER61       0.2116
     10  OG        24.1570    3.7230    7.1410 O.3    61  SER61      -0.2180
     11  N         19.4470   -0.4170    8.1710 N.3    64  LYS64      -0.1197
     12  CA        18.1980    0.3610    7.8920 C.3    64  LYS64       0.1778
     13  C         17.1530   -0.3670    7.0860 C.2    64  LYS64       0.2305
     14  O         15.9500   -0.0340    7.2300 O.2    64  LYS64      -0.2863
     15  CB        18.5040    1.6970    7.2470 C.2    64  LYS64      -0.0042
     16  CG        19.3630    2.6450    8.0750 C.2    64  LYS64      -0.0273
     17  CD        19.7580    3.9520    7.3750 C.3    64  LYS64       0.0462
     18  CE        20.6770    4.6270    8.3930 C.3    64  LYS64       0.1140
     19  NZ        21.5660    5.5990    7.7910 N.3    64  LYS64      -0.1310
     20  N         22.8740   13.5730    9.6600 N.3   116  LEU116     -0.1231
     21  CA        23.3900   12.2630    9.2550 C.3   116  LEU116      0.1693
     22  C         23.5190   11.3330   10.4610 C.2   116  LEU116      0.2591
     23  O         23.1290   10.1480   10.4080 O.2   116  LEU116     -0.2718
     24  CB        24.7320   12.4510    8.5200 C.3   116  LEU116      0.0284
     25  CG        25.3740   11.1520    8.0460 C.3   116  LEU116      0.0019
     26  CD1       24.5010   10.5360    6.9510 C.3   116  LEU116      0.0001
     27  CD2       26.7460   11.4770    7.4980 C.3   116  LEU116      0.0001
     28  N         24.1280   11.8350   11.5390 N.am  117  GLN117     -0.1979
     29  CA        24.3050   11.0320   12.7670 C.3   117  GLN117      0.1601
     30  C         23.7230   11.7630   13.9580 C.2   117  GLN117      0.2287
     31  O         23.6640   13.0000   13.9980 O.2   117  GLN117     -0.2864
     32  CB        25.8020   10.8850   13.1230 C.3   117  GLN117      0.0394
     33  CG        26.7000   10.2420   12.0800 C.3   117  GLN117      0.0908
     34  CD        26.6430    8.7300   12.1000 C.2   117  GLN117      0.2608
     35  OE1       26.0860    8.1190   13.0090 O.2   117  GLN117     -0.2717
     36  NE2       27.2550    8.1090   11.0940 N.am  117  GLN117     -0.0878
     37  N         19.5710   12.3330    3.7290 N.3   147  TYR147     -0.1241
     38  CA        19.8860   11.0280    4.2590 C.3   147  TYR147      0.1605
     39  C         20.4380   11.1460    5.6960 C.2   147  TYR147      0.2264
     40  O         21.3590   11.9390    5.9510 O.2   147  TYR147     -0.2867
     41  CB        20.8970   10.3620    3.3510 C.3   147  TYR147      0.0534
     42  CG        21.2370    8.9850    3.7960 C.ar  147  TYR147     -0.0201
     43  CD1       20.4960    7.8920    3.3550 C.ar  147  TYR147     -0.0009
     44  CD2       22.2640    8.7740    4.7360 C.ar  147  TYR147     -0.0009
     45  CE1       20.7800    6.6180    3.8100 C.ar  147  TYR147      0.0417
     46  CE2       22.5670    7.5250    5.1940 C.ar  147  TYR147      0.0417
     47  CZ        21.7940    6.4490    4.7800 C.ar  147  TYR147      0.1957
     48  OH        22.0600    5.2180    5.2110 O.3   147  TYR147     -0.2866
     49  N         20.7570    9.0150    9.6270 N.3   149  GLY149     -0.1225
     50  CA        20.6060    7.9350   10.5440 C.3   149  GLY149      0.1811
     51  C         19.7580    8.4640   11.7550 C.2   149  GLY149      0.2280
     52  O         19.0470    7.6920   12.3900 O.2   149  GLY149     -0.2866
     53  N         32.4370   -1.5290   15.6690 N.3   208  VAL208     -0.1245
     54  CA        31.6100   -0.3730   15.8450 C.3   208  VAL208      0.1561
     55  C         31.4100   -0.0740   17.3460 C.2   208  VAL208      0.2260
     56  O         31.2920   -0.9760   18.1460 O.2   208  VAL208     -0.2867
     57  CB        30.2280   -0.5310   15.1310 C.3   208  VAL208      0.0252
     58  CG1       29.4600   -1.6950   15.7030 C.3   208  VAL208      0.0019
     59  CG2       29.4270    0.7450   15.2490 C.3   208  VAL208      0.0019
     60  N         19.6280    2.2970   13.5790 N.3   217  ALA217     -0.1231
     61  CA        20.2320    2.8290   12.3680 C.3   217  ALA217      0.1694
     62  C         21.3610    1.9810   11.8370 C.2   217  ALA217      0.2592
     63  O         21.5390    1.8640   10.6110 O.2   217  ALA217     -0.2718
     64  CB        20.6810    4.2450   12.6420 C.3   217  ALA217      0.0304
     65  N         22.1290    1.3650   12.7260 N.am  218  TYR218     -0.1976
     66  CA        23.3410    0.5910   12.2870 C.3   218  TYR218      0.1639
     67  C         23.6370   -0.6160   13.1880 C.2   218  TYR218      0.2290
     68  O         24.7760   -1.0170   13.3830 O.2   218  TYR218     -0.2864
     69  CB        24.5550    1.5140   12.1040 C.3   218  TYR218      0.0560
     70  CG        24.8980    2.3280   13.2980 C.ar  218  TYR218     -0.0198
     71  CD1       24.2710    3.5780   13.5160 C.ar  218  TYR218     -0.0009
     72  CD2       25.8370    1.9100   14.2140 C.ar  218  TYR218     -0.0009
     73  CE1       24.6250    4.3840   14.6190 C.ar  218  TYR218      0.0417
     74  CE2       26.1320    2.6810   15.3480 C.ar  218  TYR218      0.0417
     75  CZ        25.5340    3.9040   15.5540 C.ar  218  TYR218      0.1957
     76  OH        25.8520    4.6270   16.6940 O.3   218  TYR218     -0.2866
     77  N         29.3940    9.4530   -1.6370 N.3   286  ASN286     -0.1240
     78  CA        28.8110   10.2380   -0.5810 C.3   286  ASN286      0.1653
     79  C         28.5790   11.7540   -0.8550 C.2   286  ASN286      0.2266
     80  O         27.6170   12.3320   -0.3500 O.2   286  ASN286     -0.2867
     81  CB        29.5670    9.9980    0.6990 C.3   286  ASN286      0.1155
     82  CG        29.2610    8.6440    1.3000 C.2   286  ASN286      0.2627
     83  OD1       28.1560    8.0830    1.1350 O.2   286  ASN286     -0.2716
     84  ND2       30.2330    8.1010    2.0080 N.am  286  ASN286     -0.0877
     85  N         24.6610   11.9230    0.1060 N.3   290  LEU290     -0.1245
     86  CA        24.3250   12.5790    1.3980 C.3   290  LEU290      0.1561
     87  C         23.8890   14.0410    1.2810 C.2   290  LEU290      0.2260
     88  O         23.6110   14.6810    2.2500 O.2   290  LEU290     -0.2867
     89  CB        25.4680   12.4460    2.4000 C.3   290  LEU290      0.0270
     90  CG        26.1140   11.0670    2.6200 C.3   290  LEU290      0.0019
     91  CD1       27.3270   11.2350    3.5350 C.3   290  LEU290      0.0001
     92  CD2       25.1800   10.0570    3.1940 C.3   290  LEU290      0.0001
     93  N         26.2110    0.5340    2.9700 N.3   314  GLY314     -0.1210
     94  CA        26.3900    0.6040    4.4180 C.3   314  GLY314      0.1956
     95  C         27.8710    0.6530    4.7420 C.2   314  GLY314      0.2612
     96  O         28.6780    0.0440    4.0470 O.2   314  GLY314     -0.2717
     97  N         28.2180    1.3270    5.8160 N.am  315  ALA315     -0.1965
     98  CA        29.5930    1.3510    6.2760 C.3   315  ALA315      0.1728
     99  C         29.5580    1.5740    7.7970 C.2   315  ALA315      0.2617
    100  O         28.5820    2.0770    8.3570 O.2   315  ALA315     -0.2715
    101  CB        30.3910    2.4520    5.5760 C.3   315  ALA315      0.0334
    102  N         30.5450    0.9870    8.4380 N.am  316  THR316     -0.1937
    103  CA        30.9980    1.4080    9.7540 C.3   316  THR316      0.2028
    104  C         32.4700    1.8300    9.5960 C.2   316  THR316      0.2642
    105  O         33.0050    1.8340    8.4800 O.2   316  THR316     -0.2714
    106  CB        30.8760    0.3340   10.7820 C.3   316  THR316      0.1808
    107  OG1       31.6650   -0.7980   10.4160 O.3   316  THR316     -0.2208
    108  CG2       29.3980   -0.1280   10.9670 C.3   316  THR316      0.0379
    109  N         33.1440    2.2250   10.6870 N.am  317  GLY317     -0.1954
    110  CA        34.5090    2.6970   10.5030 C.3   317  GLY317      0.1869
    111  C         35.4380    1.6340    9.8740 C.2   317  GLY317      0.2309
    112  O         36.3320    1.9620    9.1160 O.2   317  GLY317     -0.2863
    113  N         31.9260    3.6710   -2.0080 N.3   343  ASN343     -0.1240
    114  CA        30.6710    3.0600   -2.4470 C.3   343  ASN343      0.1653
    115  C         30.6820    2.8260   -3.9760 C.2   343  ASN343      0.2266
    116  O         30.2190    1.7810   -4.4190 O.2   343  ASN343     -0.2867
    117  CB        29.4760    3.9650   -2.1490 C.3   343  ASN343      0.1155
    118  CG        29.1580    4.0620   -0.6720 C.2   343  ASN343      0.2627
    119  OD1       29.2280    3.1030    0.0560 O.2   343  ASN343     -0.2716
    120  ND2       28.6630    5.1900   -0.2680 N.am  343  ASN343     -0.0877
@<TRIPOS>BOND
     1   116   115    2
     2   115   114    1
     3   114   117    1
     4   114   113    1
     5   117   118    1
     6    77    78    1
     7    79    78    1
     8    79    80    2
     9   118   120   am
    10   118   119    2
    11    78    81    1
    12    85    86    1
    13    81    82    1
    14    83    82    2
    15    87    86    1
    16    87    88    2
    17    82    84   am
    18    86    89    1
    19    89    90    1
    20    90    92    1
    21    90    91    1
    22    93    94    1
    23    41    42    1
    24    41    38    1
    25    43    42   ar
    26    43    45   ar
    27    37    38    1
    28    42    44   ar
    29    45    47   ar
    30    96    95    2
    31    38    39    1
    32    94    95    1
    33    44    46   ar
    34    95    97   am
    35    47    46   ar
    36    47    48    1
    37   101    98    1
    38    39    40    2
    39    97    98    1
    40     8     7    2
    41    98    99    1
    42     9    10    1
    43     9     6    1
    44     7     6    1
    45    26    25    1
    46    13    14    2
    47    13    12    1
    48     6     5    1
    49    15    12    1
    50    15    16    2
    51    17    16    1
    52    17    18    1
    53    27    25    1
    54     5     3   am
    55    19    18    1
    56    99   100    2
    57    99   102   am
    58    12    11    1
    59    25    24    1
    60   102   103    1
    61   105   104    2
    62    24    21    1
    63     3     4    2
    64     3     2    1
    65     1     2    1
    66   112   111    2
    67    21    20    1
    68    21    22    1
    69   104   103    1
    70   104   109   am
    71    49    50    1
    72   103   106    1
    73   111   110    1
    74    23    22    2
    75   107   106    1
    76    22    28   am
    77   110   109    1
    78    50    51    1
    79    63    62    2
    80   106   108    1
    81    36    34   am
    82    28    29    1
    83    51    52    2
    84    62    61    1
    85    62    65   am
    86    33    34    1
    87    33    32    1
    88    34    35    2
    89    69    66    1
    90    69    70    1
    91    66    65    1
    92    66    67    1
    93    61    64    1
    94    61    60    1
    95    29    32    1
    96    29    30    1
    97    67    68    2
    98    70    71   ar
    99    70    72   ar
   100    71    73   ar
   101    30    31    2
   102    72    74   ar
   103    73    75   ar
   104    57    59    1
   105    57    58    1
   106    57    54    1
   107    74    75   ar
   108    75    76    1
   109    53    54    1
   110    54    55    1
   111    55    56    2
