@<TRIPOS>MOLECULE
tmp/4keqA00.pdb
 136 131 0 0 0
SMALL
GASTEIGER

@<TRIPOS>ATOM
      1  N          4.9810   12.9900  -16.1630 N.3    12  LEU12      -0.1245
      2  CA         3.7060   12.8940  -15.4540 C.3    12  LEU12       0.1561
      3  C          3.8620   13.4470  -14.0380 C.2    12  LEU12       0.2260
      4  O          4.9780   13.6580  -13.5670 O.2    12  LEU12      -0.2867
      5  CB         3.2380   11.4350  -15.3750 C.3    12  LEU12       0.0270
      6  CG         2.7610   10.6530  -16.6070 C.3    12  LEU12       0.0019
      7  CD1        2.4320    9.2170  -16.1930 C.3    12  LEU12       0.0001
      8  CD2        1.5510   11.3040  -17.2710 C.3    12  LEU12       0.0001
      9  N          2.7470   13.0100   -9.9120 N.3    14  LEU14      -0.1245
     10  CA         2.1490   12.2990   -8.7920 C.3    14  LEU14       0.1561
     11  C          2.4180   13.0820   -7.5250 C.2    14  LEU14       0.2260
     12  O          3.3280   13.9040   -7.4780 O.2    14  LEU14      -0.2867
     13  CB         2.7680   10.9120   -8.6440 C.3    14  LEU14       0.0270
     14  CG         2.3310    9.8300   -9.6240 C.3    14  LEU14       0.0019
     15  CD1        3.1790    8.5800   -9.4270 C.3    14  LEU14       0.0001
     16  CD2        0.8720    9.5250   -9.4280 C.3    14  LEU14       0.0001
     17  N          7.8000   13.4820  -12.8000 N.3    31  PHE31      -0.1241
     18  CA         8.7750   12.4390  -13.1030 C.3    31  PHE31       0.1605
     19  C          8.6750   12.0840  -14.5800 C.2    31  PHE31       0.2264
     20  O          7.6140   12.2350  -15.1820 O.2    31  PHE31      -0.2867
     21  CB         8.5240   11.1960  -12.2340 C.3    31  PHE31       0.0534
     22  CG         7.1400   10.6170  -12.3830 C.ar   31  PHE31      -0.0203
     23  CD1        6.9050    9.5630  -13.2460 C.ar   31  PHE31      -0.0042
     24  CD2        6.0730   11.1360  -11.6610 C.ar   31  PHE31      -0.0042
     25  CE1        5.6310    9.0310  -13.3820 C.ar   31  PHE31      -0.0003
     26  CE2        4.7990   10.6170  -11.8010 C.ar   31  PHE31      -0.0003
     27  CZ         4.5780    9.5600  -12.6600 C.ar   31  PHE31      -0.0000
     28  N         -6.6350   10.6090  -16.3880 N.3    60  LEU60      -0.1245
     29  CA        -5.7910   11.0770  -15.2890 C.3    60  LEU60       0.1561
     30  C         -5.2130   12.4850  -15.4690 C.2    60  LEU60       0.2260
     31  O         -4.0070   12.6730  -15.2800 O.2    60  LEU60      -0.2867
     32  CB        -4.6460   10.0890  -15.0490 C.3    60  LEU60       0.0270
     33  CG        -5.0310    8.6120  -14.9590 C.3    60  LEU60       0.0019
     34  CD1       -4.6410    7.8790  -16.2330 C.3    60  LEU60       0.0001
     35  CD2       -4.3870    7.9690  -13.7460 C.3    60  LEU60       0.0001
     36  N         -2.6490   14.1070  -13.3440 N.3    63  GLU63      -0.1245
     37  CA        -1.2290   13.7780  -13.4700 C.3    63  GLU63       0.1567
     38  C         -0.5200   14.7460  -14.4110 C.2    63  GLU63       0.2260
     39  O          0.6910   14.6400  -14.6270 O.2    63  GLU63      -0.2867
     40  CB        -1.0270   12.3290  -13.9170 C.3    63  GLU63       0.0388
     41  CG        -1.5770   11.3370  -12.9130 C.3    63  GLU63       0.1160
     42  CD        -0.8580   10.0040  -12.9240 C.2    63  GLU63       0.3649
     43  OE1       -0.9480    9.2990  -11.9040 O.co2  63  GLU63      -0.2457
     44  OE2       -0.2160    9.6560  -13.9360 O.co2  63  GLU63      -0.2457
     45  N          0.3970   -1.3800  -16.3430 N.3    96  HIS96      -0.1226
     46  CA         0.0260   -0.0430  -15.9170 C.3    96  HIS96       0.1752
     47  C          0.0850    0.8620  -17.1500 C.2    96  HIS96       0.2596
     48  O          0.9050    0.6450  -18.0500 O.2    96  HIS96      -0.2718
     49  CB         0.9180    0.4430  -14.7710 C.3    96  HIS96       0.0759
     50  CG         0.6240   -0.2290  -13.4640 C.ar   96  HIS96       0.0818
     51  ND1        1.4080   -0.0670  -12.3420 N.ar   96  HIS96      -0.2268
     52  CD2       -0.3770   -1.0680  -13.1040 C.ar   96  HIS96       0.1154
     53  CE1        0.9020   -0.7750  -11.3470 C.ar   96  HIS96       0.1986
     54  NE2       -0.1800   -1.3940  -11.7840 N.ar   96  HIS96      -0.2212
     55  N         -0.8060    1.8480  -17.1910 N.am   97  PHE97      -0.1962
     56  CA        -1.0300    2.6780  -18.3780 C.3    97  PHE97       0.1771
     57  C          0.2120    3.4060  -18.9090 C.2    97  PHE97       0.2619
     58  O          0.3440    3.6220  -20.1130 O.2    97  PHE97      -0.2715
     59  CB        -2.1410    3.7010  -18.0940 C.3    97  PHE97       0.0574
     60  CG        -1.7410    4.7700  -17.1190 C.ar   97  PHE97      -0.0200
     61  CD1       -1.8540    4.5600  -15.7570 C.ar   97  PHE97      -0.0042
     62  CD2       -1.2380    5.9830  -17.5670 C.ar   97  PHE97      -0.0042
     63  CE1       -1.4760    5.5420  -14.8560 C.ar   97  PHE97      -0.0003
     64  CE2       -0.8550    6.9620  -16.6750 C.ar   97  PHE97      -0.0003
     65  CZ        -0.9740    6.7400  -15.3150 C.ar   97  PHE97      -0.0000
     66  N          1.1170    3.7960  -18.0180 N.am   98  ASP98      -0.1971
     67  CA         2.3190    4.5050  -18.4460 C.3    98  ASP98       0.1709
     68  C          3.4140    3.5670  -18.9480 C.2    98  ASP98       0.2293
     69  O          4.5190    4.0060  -19.2590 O.2    98  ASP98      -0.2864
     70  CB         2.8490    5.4230  -17.3370 C.3    98  ASP98       0.1436
     71  CG         3.1980    4.6690  -16.0710 C.2    98  ASP98       0.3671
     72  OD1        2.5540    3.6380  -15.7980 O.co2  98  ASP98      -0.2456
     73  OD2        4.1160    5.1100  -15.3450 O.co2  98  ASP98      -0.2456
     74  N         -8.5230   -1.7030   -6.3480 N.3   127  PHE127     -0.1227
     75  CA        -7.5960   -0.5910   -6.1730 C.3   127  PHE127      0.1736
     76  C         -6.5940   -0.5040   -7.3240 C.2   127  PHE127      0.2595
     77  O         -5.6740    0.3080   -7.2900 O.2   127  PHE127     -0.2718
     78  CB        -6.8690   -0.6840   -4.8190 C.3   127  PHE127      0.0547
     79  CG        -6.1940   -2.0110   -4.5720 C.ar  127  PHE127     -0.0202
     80  CD1       -6.7930   -2.9650   -3.7670 C.ar  127  PHE127     -0.0042
     81  CD2       -4.9610   -2.3030   -5.1460 C.ar  127  PHE127     -0.0042
     82  CE1       -6.1740   -4.1990   -3.5340 C.ar  127  PHE127     -0.0003
     83  CE2       -4.3340   -3.5250   -4.9190 C.ar  127  PHE127     -0.0003
     84  CZ        -4.9470   -4.4760   -4.1140 C.ar  127  PHE127     -0.0000
     85  N         -6.7780   -1.3470   -8.3370 N.am  128  GLU128     -0.1979
     86  CA        -5.8610   -1.3980   -9.4770 C.3   128  GLU128      0.1602
     87  C         -6.4570   -0.8720  -10.7830 C.2   128  GLU128      0.2287
     88  O         -5.7420   -0.7300  -11.7740 O.2   128  GLU128     -0.2864
     89  CB        -5.3820   -2.8270   -9.7160 C.3   128  GLU128      0.0415
     90  CG        -4.5720   -3.4320   -8.6070 C.3   128  GLU128      0.1163
     91  CD        -4.0030   -4.7650   -9.0250 C.2   128  GLU128      0.3649
     92  OE1       -2.7600   -4.8780   -9.0980 O.co2 128  GLU128     -0.2457
     93  OE2       -4.8020   -5.6900   -9.3010 O.co2 128  GLU128     -0.2457
     94  N         -7.2920    1.9370  -11.9100 N.3   130  LEU130     -0.1231
     95  CA        -6.6930    3.1610  -12.4250 C.3   130  LEU130      0.1693
     96  C         -5.3250    2.8990  -13.0480 C.2   130  LEU130      0.2592
     97  O         -4.9820    3.4750  -14.0770 O.2   130  LEU130     -0.2718
     98  CB        -6.5730    4.1760  -11.2900 C.3   130  LEU130      0.0284
     99  CG        -6.2000    5.6210  -11.5890 C.3   130  LEU130      0.0019
    100  CD1       -7.3770    6.3610  -12.2240 C.3   130  LEU130      0.0001
    101  CD2       -5.7590    6.2810  -10.2920 C.3   130  LEU130      0.0001
    102  N         -4.5420    2.0310  -12.4170 N.am  131  GLY131     -0.1957
    103  CA        -3.2790    1.5910  -12.9870 C.3   131  GLY131      0.1869
    104  C         -3.5040    0.8670  -14.2990 C.2   131  GLY131      0.2309
    105  O         -2.8690    1.1590  -15.3110 O.2   131  GLY131     -0.2863
    106  N          9.3620   -0.4310  -12.5690 N.3   205  ASP205     -0.1239
    107  CA         8.5590    0.0240  -11.4360 C.3   205  ASP205      0.1674
    108  C          8.8400   -0.7030  -10.1200 C.2   205  ASP205      0.2266
    109  O          8.1650   -0.4600   -9.1230 O.2   205  ASP205     -0.2867
    110  CB         7.0700   -0.0000  -11.7730 C.3   205  ASP205      0.1410
    111  CG         6.6350    1.1910  -12.6130 C.2   205  ASP205      0.3668
    112  OD1        7.5010    1.9450  -13.1120 O.co2 205  ASP205     -0.2456
    113  OD2        5.4120    1.3650  -12.7820 O.co2 205  ASP205     -0.2456
    114  N         11.2010    3.1000   -8.3130 N.3   208  TYR208     -0.1241
    115  CA        10.9250    4.3470   -9.0320 C.3   208  TYR208      0.1605
    116  C         12.1460    5.2500   -9.1110 C.2   208  TYR208      0.2264
    117  O         12.3950    5.8890  -10.1310 O.2   208  TYR208     -0.2867
    118  CB         9.8060    5.1360   -8.3460 C.3   208  TYR208      0.0534
    119  CG         8.4010    4.7700   -8.7630 C.ar  208  TYR208     -0.0201
    120  CD1        8.0740    3.4690   -9.1080 C.ar  208  TYR208     -0.0009
    121  CD2        7.4020    5.7350   -8.8100 C.ar  208  TYR208     -0.0009
    122  CE1        6.7890    3.1320   -9.4840 C.ar  208  TYR208      0.0417
    123  CE2        6.1050    5.4070   -9.1870 C.ar  208  TYR208      0.0417
    124  CZ         5.8090    4.1000   -9.5200 C.ar  208  TYR208      0.1957
    125  OH         4.5340    3.7540   -9.9000 O.3   208  TYR208     -0.2866
    126  N          1.6960    2.5800   -5.2070 N.3   221  PHE221     -0.1241
    127  CA         0.9990    1.6830   -6.1080 C.3   221  PHE221      0.1605
    128  C          1.6580    0.3170   -6.0350 C.2   221  PHE221      0.2264
    129  O          2.7930    0.1430   -6.4840 O.2   221  PHE221     -0.2867
    130  CB         1.0500    2.2040   -7.5430 C.3   221  PHE221      0.0534
    131  CG         0.4400    3.5610   -7.7120 C.ar  221  PHE221     -0.0203
    132  CD1       -0.9190    3.7510   -7.5140 C.ar  221  PHE221     -0.0042
    133  CD2        1.2230    4.6470   -8.0770 C.ar  221  PHE221     -0.0042
    134  CE1       -1.4880    5.0020   -7.6740 C.ar  221  PHE221     -0.0003
    135  CE2        0.6640    5.8940   -8.2410 C.ar  221  PHE221     -0.0003
    136  CZ        -0.6930    6.0760   -8.0390 C.ar  221  PHE221     -0.0000
@<TRIPOS>BOND
     1    58    57    2
     2    69    68    2
     3    68    67    1
     4    57    56    1
     5    57    66   am
     6    67    66    1
     7    67    70    1
     8    56    59    1
     9    56    55    1
    10    59    60    1
    11    48    47    2
    12    62    60   ar
    13    62    64   ar
    14    70    71    1
    15     8     6    1
    16    55    47   am
    17    47    46    1
    18    60    61   ar
    19    64    65   ar
    20     6     7    1
    21     6     5    1
    22    28    29    1
    23    45    46    1
    24    34    33    1
    25     1     2    1
    26    71    72   ar
    27    71    73   ar
    28    46    49    1
    29    61    63   ar
    30    30    29    1
    31    30    31    2
    32     2     5    1
    33     2     3    1
    34    65    63   ar
    35   105   104    2
    36    29    32    1
    37    20    19    2
    38    32    33    1
    39    33    35    1
    40    49    50    1
    41    39    38    2
    42    19    18    1
    43    38    37    1
    44   104   103    1
    45    97    96    2
    46     3     4    2
    47    44    42   ar
    48    40    37    1
    49    40    41    1
    50    37    36    1
    51    50    52   ar
    52    50    51   ar
    53    25    23   ar
    54    25    27   ar
    55    23    22   ar
    56   112   111   ar
    57    52    54   ar
    58    18    17    1
    59    18    21    1
    60    96    95    1
    61    96   102   am
    62   103   102    1
    63    42    41    1
    64    42    43   ar
    65   113   111   ar
    66    27    26   ar
    67   111   110    1
    68   106   107    1
    69    95    94    1
    70    95    98    1
    71    22    21    1
    72    22    24   ar
    73    51    53   ar
    74   100    99    1
    75    26    24   ar
    76    54    53   ar
    77    88    87    2
    78   110   107    1
    79    99    98    1
    80    99   101    1
    81   107   108    1
    82    87    86    1
    83   117   116    2
    84   108   109    2
    85     9    10    1
    86   125   124    1
    87    89    86    1
    88    89    90    1
    89    14    16    1
    90    14    15    1
    91    14    13    1
    92   124   122   ar
    93   124   123   ar
    94   122   120   ar
    95    86    85    1
    96    93    91   ar
    97   123   121   ar
    98   116   115    1
    99   120   119   ar
   100    92    91   ar
   101   115   118    1
   102   115   114    1
   103    91    90    1
   104   121   119   ar
   105    10    13    1
   106    10    11    1
   107   119   118    1
   108    85    76   am
   109   135   133   ar
   110   135   136   ar
   111   133   131   ar
   112   136   134   ar
   113   131   130    1
   114   131   132   ar
   115   134   132   ar
   116   130   127    1
   117    11    12    2
   118    76    77    2
   119    76    75    1
   120   129   128    2
   121    74    75    1
   122    75    78    1
   123   127   128    1
   124   127   126    1
   125    81    83   ar
   126    81    79   ar
   127    83    84   ar
   128    78    79    1
   129    79    80   ar
   130    84    82   ar
   131    80    82   ar
