@<TRIPOS>MOLECULE
tmp/4keqA01.pdb
 109 104 0 0 0
SMALL
GASTEIGER

@<TRIPOS>ATOM
      1  N         12.5720    8.6930  -24.8040 N.3     8  ASP8       -0.1239
      2  CA        12.0370    9.6590  -23.8660 C.3     8  ASP8        0.1674
      3  C         10.5540    9.8530  -24.1570 C.2     8  ASP8        0.2266
      4  O         10.1810   10.2400  -25.2620 O.2     8  ASP8       -0.2867
      5  CB        12.8080   10.9770  -24.0140 C.3     8  ASP8        0.1410
      6  CG        12.4440   11.9960  -22.9560 C.2     8  ASP8        0.3668
      7  OD1       11.6900   11.6510  -22.0210 O.co2   8  ASP8       -0.2456
      8  OD2       12.9230   13.1450  -23.0540 O.co2   8  ASP8       -0.2456
      9  N          8.2990   11.8460  -22.2970 N.3    10  GLY10      -0.1210
     10  CA         7.7010   12.9660  -21.5900 C.3    10  GLY10       0.1956
     11  C          7.5530   12.7120  -20.1000 C.2    10  GLY10       0.2612
     12  O          8.3190   11.9460  -19.5130 O.2    10  GLY10      -0.2717
     13  N          6.5640   13.3420  -19.4780 N.am   11  SER11      -0.1952
     14  CA         6.4910   13.3110  -18.0230 C.3    11  SER11       0.1924
     15  C          5.0740   13.2920  -17.4560 C.2    11  SER11       0.2314
     16  O          4.1010   13.5490  -18.1650 O.2    11  SER11      -0.2863
     17  CB         7.2840   14.4840  -17.4320 C.3    11  SER11       0.2116
     18  OG         6.6610   15.7210  -17.7250 O.3    11  SER11      -0.2180
     19  N          6.9770   15.8870  -10.3930 N.3    30  ARG30      -0.1245
     20  CA         6.9810   15.5170  -11.7980 C.3    30  ARG30       0.1563
     21  C          8.1020   14.5350  -12.0480 C.2    30  ARG30       0.2260
     22  O          9.2160   14.7250  -11.5700 O.2    30  ARG30      -0.2867
     23  CB         7.1540   16.7480  -12.6950 C.3    30  ARG30       0.0307
     24  CG         7.2750   16.4140  -14.1780 C.3    30  ARG30       0.0489
     25  CD         7.0750   17.6430  -15.0530 C.3    30  ARG30       0.2205
     26  NE         5.8340   18.3410  -14.7320 N.pl3  30  ARG30      -0.0865
     27  CZ         4.6720   18.1330  -15.3390 C.cat  30  ARG30       0.5346
     28  NH1        4.5710   17.2360  -16.3130 N.pl3  30  ARG30       0.1354
     29  NH2        3.6040   18.8250  -14.9690 N.pl3  30  ARG30       0.1354
     30  N          9.7820   11.6180  -15.1700 N.3    32  PRO32      -0.2116
     31  CA         9.8070   11.2200  -16.5790 C.3    32  PRO32       0.1372
     32  C          9.2270    9.8240  -16.7930 C.2    32  PRO32       0.2244
     33  O          9.1680    9.0280  -15.8640 O.2    32  PRO32      -0.2868
     34  CB        11.3020   11.1810  -16.8860 C.3    32  PRO32       0.0268
     35  CG        11.9090   10.7600  -15.5970 C.3    32  PRO32       0.0207
     36  CD        11.1050   11.4620  -14.5380 C.3    32  PRO32       0.0892
     37  N          2.8960   16.1680  -19.6720 N.3    66  ILE66      -0.1231
     38  CA         3.5830   16.9900  -20.6460 C.3    66  ILE66       0.1692
     39  C          4.3710   16.0450  -21.5340 C.2    66  ILE66       0.2592
     40  O          5.2940   15.3760  -21.0760 O.2    66  ILE66      -0.2718
     41  CB         4.5240   18.0100  -19.9870 C.3    66  ILE66       0.0266
     42  CG1        3.7500   18.9160  -19.0320 C.3    66  ILE66       0.0019
     43  CG2        5.1900   18.8660  -21.0380 C.3    66  ILE66       0.0020
     44  CD1        4.6110   19.9880  -18.3870 C.3    66  ILE66       0.0001
     45  N          3.9800   15.9740  -22.8010 N.am   67  GLN67      -0.1966
     46  CA         4.6030   15.0670  -23.7530 C.3    67  GLN67       0.1733
     47  C          4.5780   15.6820  -25.1440 C.2    67  GLN67       0.2616
     48  O          3.5220   15.8100  -25.7620 O.2    67  GLN67      -0.2715
     49  CB         3.8870   13.7120  -23.7590 C.3    67  GLN67       0.0408
     50  CG         4.3990   12.7260  -24.8020 C.3    67  GLN67       0.0908
     51  CD         3.5850   11.4360  -24.8380 C.2    67  GLN67       0.2608
     52  OE1        2.6580   11.3040  -25.6360 O.2    67  GLN67      -0.2717
     53  NE2        3.9310   10.4770  -23.9720 N.am   67  GLN67      -0.0878
     54  N          5.7480   16.0700  -25.6290 N.am   68  GLU68      -0.1977
     55  CA         5.8580   16.6440  -26.9610 C.3    68  GLU68       0.1602
     56  C          5.8060   15.5310  -28.0100 C.2    68  GLU68       0.2287
     57  O          5.9450   14.3540  -27.6770 O.2    68  GLU68      -0.2864
     58  CB         7.1320   17.4890  -27.0690 C.3    68  GLU68       0.0415
     59  CG         7.0490   18.7980  -26.2820 C.3    68  GLU68       0.1163
     60  CD         8.2950   19.0900  -25.4490 C.2    68  GLU68       0.3649
     61  OE1        9.3590   19.3860  -26.0360 O.co2  68  GLU68      -0.2457
     62  OE2        8.2060   19.0370  -24.2000 O.co2  68  GLU68      -0.2457
     63  N          7.7490   14.4520  -30.2400 N.3    70  HIS70      -0.1226
     64  CA         8.9040   13.5780  -30.4190 C.3    70  HIS70       0.1752
     65  C          9.0030   12.5870  -29.2560 C.2    70  HIS70       0.2595
     66  O          9.8610   11.7050  -29.2410 O.2    70  HIS70      -0.2718
     67  CB        10.2130   14.3630  -30.6380 C.3    70  HIS70       0.0759
     68  CG        10.6160   15.2270  -29.4820 C.ar   70  HIS70       0.0818
     69  ND1        9.8080   16.2250  -28.9810 N.ar   70  HIS70      -0.2268
     70  CD2       11.7500   15.2540  -28.7430 C.ar   70  HIS70       0.1154
     71  CE1       10.4210   16.8180  -27.9720 C.ar   70  HIS70       0.1986
     72  NE2       11.6020   16.2490  -27.8090 N.ar   70  HIS70      -0.2212
     73  N          8.0870   12.7170  -28.3020 N.am   71  GLN71      -0.1979
     74  CA         8.0860   11.8530  -27.1260 C.3    71  GLN71       0.1601
     75  C          6.9210   10.8670  -27.0690 C.2    71  GLN71       0.2287
     76  O          6.6520   10.2700  -26.0260 O.2    71  GLN71      -0.2864
     77  CB         8.1460   12.6940  -25.8590 C.3    71  GLN71       0.0394
     78  CG         9.4350   13.4720  -25.7570 C.3    71  GLN71       0.0908
     79  CD         9.4630   14.3760  -24.5620 C.2    71  GLN71       0.2608
     80  OE1        8.4700   15.0250  -24.2350 O.2    71  GLN71      -0.2717
     81  NE2       10.6030   14.4200  -23.8880 N.am   71  GLN71      -0.0878
     82  N         13.5250   11.9210  -11.8280 N.3   252  MET252     -0.1245
     83  CA        13.7930   13.1220  -12.6130 C.3   252  MET252      0.1570
     84  C         15.2460   13.5680  -12.5340 C.2   252  MET252      0.2261
     85  O         15.8890   13.7830  -13.5610 O.2   252  MET252     -0.2867
     86  CB        12.8540   14.2710  -12.2120 C.3   252  MET252      0.0387
     87  CG        12.8710   15.4700  -13.1710 C.3   252  MET252      0.0595
     88  SD        12.1180   15.1130  -14.7750 S.3   252  MET252     -0.1393
     89  CE        13.5080   14.4940  -15.7130 C.3   252  MET252      0.0692
     90  N         17.3290   11.1030  -14.2530 N.3   255  PHE255     -0.1227
     91  CA        16.9800   10.9860  -15.6660 C.3   255  PHE255      0.1736
     92  C         17.7650   11.9780  -16.5130 C.2   255  PHE255      0.2595
     93  O         18.1490   11.6690  -17.6370 O.2   255  PHE255     -0.2718
     94  CB        15.4730   11.1680  -15.8870 C.3   255  PHE255      0.0547
     95  CG        15.0380   10.9420  -17.3110 C.ar  255  PHE255     -0.0202
     96  CD1       15.0600    9.6700  -17.8620 C.ar  255  PHE255     -0.0042
     97  CD2       14.6030   11.9970  -18.0960 C.ar  255  PHE255     -0.0042
     98  CE1       14.6650    9.4570  -19.1690 C.ar  255  PHE255     -0.0003
     99  CE2       14.2020   11.7900  -19.4030 C.ar  255  PHE255     -0.0003
    100  CZ        14.2330   10.5190  -19.9390 C.ar  255  PHE255     -0.0000
    101  N         18.0120   13.1600  -15.9540 N.am  256  LYS256     -0.1980
    102  CA        18.7640   14.2210  -16.6290 C.3   256  LYS256      0.1596
    103  C         20.1480   13.7880  -17.1000 C.2   256  LYS256      0.2287
    104  O         20.7280   14.3930  -18.0010 O.2   256  LYS256     -0.2864
    105  CB        18.8860   15.4400  -15.7140 C.3   256  LYS256      0.0298
    106  CG        17.5770   16.1720  -15.5300 C.3   256  LYS256      0.0038
    107  CD        16.9040   16.3490  -16.8850 C.3   256  LYS256      0.0206
    108  CE        15.6110   17.1330  -16.7820 C.3   256  LYS256      0.1093
    109  NZ        14.9130   17.1680  -18.0950 N.3   256  LYS256     -0.1314
@<TRIPOS>BOND
     1    67    64    1
     2    67    68    1
     3    64    63    1
     4    64    65    1
     5    68    69   ar
     6    68    70   ar
     7    65    66    2
     8    65    73   am
     9    69    71   ar
    10    70    72   ar
    11    73    74    1
    12    56    57    2
    13    56    55    1
    14    71    72   ar
    15    74    75    1
    16    74    77    1
    17    75    76    2
    18    58    55    1
    19    58    59    1
    20    55    54    1
    21    59    60    1
    22    61    60   ar
    23    77    78    1
    24    48    47    2
    25    78    79    1
    26    52    51    2
    27    54    47   am
    28    60    62   ar
    29     4     3    2
    30    47    46    1
    31    51    50    1
    32    51    53   am
    33     1     2    1
    34    50    49    1
    35    79    80    2
    36    79    81   am
    37     3     2    1
    38     5     2    1
    39     5     6    1
    40    49    46    1
    41    46    45    1
    42     8     6   ar
    43     6     7   ar
    44    45    39   am
    45     9    10    1
    46    10    11    1
    47    39    40    2
    48    39    38    1
    49    43    41    1
    50    38    41    1
    51    38    37    1
    52    11    12    2
    53    11    13   am
    54    41    42    1
    55   100    99   ar
    56   100    98   ar
    57    13    14    1
    58    99    97   ar
    59    98    96   ar
    60    42    44    1
    61    16    15    2
    62    97    95   ar
    63   109   108    1
    64    14    15    1
    65    14    17    1
    66   104   103    2
    67    96    95   ar
    68    18    17    1
    69    93    92    2
    70    95    94    1
    71   103   102    1
    72    34    31    1
    73    34    35    1
    74   107   108    1
    75   107   106    1
    76    32    31    1
    77    32    33    2
    78   102   101    1
    79   102   105    1
    80    31    30    1
    81    92   101   am
    82    92    91    1
    83    28    27    1
    84    94    91    1
    85   105   106    1
    86    89    88    1
    87    91    90    1
    88    35    36    1
    89    27    29    1
    90    27    26    2
    91    30    36    1
    92    25    26    1
    93    25    24    1
    94    88    87    1
    95    24    23    1
    96    85    84    2
    97    87    86    1
    98    23    20    1
    99    83    84    1
   100    83    86    1
   101    83    82    1
   102    21    20    1
   103    21    22    2
   104    20    19    1
