@<TRIPOS>MOLECULE
tmp/4kerA00.pdb
 150 142 0 0 0
SMALL
GASTEIGER

@<TRIPOS>ATOM
      1  N        -23.7270  -20.4680   25.5170 N.3    24  HIS24      -0.1241
      2  CA       -24.0030  -20.8720   24.1210 C.3    24  HIS24       0.1621
      3  C        -24.2750  -22.3690   24.0130 C.2    24  HIS24       0.2264
      4  O        -23.4670  -23.1680   24.4040 O.2    24  HIS24      -0.2867
      5  CB       -22.8300  -20.4930   23.1970 C.3    24  HIS24       0.0745
      6  CG       -22.4970  -19.0090   23.1920 C.ar   24  HIS24       0.0817
      7  ND1      -23.1630  -18.1120   22.4240 N.ar   24  HIS24      -0.2268
      8  CD2      -21.5160  -18.2760   23.8860 C.ar   24  HIS24       0.1154
      9  CE1      -22.6480  -16.8830   22.6220 C.ar   24  HIS24       0.1986
     10  NE2      -21.6430  -16.9820   23.5110 N.ar   24  HIS24      -0.2212
     11  N        -22.0670  -22.9940   18.7640 N.3    27  VAL27      -0.1245
     12  CA       -21.5180  -21.8810   18.0140 C.3    27  VAL27       0.1561
     13  C        -20.7680  -22.3660   16.7690 C.2    27  VAL27       0.2260
     14  O        -19.9790  -23.3150   16.8370 O.2    27  VAL27      -0.2867
     15  CB       -20.5550  -21.0420   18.8780 C.3    27  VAL27       0.0252
     16  CG1      -19.7980  -20.0490   18.0130 C.3    27  VAL27       0.0019
     17  CG2      -21.3150  -20.3230   19.9770 C.3    27  VAL27       0.0019
     18  N        -22.6040  -16.1590   14.7320 N.3    72  LEU72      -0.1245
     19  CA       -22.2870  -17.2350   15.6820 C.3    72  LEU72       0.1561
     20  C        -23.0940  -18.5080   15.3750 C.2    72  LEU72       0.2260
     21  O        -22.9250  -19.5390   16.0350 O.2    72  LEU72      -0.2867
     22  CB       -22.5370  -16.7840   17.1090 C.3    72  LEU72       0.0270
     23  CG       -21.6520  -15.6500   17.6420 C.3    72  LEU72       0.0019
     24  CD1      -22.1240  -15.1950   19.0310 C.3    72  LEU72       0.0001
     25  CD2      -20.1740  -16.0660   17.6720 C.3    72  LEU72       0.0001
     26  N        -23.2990  -10.2210   15.2570 N.3    97  TYR97      -0.1241
     27  CA       -22.0150  -10.3860   15.8930 C.3    97  TYR97       0.1605
     28  C        -20.8920  -10.2020   14.8750 C.2    97  TYR97       0.2264
     29  O        -20.6370  -11.0850   14.0590 O.2    97  TYR97      -0.2867
     30  CB       -21.9230  -11.7690   16.5210 C.3    97  TYR97       0.0534
     31  CG       -20.6840  -12.0050   17.3160 C.ar   97  TYR97      -0.0201
     32  CD1      -19.4510  -12.3000   16.6770 C.ar   97  TYR97      -0.0009
     33  CD2      -20.7090  -11.9540   18.6950 C.ar   97  TYR97      -0.0009
     34  CE1      -18.3090  -12.5240   17.4090 C.ar   97  TYR97       0.0417
     35  CE2      -19.5670  -12.1780   19.4400 C.ar   97  TYR97       0.0417
     36  CZ       -18.3650  -12.4630   18.7950 C.ar   97  TYR97       0.1957
     37  OH       -17.2280  -12.6860   19.5440 O.3    97  TYR97      -0.2866
     38  N        -20.7380   -8.0550   23.5190 N.3   169  HIS169     -0.1241
     39  CA       -19.4740   -8.6890   23.5700 C.3   169  HIS169      0.1621
     40  C        -18.4710   -7.6250   23.4450 C.2   169  HIS169      0.2264
     41  O        -18.5790   -6.7540   22.5400 O.2   169  HIS169     -0.2867
     42  CB       -19.3380   -9.6720   22.3990 C.3   169  HIS169      0.0745
     43  CG       -17.9410  -10.2210   22.2160 C.ar  169  HIS169      0.0817
     44  ND1      -17.6030  -11.5140   22.5380 N.ar  169  HIS169     -0.2268
     45  CD2      -16.7620   -9.6190   21.7210 C.ar  169  HIS169      0.1154
     46  CE1      -16.2970  -11.7110   22.2650 C.ar  169  HIS169      0.1986
     47  NE2      -15.7830  -10.5540   21.7660 N.ar  169  HIS169     -0.2212
     48  N        -17.9380   -9.5870   29.1360 N.3   198  HIS198     -0.1241
     49  CA       -16.4950  -10.0120   29.1270 C.3   198  HIS198      0.1621
     50  C        -15.5810   -9.1060   29.8990 C.2   198  HIS198      0.2264
     51  O        -14.3710   -9.0800   29.6600 O.2   198  HIS198     -0.2867
     52  CB       -15.9890  -10.2100   27.6890 C.3   198  HIS198      0.0745
     53  CG       -16.9070  -11.0820   26.8260 C.ar  198  HIS198      0.0817
     54  ND1      -17.6370  -12.1200   27.3390 N.ar  198  HIS198     -0.2268
     55  CD2      -17.1880  -11.0520   25.4460 C.ar  198  HIS198      0.1154
     56  CE1      -18.3470  -12.7060   26.3440 C.ar  198  HIS198      0.1986
     57  NE2      -18.0740  -12.0610   25.1900 N.ar  198  HIS198     -0.2212
     58  N        -16.9750  -15.1140   31.7950 N.3   222  ARG222     -0.1245
     59  CA       -16.1140  -16.1030   31.1190 C.3   222  ARG222      0.1563
     60  C        -15.3320  -17.0060   32.1020 C.2   222  ARG222      0.2260
     61  O        -14.1760  -17.3840   31.8410 O.2   222  ARG222     -0.2867
     62  CB       -15.1750  -15.4220   30.1220 C.3   222  ARG222      0.0307
     63  CG       -15.8610  -15.0340   28.8080 C.3   222  ARG222      0.0489
     64  CD       -14.8840  -14.4090   27.8200 C.3   222  ARG222      0.2205
     65  NE       -15.4380  -14.3720   26.4740 N.pl3 222  ARG222     -0.0865
     66  CZ       -14.8450  -13.7900   25.4260 C.cat 222  ARG222      0.5346
     67  NH1      -13.6670  -13.1800   25.5710 N.pl3 222  ARG222      0.1354
     68  NH2      -15.4410  -13.8120   24.2190 N.pl3 222  ARG222      0.1354
     69  N        -12.5340  -19.8410   31.1210 N.3   225  LEU225     -0.1245
     70  CA       -11.6540  -19.4730   29.9990 C.3   225  LEU225      0.1561
     71  C        -10.4040  -18.8370   30.5110 C.2   225  LEU225      0.2260
     72  O        -10.2780  -17.6300   30.5260 O.2   225  LEU225     -0.2867
     73  CB       -12.3770  -18.5350   29.0260 C.3   225  LEU225      0.0270
     74  CG       -13.4480  -19.1930   28.1450 C.3   225  LEU225      0.0019
     75  CD1      -14.2410  -18.1530   27.3820 C.3   225  LEU225      0.0001
     76  CD2      -12.8170  -20.2050   27.1890 C.3   225  LEU225      0.0001
     77  N         -7.4260  -18.6930   29.3190 N.3   227  LEU227     -0.1231
     78  CA        -6.5920  -17.9720   28.3280 C.3   227  LEU227      0.1693
     79  C         -6.8000  -16.4590   28.4230 C.2   227  LEU227      0.2592
     80  O         -5.8860  -15.6800   28.1540 O.2   227  LEU227     -0.2718
     81  CB        -6.8530  -18.4830   26.8860 C.3   227  LEU227      0.0284
     82  CG        -8.1270  -18.0360   26.1760 C.3   227  LEU227      0.0019
     83  CD1       -8.0950  -18.4610   24.7070 C.3   227  LEU227      0.0001
     84  CD2       -9.3810  -18.5790   26.8790 C.3   227  LEU227      0.0001
     85  N         -8.0070  -16.0540   28.8110 N.am  228  PHE228     -0.1976
     86  CA        -8.2970  -14.6680   29.0220 C.3   228  PHE228      0.1639
     87  C         -7.8960  -14.2510   30.4440 C.2   228  PHE228      0.2290
     88  O         -7.1750  -13.3000   30.6270 O.2   228  PHE228     -0.2864
     89  CB        -9.7910  -14.3770   28.7720 C.3   228  PHE228      0.0560
     90  CG       -10.2470  -14.6920   27.3570 C.ar  228  PHE228     -0.0200
     91  CD1       -9.6110  -14.1030   26.2490 C.ar  228  PHE228     -0.0042
     92  CD2      -11.3010  -15.5610   27.1310 C.ar  228  PHE228     -0.0042
     93  CE1      -10.0250  -14.3890   24.9600 C.ar  228  PHE228     -0.0003
     94  CE2      -11.7190  -15.8500   25.8330 C.ar  228  PHE228     -0.0003
     95  CZ       -11.0790  -15.2620   24.7500 C.ar  228  PHE228     -0.0000
     96  N        -19.9470  -18.2810   29.4750 N.3   255  ASP255     -0.1239
     97  CA       -19.7670  -18.1240   28.0210 C.3   255  ASP255      0.1674
     98  C        -19.3400  -19.4640   27.4400 C.2   255  ASP255      0.2266
     99  O        -18.6160  -19.5260   26.4440 O.2   255  ASP255     -0.2867
    100  CB       -18.7240  -17.0610   27.7160 C.3   255  ASP255      0.1410
    101  CG       -18.7180  -16.6130   26.1550 C.2   255  ASP255      0.3668
    102  OD1      -19.8450  -16.6620   25.4620 O.co2 255  ASP255     -0.2456
    103  OD2      -17.6310  -16.2180   25.6580 O.co2 255  ASP255     -0.2456
    104  N        -19.2680  -22.8680   25.4940 N.3   257  CYS257     -0.1235
    105  CA       -19.7660  -23.3870   24.2610 C.3   257  CYS257      0.1677
    106  C        -19.8180  -24.8800   24.3260 C.2   257  CYS257      0.2270
    107  O        -18.7660  -25.5610   24.2570 O.2   257  CYS257     -0.2867
    108  CB       -18.8690  -22.9540   23.0940 C.3   257  CYS257      0.0956
    109  SG       -18.7090  -21.1790   22.8960 S.3   257  CYS257     -0.0801
    110  N        -18.2390  -25.6320   19.7300 N.3   260  ILE260     -0.1245
    111  CA       -17.7720  -24.4640   18.9680 C.3   260  ILE260      0.1561
    112  C        -16.7490  -24.8690   17.8820 C.2   260  ILE260      0.2260
    113  O        -15.7820  -25.5690   18.1580 O.2   260  ILE260     -0.2867
    114  CB       -17.1780  -23.3530   19.9070 C.3   260  ILE260      0.0252
    115  CG1      -16.7660  -22.1060   19.0860 C.3   260  ILE260      0.0019
    116  CG2      -16.0150  -23.8990   20.7250 C.3   260  ILE260      0.0019
    117  CD1      -16.4360  -20.8820   19.9390 C.3   260  ILE260      0.0001
    118  N        -14.6570  -23.0000   16.1660 N.3   262  VAL262     -0.1245
    119  CA       -13.3980  -22.2090   16.1680 C.3   262  VAL262      0.1561
    120  C        -12.1530  -23.1120   16.3490 C.2   262  VAL262      0.2260
    121  O        -12.1290  -23.9840   17.2210 O.2   262  VAL262     -0.2867
    122  CB       -13.4160  -21.1040   17.2620 C.3   262  VAL262      0.0252
    123  CG1      -12.0350  -20.5170   17.4500 C.3   262  VAL262      0.0019
    124  CG2      -14.4300  -20.0120   16.9040 C.3   262  VAL262      0.0019
    125  N         -9.4790  -22.7000   17.7150 N.3   264  THR264     -0.1203
    126  CA        -8.8670  -22.5310   19.0070 C.3   264  THR264      0.1994
    127  C         -9.4950  -23.4900   20.0550 C.2   264  THR264      0.2617
    128  O         -8.8990  -23.7610   21.1050 O.2   264  THR264     -0.2717
    129  CB        -9.0180  -21.0940   19.5030 C.3   264  THR264      0.1784
    130  OG1       -8.7220  -20.1840   18.4390 O.3   264  THR264     -0.2211
    131  CG2       -8.0660  -20.8240   20.6980 C.3   264  THR264      0.0376
    132  N        -10.6960  -23.9920   19.7480 N.am  265  ALA265     -0.1979
    133  CA       -11.4450  -24.8580   20.6830 C.3   265  ALA265      0.1597
    134  C        -11.1070  -26.3720   20.5200 C.2   265  ALA265      0.2287
    135  O        -11.8770  -27.2360   20.9490 O.2   265  ALA265     -0.2864
    136  CB       -12.9420  -24.6270   20.5340 C.3   265  ALA265      0.0319
    137  N        -13.2360  -25.7790   32.1550 N.3   277  TRP277     -0.1241
    138  CA       -14.2180  -24.8970   31.5830 C.3   277  TRP277      0.1605
    139  C        -15.5170  -25.6550   31.2620 C.2   277  TRP277      0.2264
    140  O        -15.5310  -26.5520   30.4250 O.2   277  TRP277     -0.2867
    141  CB       -13.6460  -24.2230   30.3180 C.3   277  TRP277      0.0550
    142  CG       -14.5680  -23.1830   29.6660 C.ar  277  TRP277      0.0003
    143  CD1      -15.2910  -22.1800   30.3060 C.ar  277  TRP277      0.0946
    144  CD2      -14.8410  -23.0270   28.2390 C.ar  277  TRP277      0.0152
    145  NE1      -16.0130  -21.4150   29.3580 N.ar  277  TRP277     -0.2442
    146  CE2      -15.7620  -21.8990   28.0980 C.ar  277  TRP277      0.0810
    147  CE3      -14.4190  -23.7090   27.0800 C.ar  277  TRP277      0.0012
    148  CZ2      -16.2360  -21.4740   26.8610 C.ar  277  TRP277      0.0191
    149  CZ3      -14.9030  -23.2770   25.8270 C.ar  277  TRP277      0.0001
    150  CH2      -15.7980  -22.1760   25.7240 C.ar  277  TRP277      0.0015
@<TRIPOS>BOND
     1    29    28    2
     2    18    19    1
     3    28    27    1
     4    26    27    1
     5    20    19    1
     6    20    21    2
     7    19    22    1
     8    27    30    1
     9   118   119    1
    10   119   120    1
    11   119   122    1
    12   120   121    2
    13    30    31    1
    14    32    31   ar
    15    32    34   ar
    16    13    14    2
    17    13    12    1
    18   124   122    1
    19    22    23    1
    20   122   123    1
    21    31    33   ar
    22    34    36   ar
    23    23    25    1
    24    23    24    1
    25   125   126    1
    26   112   113    2
    27   112   111    1
    28    16    15    1
    29    12    11    1
    30    12    15    1
    31   130   129    1
    32    33    35   ar
    33    36    35   ar
    34    36    37    1
    35    15    17    1
    36   111   110    1
    37   111   114    1
    38   126   129    1
    39   126   127    1
    40   115   114    1
    41   115   117    1
    42   129   131    1
    43   132   127   am
    44   132   133    1
    45   114   116    1
    46   127   128    2
    47   134   133    1
    48   134   135    2
    49   136   133    1
    50    45    47   ar
    51    45    43   ar
    52    47    46   ar
    53    43    42    1
    54    43    44   ar
    55    46    44   ar
    56    42    39    1
    57     7     9   ar
    58     7     6   ar
    59    41    40    2
    60     9    10   ar
    61   109   108    1
    62   108   105    1
    63     6     5    1
    64     6     8   ar
    65     5     2    1
    66    40    39    1
    67    10     8   ar
    68    38    39    1
    69     3     2    1
    70     3     4    2
    71     2     1    1
    72    68    66    1
    73   107   106    2
    74   105   106    1
    75   105   104    1
    76    83    82    1
    77    95    93   ar
    78    95    94   ar
    79    93    91   ar
    80    57    55   ar
    81    57    56   ar
    82    66    67    1
    83    66    65    2
    84    55    53   ar
    85   102   101   ar
    86   103   101   ar
    87   150   149   ar
    88   150   148   ar
    89   149   147   ar
    90    94    92   ar
    91   101   100    1
    92    82    84    1
    93    82    81    1
    94    91    90   ar
    95    56    54   ar
    96    99    98    2
    97    65    64    1
    98    53    54   ar
    99    53    52    1
   100   148   146   ar
   101    81    78    1
   102   147   144   ar
   103    92    90   ar
   104    76    74    1
   105    90    89    1
   106    75    74    1
   107    98    97    1
   108    52    49    1
   109   100    97    1
   110    64    63    1
   111    97    96    1
   112   146   144   ar
   113   146   145   ar
   114    74    73    1
   115    80    79    2
   116   144   142   ar
   117    78    79    1
   118    78    77    1
   119    79    85   am
   120    89    86    1
   121    63    62    1
   122    85    86    1
   123    86    87    1
   124    73    70    1
   125    49    48    1
   126    49    50    1
   127   145   143   ar
   128    51    50    2
   129   142   143   ar
   130   142   141    1
   131    70    71    1
   132    70    69    1
   133    62    59    1
   134   141   138    1
   135   140   139    2
   136    87    88    2
   137    71    72    2
   138    59    58    1
   139    59    60    1
   140   139   138    1
   141   138   137    1
   142    61    60    2
