@<TRIPOS>MOLECULE
tmp/4ketD00.pdb
 195 185 0 0 0
SMALL
GASTEIGER

@<TRIPOS>ATOM
      1  N         17.1800  -35.6500  -91.4600 N.3    22  HIS22      -0.1241
      2  CA        17.4500  -36.2250  -90.1270 C.3    22  HIS22       0.1621
      3  C         18.8280  -36.8190  -90.0510 C.2    22  HIS22       0.2264
      4  O         19.0240  -37.9840  -90.4120 O.2    22  HIS22      -0.2867
      5  CB        16.3960  -37.2870  -89.7740 C.3    22  HIS22       0.0745
      6  CG        16.4370  -37.7550  -88.3240 C.ar   22  HIS22       0.0817
      7  ND1       15.3210  -37.9610  -87.6040 N.ar   22  HIS22      -0.2268
      8  CD2       17.5060  -38.0600  -87.4810 C.ar   22  HIS22       0.1154
      9  CE1       15.6480  -38.3700  -86.3610 C.ar   22  HIS22       0.1986
     10  NE2       16.9850  -38.4420  -86.2830 N.ar   22  HIS22      -0.2212
     11  N         22.7010  -36.4640  -87.4820 N.3    24  HIS24      -0.1241
     12  CA        23.2930  -35.9280  -86.2610 C.3    24  HIS24       0.1621
     13  C         24.7680  -35.6520  -86.4260 C.2    24  HIS24       0.2264
     14  O         25.5490  -36.5540  -86.7520 O.2    24  HIS24      -0.2867
     15  CB        23.0700  -36.9070  -85.1080 C.3    24  HIS24       0.0745
     16  CG        21.6100  -37.2060  -84.8230 C.ar   24  HIS24       0.0817
     17  ND1       20.8620  -36.4520  -83.9850 N.ar   24  HIS24      -0.2268
     18  CD2       20.7690  -38.2230  -85.2950 C.ar   24  HIS24       0.1154
     19  CE1       19.6090  -36.9660  -83.9150 C.ar   24  HIS24       0.1986
     20  NE2       19.5530  -38.0490  -84.7190 N.ar   24  HIS24      -0.2212
     21  N         26.1400  -37.0240  -81.1130 N.3    27  VAL27      -0.1245
     22  CA        25.2120  -37.4120  -80.0640 C.3    27  VAL27       0.1561
     23  C         25.9730  -37.8580  -78.8190 C.2    27  VAL27       0.2260
     24  O         26.9460  -38.6000  -78.9210 O.2    27  VAL27      -0.2867
     25  CB        24.2760  -38.5460  -80.5340 C.3    27  VAL27       0.0252
     26  CG1       23.5250  -39.1400  -79.3590 C.3    27  VAL27       0.0019
     27  CG2       23.2860  -38.0240  -81.5730 C.3    27  VAL27       0.0019
     28  N         20.0960  -35.8190  -76.1420 N.3    72  LEU72      -0.1245
     29  CA        20.9930  -36.2950  -77.1960 C.3    72  LEU72       0.1561
     30  C         22.2720  -35.4770  -77.2830 C.2    72  LEU72       0.2260
     31  O         23.1340  -35.7490  -78.1230 O.2    72  LEU72      -0.2867
     32  CB        20.2860  -36.2540  -78.5600 C.3    72  LEU72       0.0270
     33  CG        19.1190  -37.2180  -78.7490 C.3    72  LEU72       0.0019
     34  CD1       18.4790  -37.0100  -80.1200 C.3    72  LEU72       0.0001
     35  CD2       19.5990  -38.6510  -78.5650 C.3    72  LEU72       0.0001
     36  N         14.1490  -35.3370  -75.8230 N.3    97  TYR97      -0.1241
     37  CA        14.2080  -36.7190  -76.2550 C.3    97  TYR97       0.1605
     38  C         14.2760  -37.6090  -75.0120 C.2    97  TYR97       0.2264
     39  O         15.3150  -37.6710  -74.3370 O.2    97  TYR97      -0.2867
     40  CB        15.4360  -36.8960  -77.1400 C.3    97  TYR97       0.0534
     41  CG        15.6430  -38.2670  -77.7430 C.ar   97  TYR97      -0.0201
     42  CD1       16.1190  -39.3170  -76.9740 C.ar   97  TYR97      -0.0009
     43  CD2       15.4160  -38.4920  -79.0960 C.ar   97  TYR97      -0.0009
     44  CE1       16.3410  -40.5610  -77.5310 C.ar   97  TYR97       0.0417
     45  CE2       15.6330  -39.7320  -79.6610 C.ar   97  TYR97       0.0417
     46  CZ        16.0980  -40.7610  -78.8740 C.ar   97  TYR97       0.1957
     47  OH        16.3210  -42.0010  -79.4200 O.3    97  TYR97      -0.2866
     48  N         12.4540  -41.5640  -73.3410 N.3    99  TYR99      -0.1241
     49  CA        11.6690  -42.7790  -73.5990 C.3    99  TYR99       0.1605
     50  C         10.6990  -43.0750  -72.4660 C.2    99  TYR99       0.2264
     51  O          9.6650  -43.7030  -72.6870 O.2    99  TYR99      -0.2867
     52  CB        12.5600  -44.0120  -73.7840 C.3    99  TYR99       0.0534
     53  CG        13.3780  -44.0540  -75.0490 C.ar   99  TYR99      -0.0201
     54  CD1       13.2850  -43.0480  -76.0070 C.ar   99  TYR99      -0.0009
     55  CD2       14.2230  -45.1320  -75.3060 C.ar   99  TYR99      -0.0009
     56  CE1       14.0360  -43.1050  -77.1720 C.ar   99  TYR99       0.0417
     57  CE2       14.9730  -45.2000  -76.4640 C.ar   99  TYR99       0.0417
     58  CZ        14.8790  -44.1850  -77.3910 C.ar   99  TYR99       0.1957
     59  OH        15.6290  -44.2600  -78.5430 O.3    99  TYR99      -0.2866
     60  N         10.7440  -39.0090  -83.1420 N.3   169  HIS169     -0.1241
     61  CA        11.3650  -40.3100  -83.0570 C.3   169  HIS169      0.1621
     62  C         10.2660  -41.2310  -82.6220 C.2   169  HIS169      0.2264
     63  O          9.5740  -40.9490  -81.6560 O.2   169  HIS169     -0.2867
     64  CB        12.4450  -40.2610  -81.9840 C.3   169  HIS169      0.0745
     65  CG        13.0860  -41.5920  -81.6850 C.ar  169  HIS169      0.0817
     66  ND1       14.3100  -41.9310  -82.1560 N.ar  169  HIS169     -0.2268
     67  CD2       12.6450  -42.6650  -80.9080 C.ar  169  HIS169      0.1154
     68  CE1       14.6240  -43.1690  -81.7090 C.ar  169  HIS169      0.1986
     69  NE2       13.6050  -43.6110  -80.9430 N.ar  169  HIS169     -0.2212
     70  N         11.2660  -42.7630  -88.2130 N.3   198  HIS198     -0.1241
     71  CA        11.7600  -44.1300  -88.0620 C.3   198  HIS198      0.1621
     72  C         10.7770  -45.1710  -88.5480 C.2   198  HIS198      0.2264
     73  O         10.8680  -46.3460  -88.1850 O.2   198  HIS198     -0.2867
     74  CB        12.2040  -44.3900  -86.6180 C.3   198  HIS198      0.0745
     75  CG        13.1930  -43.3610  -86.0800 C.ar  198  HIS198      0.0817
     76  ND1       14.0660  -42.7100  -86.8730 N.ar  198  HIS198     -0.2268
     77  CD2       13.4300  -42.9050  -84.7770 C.ar  198  HIS198      0.1154
     78  CE1       14.8130  -41.8630  -86.1240 C.ar  198  HIS198      0.1986
     79  NE2       14.4240  -41.9860  -84.8370 N.ar  198  HIS198     -0.2212
     80  N         16.4260  -44.0790  -91.5650 N.3   222  ARG222     -0.1245
     81  CA        17.5450  -44.7440  -90.8920 C.3   222  ARG222      0.1563
     82  C         18.3370  -45.6360  -91.8380 C.2   222  ARG222      0.2260
     83  O         18.7960  -46.7180  -91.4640 O.2   222  ARG222     -0.2867
     84  CB        17.0610  -45.5200  -89.6580 C.3   222  ARG222      0.0307
     85  CG        16.9130  -44.6420  -88.4250 C.3   222  ARG222      0.0489
     86  CD        16.2380  -45.3750  -87.2760 C.3   222  ARG222      0.2205
     87  NE        16.5990  -44.7750  -85.9990 N.pl3 222  ARG222     -0.0865
     88  CZ        16.1640  -45.2010  -84.8200 C.cat 222  ARG222      0.5346
     89  NH1       15.3360  -46.2350  -84.7500 N.pl3 222  ARG222      0.1354
     90  NH2       16.5580  -44.5880  -83.7100 N.pl3 222  ARG222      0.1354
     91  N         21.1690  -48.4310  -91.0010 N.3   225  LEU225     -0.1245
     92  CA        21.0110  -49.0690  -89.6980 C.3   225  LEU225      0.1561
     93  C         20.3260  -50.4310  -89.8320 C.2   225  LEU225      0.2260
     94  O         19.1560  -50.6000  -89.4890 O.2   225  LEU225     -0.2867
     95  CB        20.2880  -48.1380  -88.7190 C.3   225  LEU225      0.0270
     96  CG        21.1850  -46.9810  -88.2430 C.3   225  LEU225      0.0019
     97  CD1       20.3920  -45.8210  -87.6530 C.3   225  LEU225      0.0001
     98  CD2       22.2150  -47.4850  -87.2440 C.3   225  LEU225      0.0001
     99  N         20.4100  -53.1460  -88.2380 N.3   227  LEU227     -0.1231
    100  CA        19.8580  -53.7680  -87.0340 C.3   227  LEU227      0.1693
    101  C         18.3770  -53.4200  -86.8530 C.2   227  LEU227      0.2592
    102  O         17.6410  -54.1460  -86.1900 O.2   227  LEU227     -0.2718
    103  CB        20.6660  -53.3920  -85.7810 C.3   227  LEU227      0.0284
    104  CG        20.5520  -51.9690  -85.2210 C.3   227  LEU227      0.0019
    105  CD1       21.1780  -51.8700  -83.8360 C.3   227  LEU227      0.0001
    106  CD2       21.1650  -50.9410  -86.1630 C.3   227  LEU227      0.0001
    107  N         17.9410  -52.3100  -87.4420 N.am  228  PHE228     -0.1976
    108  CA        16.5170  -51.9700  -87.4370 C.3   228  PHE228      0.1639
    109  C         15.8230  -52.5600  -88.6620 C.2   228  PHE228      0.2290
    110  O         14.7660  -53.1800  -88.5500 O.2   228  PHE228     -0.2864
    111  CB        16.3160  -50.4540  -87.3560 C.3   228  PHE228      0.0560
    112  CG        16.8950  -49.8380  -86.1110 C.ar  228  PHE228     -0.0200
    113  CD1       16.6290  -50.3870  -84.8640 C.ar  228  PHE228     -0.0042
    114  CD2       17.7050  -48.7160  -86.1840 C.ar  228  PHE228     -0.0042
    115  CE1       17.1570  -49.8270  -83.7130 C.ar  228  PHE228     -0.0003
    116  CE2       18.2330  -48.1510  -85.0380 C.ar  228  PHE228     -0.0003
    117  CZ        17.9630  -48.7070  -83.8010 C.ar  228  PHE228     -0.0000
    118  N         19.8310  -40.8340  -90.3640 N.3   255  ASP255     -0.1239
    119  CA        19.9520  -40.6890  -88.8990 C.3   255  ASP255      0.1674
    120  C         21.4030  -40.9770  -88.5210 C.2   255  ASP255      0.2266
    121  O         21.6870  -41.5620  -87.4760 O.2   255  ASP255     -0.2867
    122  CB        19.0040  -41.6610  -88.1820 C.3   255  ASP255      0.1410
    123  CG        18.7510  -41.3150  -86.6860 C.2   255  ASP255      0.3668
    124  OD1       18.8820  -40.1440  -86.1910 O.co2 255  ASP255     -0.2456
    125  OD2       18.3430  -42.2780  -85.9970 O.co2 255  ASP255     -0.2456
    126  N         25.0550  -40.6830  -87.1180 N.3   257  CYS257     -0.1235
    127  CA        25.7100  -39.9560  -86.0360 C.3   257  CYS257      0.1677
    128  C         27.2000  -39.9270  -86.3050 C.2   257  CYS257      0.2270
    129  O         27.8710  -40.9490  -86.2060 O.2   257  CYS257     -0.2867
    130  CB        25.4190  -40.6080  -84.6850 C.3   257  CYS257      0.0956
    131  SG        23.6550  -40.7460  -84.3260 S.3   257  CYS257     -0.0801
    132  N         28.7420  -41.0080  -81.9600 N.3   260  ILE260     -0.1245
    133  CA        27.7510  -41.3140  -80.9250 C.3   260  ILE260      0.1561
    134  C         28.4430  -42.1000  -79.8140 C.2   260  ILE260      0.2260
    135  O         29.3780  -42.8680  -80.0830 O.2   260  ILE260     -0.2867
    136  CB        26.5170  -42.0590  -81.4900 C.3   260  ILE260      0.0252
    137  CG1       25.5220  -42.3930  -80.3690 C.3   260  ILE260      0.0019
    138  CG2       26.9310  -43.3070  -82.2600 C.3   260  ILE260      0.0019
    139  CD1       24.1180  -42.6820  -80.8710 C.3   260  ILE260      0.0001
    140  N         27.1800  -44.2480  -77.3530 N.3   262  ILE262     -0.1245
    141  CA        26.6130  -45.4610  -76.7640 C.3   262  ILE262      0.1561
    142  C         27.4770  -46.6850  -77.0670 C.2   262  ILE262      0.2260
    143  O         28.1690  -46.7320  -78.0840 O.2   262  ILE262     -0.2867
    144  CB        25.1530  -45.6920  -77.2040 C.3   262  ILE262      0.0252
    145  CG1       25.0920  -46.1640  -78.6580 C.3   262  ILE262      0.0019
    146  CG2       24.3310  -44.4210  -77.0090 C.3   262  ILE262      0.0019
    147  CD1       23.6870  -46.4440  -79.1440 C.3   262  ILE262      0.0001
    148  N         26.6750  -49.5410  -77.9960 N.3   264  THR264     -0.1203
    149  CA        26.2020  -50.2690  -79.1680 C.3   264  THR264      0.1994
    150  C         26.9560  -49.8230  -80.4210 C.2   264  THR264      0.2617
    151  O         27.0470  -50.5700  -81.4000 O.2   264  THR264     -0.2717
    152  CB        24.6900  -50.0560  -79.3880 C.3   264  THR264      0.1784
    153  OG1       23.9960  -50.2080  -78.1410 O.3   264  THR264     -0.2211
    154  CG2       24.1420  -51.0580  -80.4000 C.3   264  THR264      0.0376
    155  N         27.4990  -48.6070  -80.3810 N.am  265  ALA265     -0.1979
    156  CA        28.2180  -48.0510  -81.5280 C.3   265  ALA265      0.1597
    157  C         29.7250  -48.3080  -81.4960 C.2   265  ALA265      0.2287
    158  O         30.4710  -47.7330  -82.2900 O.2   265  ALA265     -0.2864
    159  CB        27.9330  -46.5610  -81.6700 C.3   265  ALA265      0.0319
    160  N         30.0370  -52.6990  -85.7660 N.3   270  LYS270     -0.1245
    161  CA        29.6270  -52.0550  -87.0140 C.3   270  LYS270      0.1561
    162  C         29.3600  -53.0350  -88.1600 C.2   270  LYS270      0.2260
    163  O         28.3720  -52.8880  -88.8850 O.2   270  LYS270     -0.2867
    164  CB        30.6420  -50.9880  -87.4400 C.3   270  LYS270      0.0271
    165  CG        30.1640  -50.1050  -88.5840 C.3   270  LYS270      0.0035
    166  CD        31.1480  -48.9800  -88.8780 C.3   270  LYS270      0.0206
    167  CE        30.8500  -48.3120  -90.2140 C.3   270  LYS270      0.1093
    168  NZ        29.4910  -47.6980  -90.2590 N.3   270  LYS270     -0.1314
    169  N         25.9010  -54.6890  -87.3990 N.3   273  LEU273     -0.1231
    170  CA        24.7760  -53.8030  -87.0770 C.3   273  LEU273      0.1693
    171  C         24.5210  -52.6830  -88.0930 C.2   273  LEU273      0.2591
    172  O         23.3700  -52.3230  -88.3520 O.2   273  LEU273     -0.2718
    173  CB        24.9460  -53.2080  -85.6720 C.3   273  LEU273      0.0284
    174  CG        25.0390  -54.1790  -84.4920 C.3   273  LEU273      0.0019
    175  CD1       24.8320  -53.4200  -83.1870 C.3   273  LEU273      0.0001
    176  CD2       24.0410  -55.3220  -84.6210 C.3   273  LEU273      0.0001
    177  N         25.5920  -52.1230  -88.6480 N.am  274  ALA274     -0.1980
    178  CA        25.4770  -50.9650  -89.5320 C.3   274  ALA274      0.1597
    179  C         26.7110  -50.8120  -90.4280 C.2   274  ALA274      0.2287
    180  O         27.3760  -49.7720  -90.4120 O.2   274  ALA274     -0.2864
    181  CB        25.2560  -49.7060  -88.7050 C.3   274  ALA274      0.0319
    182  N         26.6220  -47.7940  -93.0040 N.3   277  TRP277     -0.1241
    183  CA        26.0130  -46.6050  -92.4190 C.3   277  TRP277      0.1605
    184  C         26.9500  -45.4280  -92.4350 C.2   277  TRP277      0.2264
    185  O         28.0270  -45.4760  -91.8460 O.2   277  TRP277     -0.2867
    186  CB        25.5940  -46.9480  -90.9900 C.3   277  TRP277      0.0550
    187  CG        24.7540  -45.9320  -90.2530 C.ar  277  TRP277      0.0003
    188  CD1       23.6650  -45.2040  -90.7300 C.ar  277  TRP277      0.0946
    189  CD2       24.8790  -45.5490  -88.8390 C.ar  277  TRP277      0.0152
    190  NE1       23.1420  -44.4030  -89.7440 N.ar  277  TRP277     -0.2442
    191  CE2       23.8230  -44.5660  -88.5830 C.ar  277  TRP277      0.0810
    192  CE3       25.7350  -45.9050  -87.8030 C.ar  277  TRP277      0.0012
    193  CZ2       23.6550  -43.9780  -87.3420 C.ar  277  TRP277      0.0191
    194  CZ3       25.5570  -45.3020  -86.5550 C.ar  277  TRP277      0.0001
    195  CH2       24.5410  -44.3600  -86.3330 C.ar  277  TRP277      0.0015
@<TRIPOS>BOND
     1   182   183    1
     2   184   183    1
     3   184   185    2
     4   183   186    1
     5    82    83    2
     6    82    81    1
     7    80    81    1
     8     1     2    1
     9    91    92    1
    10   186   187    1
    11    81    84    1
    12   188   187   ar
    13   188   190   ar
    14   179   180    2
    15   179   178    1
    16     4     3    2
    17   118   119    1
    18   168   167    1
    19   187   189   ar
    20   167   166    1
    21     2     3    1
    22     2     5    1
    23    93    92    1
    24    93    94    2
    25     5     6    1
    26   190   191   ar
    27    92    95    1
    28    84    85    1
    29   178   181    1
    30   178   177    1
    31   119   120    1
    32   119   122    1
    33   163   162    2
    34   166   165    1
    35   189   191   ar
    36   189   192   ar
    37    95    96    1
    38   109   110    2
    39   109   108    1
    40   177   171   am
    41   165   164    1
    42   191   193   ar
    43    72    73    2
    44    72    71    1
    45   120   121    2
    46    85    86    1
    47   172   171    2
    48     6     7   ar
    49     6     8   ar
    50    96    97    1
    51    96    98    1
    52    99   100    1
    53    70    71    1
    54   122   123    1
    55   162   161    1
    56   171   170    1
    57    71    74    1
    58   192   194   ar
    59     7     9   ar
    60    11    12    1
    61     8    10   ar
    62   107   108    1
    63   107   101   am
    64   164   161    1
    65   108   111    1
    66   169   170    1
    67   111   112    1
    68   193   195   ar
    69    86    87    1
    70   126   127    1
    71   170   173    1
    72   100   101    1
    73   100   103    1
    74   161   160    1
    75    76    78   ar
    76    76    75   ar
    77   101   102    2
    78    14    13    2
    79   123   124   ar
    80   123   125   ar
    81    74    75    1
    82   194   195   ar
    83    13    12    1
    84     9    10   ar
    85   128   129    2
    86   128   127    1
    87    12    15    1
    88   114   112   ar
    89   114   116   ar
    90   106   104    1
    91    78    79   ar
    92   112   113   ar
    93    75    77   ar
    94   127   130    1
    95    87    88    2
    96   103   104    1
    97   173   174    1
    98    18    16   ar
    99    18    20   ar
   100   104   105    1
   101    15    16    1
   102   116   117   ar
   103   113   115   ar
   104    79    77   ar
   105    16    17   ar
   106    88    89    1
   107    88    90    1
   108    20    19   ar
   109   130   131    1
   110   176   174    1
   111   174   175    1
   112    17    19   ar
   113   117   115   ar
   114    60    61    1
   115    61    62    1
   116    61    64    1
   117    62    63    2
   118   158   157    2
   119   138   136    1
   120    66    68   ar
   121    66    65   ar
   122    64    65    1
   123   132   133    1
   124    68    69   ar
   125    65    67   ar
   126   159   156    1
   127    27    25    1
   128   156   157    1
   129   156   155    1
   130   136   133    1
   131   136   137    1
   132   151   150    2
   133    21    22    1
   134    69    67   ar
   135   133   134    1
   136   139   137    1
   137    25    22    1
   138    25    26    1
   139   150   155   am
   140   150   149    1
   141   154   152    1
   142    34    33    1
   143   135   134    2
   144    22    23    1
   145    45    43   ar
   146    45    46   ar
   147    47    46    1
   148   152   149    1
   149   152   153    1
   150   149   148    1
   151   147   145    1
   152    43    41   ar
   153    24    23    2
   154    46    44   ar
   155    33    35    1
   156    33    32    1
   157   145   144    1
   158    32    29    1
   159    59    58    1
   160    31    30    2
   161   143   142    2
   162    41    40    1
   163    41    42   ar
   164    44    42   ar
   165    58    56   ar
   166    58    57   ar
   167   140   141    1
   168    30    29    1
   169   144   146    1
   170   144   141    1
   171    29    28    1
   172    56    54   ar
   173    40    37    1
   174   142   141    1
   175    57    55   ar
   176    37    36    1
   177    37    38    1
   178    54    53   ar
   179    55    53   ar
   180    53    52    1
   181    38    39    2
   182    52    49    1
   183    49    48    1
   184    49    50    1
   185    51    50    2
