@<TRIPOS>MOLECULE
tmp/4kewB01.pdb
 198 184 0 0 0
SMALL
GASTEIGER

@<TRIPOS>ATOM
      1  N         26.5500  -33.9810   -0.0930 N.3    13  LEU13      -0.1245
      2  CA        26.8760  -33.2070   -1.3220 C.3    13  LEU13       0.1561
      3  C         26.6580  -34.0600   -2.5880 C.2    13  LEU13       0.2260
      4  O         27.3240  -33.8520   -3.6070 O.2    13  LEU13      -0.2867
      5  CB        28.3680  -32.7920   -1.3710 C.3    13  LEU13       0.0270
      6  CG        29.1270  -31.7240   -0.5670 C.3    13  LEU13       0.0019
      7  CD1       30.6120  -31.7740   -1.0090 C.3    13  LEU13       0.0001
      8  CD2       28.5620  -30.2880   -0.6840 C.3    13  LEU13       0.0001
      9  N         24.9880  -28.4210   -4.7080 N.3    18  PRO18      -0.2102
     10  CA        25.6290  -28.5560   -3.4180 C.3    18  PRO18       0.1504
     11  C         25.5220  -27.3160   -2.5530 C.2    18  PRO18       0.2575
     12  O         25.3190  -27.4450   -1.3450 O.2    18  PRO18      -0.2718
     13  CB        27.0870  -28.8710   -3.7740 C.3    18  PRO18       0.0282
     14  CG        27.2830  -28.4530   -5.1450 C.3    18  PRO18       0.0208
     15  CD        25.9500  -28.5280   -5.8150 C.3    18  PRO18       0.0893
     16  N         25.6450  -26.1180   -3.1530 N.am   19  VAL19      -0.1980
     17  CA        25.6200  -24.8780   -2.3860 C.3    19  VAL19       0.1595
     18  C         24.2150  -24.6960   -1.8410 C.2    19  VAL19       0.2287
     19  O         24.0290  -24.4180   -0.6440 O.2    19  VAL19      -0.2864
     20  CB        26.0840  -23.6420   -3.2020 C.3    19  VAL19       0.0276
     21  CG1       25.8280  -22.3890   -2.4370 C.3    19  VAL19       0.0022
     22  CG2       27.5620  -23.7770   -3.5430 C.3    19  VAL19       0.0022
     23  N         23.8790  -26.9470    0.9930 N.3    22  LEU22      -0.1245
     24  CA        24.5720  -26.4170    2.1480 C.3    22  LEU22       0.1561
     25  C         23.8180  -25.3260    2.8640 C.2    22  LEU22       0.2260
     26  O         23.8520  -25.2330    4.1240 O.2    22  LEU22      -0.2867
     27  CB        25.9980  -25.9760    1.7970 C.3    22  LEU22       0.0270
     28  CG        27.0250  -27.0910    1.5370 C.3    22  LEU22       0.0019
     29  CD1       28.1330  -26.6090    0.6050 C.3    22  LEU22       0.0001
     30  CD2       27.6030  -27.5840    2.8710 C.3    22  LEU22       0.0001
     31  N         31.7590  -24.4480    7.9430 N.3    44  TYR44      -0.1241
     32  CA        30.8780  -23.4960    7.2110 C.3    44  TYR44       0.1605
     33  C         30.2700  -22.4430    8.1670 C.2    44  TYR44       0.2264
     34  O         29.5690  -22.7850    9.1340 O.2    44  TYR44      -0.2867
     35  CB        29.7870  -24.2340    6.4340 C.3    44  TYR44       0.0534
     36  CG        30.3000  -24.8920    5.1380 C.ar   44  TYR44      -0.0201
     37  CD1       30.1120  -24.2820    3.8940 C.ar   44  TYR44      -0.0009
     38  CD2       30.9860  -26.1070    5.1700 C.ar   44  TYR44      -0.0009
     39  CE1       30.5930  -24.8610    2.7080 C.ar   44  TYR44       0.0417
     40  CE2       31.5040  -26.6930    3.9830 C.ar   44  TYR44       0.0417
     41  CZ        31.2980  -26.0690    2.7630 C.ar   44  TYR44       0.1957
     42  OH        31.8040  -26.6140    1.6000 O.3    44  TYR44      -0.2866
     43  N         40.2200  -23.7150   -1.1730 N.3    65  SER65      -0.1217
     44  CA        39.2470  -24.7770   -0.8590 C.3    65  SER65       0.1889
     45  C         39.5420  -25.9100   -1.7950 C.2    65  SER65       0.2288
     46  O         40.3280  -25.7520   -2.7010 O.2    65  SER65      -0.2866
     47  CB        37.7790  -24.3000   -1.0650 C.3    65  SER65       0.2089
     48  OG        37.5900  -23.8610   -2.4160 O.3    65  SER65      -0.2183
     49  N         37.5940  -27.0420   -4.0640 N.3    67  ALA67      -0.1231
     50  CA        37.1510  -26.5700   -5.3670 C.3    67  ALA67       0.1694
     51  C         38.1870  -25.7290   -6.0750 C.2    67  ALA67       0.2591
     52  O         38.4120  -25.9220   -7.3010 O.2    67  ALA67      -0.2718
     53  CB        35.8560  -25.7820   -5.2420 C.3    67  ALA67       0.0304
     54  N         38.8140  -24.7840   -5.3630 N.am   68  LEU68      -0.1980
     55  CA        39.9030  -23.9720   -5.9730 C.3    68  LEU68       0.1596
     56  C         41.1370  -24.7970   -6.3950 C.2    68  LEU68       0.2287
     57  O         41.6780  -24.6140   -7.4810 O.2    68  LEU68      -0.2864
     58  CB        40.3370  -22.8230   -5.0520 C.3    68  LEU68       0.0297
     59  CG        39.3080  -21.6780   -4.8570 C.3    68  LEU68       0.0022
     60  CD1       39.8820  -20.3450   -4.2860 C.3    68  LEU68       0.0001
     61  CD2       38.5780  -21.4140   -6.1450 C.3    68  LEU68       0.0001
     62  N         40.3740  -26.4120   -9.6470 N.3    71  VAL71      -0.1245
     63  CA        40.4250  -25.3630  -10.6640 C.3    71  VAL71       0.1561
     64  C         41.8430  -24.8270  -10.9120 C.2    71  VAL71       0.2260
     65  O         42.1650  -24.3880  -12.0120 O.2    71  VAL71      -0.2867
     66  CB        39.4030  -24.2560  -10.2950 C.3    71  VAL71       0.0252
     67  CG1       39.8870  -22.8890  -10.7350 C.3    71  VAL71       0.0019
     68  CG2       38.0460  -24.6210  -10.9490 C.3    71  VAL71       0.0019
     69  N         44.0290  -22.8940  -13.7680 N.3    75  PHE75      -0.1241
     70  CA        44.2000  -21.4810  -13.3950 C.3    75  PHE75       0.1605
     71  C         45.6080  -21.2440  -12.8420 C.2    75  PHE75       0.2264
     72  O         46.0210  -20.0960  -12.7080 O.2    75  PHE75      -0.2867
     73  CB        43.1900  -21.0630  -12.3260 C.3    75  PHE75       0.0534
     74  CG        41.8260  -20.5740  -12.8570 C.ar   75  PHE75      -0.0203
     75  CD1       41.3850  -20.8270  -14.1360 C.ar   75  PHE75      -0.0042
     76  CD2       41.0140  -19.8340  -12.0410 C.ar   75  PHE75      -0.0042
     77  CE1       40.1390  -20.3520  -14.5750 C.ar   75  PHE75      -0.0003
     78  CE2       39.7680  -19.3940  -12.4720 C.ar   75  PHE75      -0.0003
     79  CZ        39.3420  -19.6700  -13.7540 C.ar   75  PHE75      -0.0000
     80  N         43.7020  -15.6220   -9.0290 N.3    80  PHE80      -0.1241
     81  CA        42.5950  -16.2340   -8.3090 C.3    80  PHE80       0.1605
     82  C         42.8900  -17.5220   -7.5080 C.2    80  PHE80       0.2264
     83  O         42.2720  -17.7540   -6.4630 O.2    80  PHE80      -0.2867
     84  CB        41.4760  -16.5340   -9.3090 C.3    80  PHE80       0.0534
     85  CG        40.1600  -16.6400   -8.6740 C.ar   80  PHE80      -0.0203
     86  CD1       39.2400  -15.6160   -8.7800 C.ar   80  PHE80      -0.0042
     87  CD2       39.8670  -17.7290   -7.8980 C.ar   80  PHE80      -0.0042
     88  CE1       38.0210  -15.6990   -8.1620 C.ar   80  PHE80      -0.0003
     89  CE2       38.6470  -17.8320   -7.2740 C.ar   80  PHE80      -0.0003
     90  CZ        37.7250  -16.8090   -7.4040 C.ar   80  PHE80      -0.0000
     91  N         34.3570  -26.5310  -15.4430 N.3   174  LEU174     -0.1245
     92  CA        33.7600  -26.1140  -14.1740 C.3   174  LEU174      0.1561
     93  C         32.8250  -27.1830  -13.5940 C.2   174  LEU174      0.2260
     94  O         32.8420  -27.4080  -12.3730 O.2   174  LEU174     -0.2867
     95  CB        33.0510  -24.7340  -14.2710 C.3   174  LEU174      0.0270
     96  CG        33.8910  -23.4630  -14.4090 C.3   174  LEU174      0.0019
     97  CD1       32.9700  -22.3500  -14.6270 C.3   174  LEU174      0.0001
     98  CD2       34.7230  -23.1380  -13.1930 C.3   174  LEU174      0.0001
     99  N         33.5380  -29.2470   -9.9440 N.3   178  MET178     -0.1245
    100  CA        32.4570  -29.3270   -8.9670 C.3   178  MET178      0.1570
    101  C         32.1720  -30.8220   -8.6890 C.2   178  MET178      0.2261
    102  O         32.1730  -31.2780   -7.5430 O.2   178  MET178     -0.2867
    103  CB        31.1850  -28.6270   -9.4640 C.3   178  MET178      0.0387
    104  CG        30.1010  -28.5700   -8.4000 C.3   178  MET178      0.0595
    105  SD        28.5220  -27.8270   -8.9210 S.3   178  MET178     -0.1393
    106  CE        27.7200  -29.2310   -9.7490 C.3   178  MET178      0.0692
    107  N         34.2960  -32.9000   -6.3020 N.3   181  LEU181     -0.1245
    108  CA        34.1390  -32.6160   -4.8620 C.3   181  LEU181      0.1561
    109  C         33.4590  -33.7480   -4.0620 C.2   181  LEU181      0.2260
    110  O         33.5940  -33.8090   -2.8370 O.2   181  LEU181     -0.2867
    111  CB        33.3820  -31.3040   -4.6440 C.3   181  LEU181      0.0270
    112  CG        34.0650  -30.0340   -5.1670 C.3   181  LEU181      0.0019
    113  CD1       33.2670  -28.7730   -4.8190 C.3   181  LEU181      0.0001
    114  CD2       35.4680  -29.9320   -4.6310 C.3   181  LEU181      0.0001
    115  N         37.7250  -16.1990  -17.6710 N.3   251  ILE251     -0.1231
    116  CA        36.6360  -16.9000  -16.9600 C.3   251  ILE251      0.1692
    117  C         36.1020  -16.0440  -15.7990 C.2   251  ILE251      0.2591
    118  O         34.9130  -15.7180  -15.7690 O.2   251  ILE251     -0.2718
    119  CB        37.1130  -18.2840  -16.4680 C.3   251  ILE251      0.0266
    120  CG1       37.5920  -19.1210  -17.6640 C.3   251  ILE251      0.0019
    121  CG2       35.9990  -18.9950  -15.6470 C.3   251  ILE251      0.0020
    122  CD1       38.0880  -20.4460  -17.2920 C.3   251  ILE251      0.0001
    123  N         36.9660  -15.6650  -14.8550 N.am  252  ALA252     -0.1980
    124  CA        36.5410  -14.8290  -13.7270 C.3   252  ALA252      0.1597
    125  C         35.9580  -13.5010  -14.2100 C.2   252  ALA252      0.2287
    126  O         35.0550  -12.9050  -13.6020 O.2   252  ALA252     -0.2864
    127  CB        37.7110  -14.5810  -12.6980 C.3   252  ALA252      0.0319
    128  N         32.0390  -14.9360  -16.2000 N.3   255  GLU255     -0.1231
    129  CA        31.0660  -15.9100  -15.8470 C.3   255  GLU255      0.1699
    130  C         30.1000  -15.3610  -14.7760 C.2   255  GLU255      0.2592
    131  O         28.9100  -15.3620  -14.9880 O.2   255  GLU255     -0.2718
    132  CB        31.7650  -17.2070  -15.4500 C.3   255  GLU255      0.0402
    133  CG        30.9500  -18.1730  -14.5190 C.3   255  GLU255      0.1161
    134  CD        29.6590  -18.6660  -15.1380 C.2   255  GLU255      0.3649
    135  OE1       29.5860  -18.6650  -16.3610 O.co2 255  GLU255     -0.2457
    136  OE2       28.7030  -19.0250  -14.3730 O.co2 255  GLU255     -0.2457
    137  N         30.6330  -14.8690  -13.6540 N.am  256  THR256     -0.1953
    138  CA        29.8570  -14.3190  -12.5570 C.3   256  THR256      0.1897
    139  C         29.0510  -13.0660  -12.9270 C.2   256  THR256      0.2313
    140  O         27.9950  -12.8060  -12.3550 O.2   256  THR256     -0.2863
    141  CB        30.7640  -13.9880  -11.3980 C.3   256  THR256      0.1794
    142  OG1       31.9540  -13.3400  -11.8720 O.3   256  THR256     -0.2208
    143  CG2       31.1500  -15.2640  -10.6410 C.3   256  THR256      0.0378
    144  N         29.4820  -15.9940   -7.0460 N.3   316  ALA316     -0.1231
    145  CA        30.5860  -16.7500   -6.6110 C.3   316  ALA316      0.1679
    146  C         30.2350  -17.0210   -5.1300 C.2   316  ALA316      0.2434
    147  O         30.6060  -16.2270   -4.2960 O.2   316  ALA316     -0.2733
    148  CB        31.9130  -15.8670   -6.7730 C.3   316  ALA316      0.0304
    149  N         29.4780  -18.1160   -4.7950 N.am  317  PRO317     -0.2718
    150  CA        28.7840  -18.1050   -3.4890 C.3   317  PRO317      0.1535
    151  C         29.5610  -18.5420   -2.2230 C.2   317  PRO317      0.2598
    152  O         28.9910  -18.5870   -1.1490 O.2   317  PRO317     -0.2715
    153  CB        27.5920  -18.9870   -3.7180 C.3   317  PRO317      0.0310
    154  CG        28.1030  -20.0550   -4.7680 C.3   317  PRO317      0.0237
    155  CD        29.1890  -19.3260   -5.5890 C.3   317  PRO317      0.0939
    156  N         30.8450  -18.8040   -2.3520 N.am  318  ALA318     -0.1978
    157  CA        31.6590  -19.1640   -1.2160 C.3   318  ALA318      0.1597
    158  C         33.0750  -18.6980   -1.4460 C.2   318  ALA318      0.2287
    159  O         33.5150  -18.5840   -2.6180 O.2   318  ALA318     -0.2864
    160  CB        31.6310  -20.6710   -1.0200 C.3   318  ALA318      0.0319
    161  N         34.8780  -21.9400    5.6030 N.3   342  MET342     -0.1245
    162  CA        34.2050  -21.5190    4.3500 C.3   342  MET342      0.1570
    163  C         33.1650  -20.5000    4.6970 C.2   342  MET342      0.2261
    164  O         32.3780  -20.7240    5.6210 O.2   342  MET342     -0.2867
    165  CB        33.4410  -22.6710    3.6820 C.3   342  MET342      0.0387
    166  CG        34.3270  -23.7940    3.1450 C.3   342  MET342      0.0595
    167  SD        35.3460  -23.3820    1.6800 S.3   342  MET342     -0.1393
    168  CE        34.0750  -22.7440    0.6160 C.3   342  MET342      0.0692
    169  N         37.8870   -9.3060   -4.8670 N.3   388  CYS388     -0.1235
    170  CA        37.8030   -9.2130   -6.3570 C.3   388  CYS388      0.1677
    171  C         38.5040   -7.9950   -6.9470 C.2   388  CYS388      0.2270
    172  O         38.1650   -6.8300   -6.6580 O.2   388  CYS388     -0.2867
    173  CB        36.3500   -9.1830   -6.7610 C.3   388  CYS388      0.0956
    174  SG        36.0350   -9.2140   -8.5350 S.3   388  CYS388     -0.0801
    175  N         24.3820  -24.8630  -10.7680 N.3   423  GLU423     -0.1245
    176  CA        25.6310  -24.6530  -10.1010 C.3   423  GLU423      0.1567
    177  C         26.8000  -25.2200  -10.9120 C.2   423  GLU423      0.2260
    178  O         26.7200  -26.3580  -11.3930 O.2   423  GLU423     -0.2867
    179  CB        25.5760  -25.2950   -8.7300 C.3   423  GLU423      0.0388
    180  CG        24.3630  -24.9230   -7.8680 C.3   423  GLU423      0.1160
    181  CD        24.6130  -25.0940   -6.3360 C.2   423  GLU423      0.3649
    182  OE1       25.7770  -25.3230   -5.9080 O.co2 423  GLU423     -0.2457
    183  OE2       23.6500  -24.9650   -5.5340 O.co2 423  GLU423     -0.2457
    184  N         30.1370  -24.4230   -9.6610 N.3   425  LEU425     -0.1231
    185  CA        30.7920  -23.6520   -8.6390 C.3   425  LEU425      0.1693
    186  C         30.0980  -22.2800   -8.5420 C.2   425  LEU425      0.2592
    187  O         29.5770  -21.9240   -7.4650 O.2   425  LEU425     -0.2718
    188  CB        32.3130  -23.5200   -8.8480 C.3   425  LEU425      0.0284
    189  CG        33.1790  -24.7990   -8.8950 C.3   425  LEU425      0.0019
    190  CD1       34.6480  -24.4020   -9.2860 C.3   425  LEU425      0.0001
    191  CD2       33.1510  -25.6560   -7.5880 C.3   425  LEU425      0.0001
    192  N         30.0890  -21.5390   -9.6590 N.am  426  THR426     -0.1953
    193  CA        29.3430  -20.2920   -9.7440 C.3   426  THR426      0.1897
    194  C         27.8630  -20.6630   -9.9380 C.2   426  THR426      0.2313
    195  O         27.5450  -21.8380  -10.1660 O.2   426  THR426     -0.2863
    196  CB        29.8530  -19.4680  -10.9040 C.3   426  THR426      0.1794
    197  OG1       29.7490  -20.2560  -12.0720 O.3   426  THR426     -0.2208
    198  CG2       31.3780  -19.1140  -10.7290 C.3   426  THR426      0.0378
@<TRIPOS>BOND
     1   115   116    1
     2   120   122    1
     3   120   119    1
     4   116   119    1
     5   116   117    1
     6   119   121    1
     7   135   134   ar
     8   128   129    1
     9   129   132    1
    10   129   130    1
    11   117   118    2
    12   117   123   am
    13   132   133    1
    14    91    92    1
    15   134   133    1
    16   134   136   ar
    17   131   130    2
    18   123   124    1
    19   130   137   am
    20    97    96    1
    21    77    75   ar
    22    77    79   ar
    23    96    95    1
    24    96    98    1
    25    95    92    1
    26   125   124    1
    27   125   126    2
    28    92    93    1
    29    75    74   ar
    30    69    70    1
    31    79    78   ar
    32   124   127    1
    33   137   138    1
    34    93    94    2
    35    70    71    1
    36    70    73    1
    37   139   138    1
    38   139   140    2
    39    74    73    1
    40    74    76   ar
    41    71    72    2
    42   138   141    1
    43    78    76   ar
    44   197   196    1
    45    65    64    2
    46   142   141    1
    47   141   143    1
    48   178   177    2
    49    68    66    1
    50   177   176    1
    51    64    63    1
    52   196   198    1
    53   196   193    1
    54   175   176    1
    55    67    66    1
    56    63    66    1
    57    63    62    1
    58   195   194    2
    59   176   179    1
    60    99   100    1
    61   194   193    1
    62   106   105    1
    63   193   192    1
    64   184   185    1
    65   192   186   am
    66   103   100    1
    67   103   104    1
    68    84    85    1
    69    84    81    1
    70   190   189    1
    71    80    81    1
    72   100   101    1
    73   105   104    1
    74   189   188    1
    75   189   191    1
    76   188   185    1
    77    86    85   ar
    78    86    88   ar
    79   179   180    1
    80   101   102    2
    81    85    87   ar
    82   185   186    1
    83   186   187    2
    84   174   173    1
    85    81    82    1
    86    88    90   ar
    87    87    89   ar
    88   180   181    1
    89    82    83    2
    90    57    56    2
    91    90    89   ar
    92    52    51    2
    93   144   145    1
    94   171   172    2
    95   171   170    1
    96   148   145    1
    97   173   170    1
    98   145   146    1
    99    56    55    1
   100   170   169    1
   101   181   182   ar
   102   181   183   ar
   103   107   108    1
   104    61    59    1
   105    51    50    1
   106    51    54   am
   107    55    54    1
   108    55    58    1
   109    15    14    1
   110    15     9    1
   111   155   149    1
   112   155   154    1
   113    50    53    1
   114    50    49    1
   115   112   113    1
   116   112   111    1
   117   112   114    1
   118    14    13    1
   119   146   149   am
   120   146   147    2
   121    58    59    1
   122   108   111    1
   123   108   109    1
   124    59    60    1
   125   149   150    1
   126   154   153    1
   127     9    10    1
   128   109   110    2
   129    13    10    1
   130   153   150    1
   131     4     3    2
   132    22    20    1
   133   150   151    1
   134    10    11    1
   135    20    21    1
   136    20    17    1
   137    16    11   am
   138    16    17    1
   139    46    45    2
   140   159   158    2
   141     3     2    1
   142    11    12    2
   143    48    47    1
   144    17    18    1
   145   156   151   am
   146   156   157    1
   147   151   152    2
   148    18    19    2
   149    45    44    1
   150   158   157    1
   151     5     2    1
   152     5     6    1
   153     2     1    1
   154   157   160    1
   155    43    44    1
   156    47    44    1
   157     7     6    1
   158     8     6    1
   159    29    28    1
   160   168   167    1
   161    23    24    1
   162    28    27    1
   163    28    30    1
   164    42    41    1
   165   167   166    1
   166    27    24    1
   167    24    25    1
   168    39    41   ar
   169    39    37   ar
   170    41    40   ar
   171    25    26    2
   172   166   165    1
   173   165   162    1
   174    37    36   ar
   175    40    38   ar
   176   162   163    1
   177   162   161    1
   178   163   164    2
   179    36    38   ar
   180    36    35    1
   181    35    32    1
   182    32    31    1
   183    32    33    1
   184    33    34    2
