@<TRIPOS>MOLECULE
tmp/4kf1A01.pdb
 92 86 0 0 0
SMALL
GASTEIGER

@<TRIPOS>ATOM
      1  N         25.2520  -20.6540   -9.2470 N.3    27  VAL27      -0.1245
      2  CA        24.6360  -19.8200   -8.2150 C.3    27  VAL27       0.1561
      3  C         24.3530  -20.6400   -6.9600 C.2    27  VAL27       0.2260
      4  O         23.8220  -21.7470   -7.0430 O.2    27  VAL27      -0.2867
      5  CB        23.3220  -19.1900   -8.7200 C.3    27  VAL27       0.0252
      6  CG1       22.5360  -18.5750   -7.5690 C.3    27  VAL27       0.0019
      7  CG2       23.6150  -18.1550   -9.7970 C.3    27  VAL27       0.0019
      8  N         24.7510  -14.3290   -4.4190 N.3    72  LEU72      -0.1245
      9  CA        24.5320  -15.3530   -5.4400 C.3    72  LEU72       0.1561
     10  C         25.6330  -16.4080   -5.4330 C.2    72  LEU72       0.2260
     11  O         25.6010  -17.3510   -6.2270 O.2    72  LEU72      -0.2867
     12  CB        24.4500  -14.7160   -6.8280 C.3    72  LEU72       0.0270
     13  CG        23.2510  -13.8210   -7.1300 C.3    72  LEU72       0.0019
     14  CD1       23.3640  -13.2270   -8.5280 C.3    72  LEU72       0.0001
     15  CD2       21.9540  -14.5990   -6.9730 C.3    72  LEU72       0.0001
     16  N         23.7490   -8.4230   -4.2560 N.3    97  TYR97      -0.1241
     17  CA        22.4650   -8.8600   -4.7830 C.3    97  TYR97       0.1605
     18  C         21.5290   -9.1030   -3.6010 C.2    97  TYR97       0.2264
     19  O         21.5930  -10.1490   -2.9510 O.2    97  TYR97      -0.2867
     20  CB        22.6670  -10.1420   -5.6090 C.3    97  TYR97       0.0534
     21  CG        21.4330  -10.7140   -6.2820 C.ar   97  TYR97      -0.0201
     22  CD1       20.5070  -11.4590   -5.5640 C.ar   97  TYR97      -0.0009
     23  CD2       21.2160  -10.5420   -7.6480 C.ar   97  TYR97      -0.0009
     24  CE1       19.3890  -11.9980   -6.1770 C.ar   97  TYR97       0.0417
     25  CE2       20.0990  -11.0770   -8.2710 C.ar   97  TYR97       0.0417
     26  CZ        19.1900  -11.8060   -7.5330 C.ar   97  TYR97       0.1957
     27  OH        18.0740  -12.3450   -8.1430 O.3    97  TYR97      -0.2866
     28  N         17.2310   -8.2990   -2.1520 N.3    99  TYR99      -0.1241
     29  CA        15.8750   -7.8290   -2.4650 C.3    99  TYR99       0.1605
     30  C         15.3060   -6.9100   -1.3820 C.2    99  TYR99       0.2264
     31  O         14.4320   -6.0850   -1.6530 O.2    99  TYR99      -0.2867
     32  CB        14.9180   -9.0060   -2.6610 C.3    99  TYR99       0.0534
     33  CG        15.1340   -9.8210   -3.9200 C.ar   99  TYR99      -0.0201
     34  CD1       16.1680   -9.5320   -4.8050 C.ar   99  TYR99      -0.0009
     35  CD2       14.2980  -10.8900   -4.2150 C.ar   99  TYR99      -0.0009
     36  CE1       16.3560  -10.2890   -5.9540 C.ar   99  TYR99       0.0417
     37  CE2       14.4770  -11.6490   -5.3560 C.ar   99  TYR99       0.0417
     38  CZ        15.5060  -11.3500   -6.2210 C.ar   99  TYR99       0.1957
     39  OH        15.6750  -12.1180   -7.3530 O.3    99  TYR99      -0.2866
     40  N         16.5540  -13.2030  -20.2390 N.3   222  ARG222     -0.1245
     41  CA        16.1690  -14.4530  -19.5840 C.3   222  ARG222      0.1563
     42  C         15.4730  -15.4060  -20.5540 C.2   222  ARG222      0.2260
     43  O         14.5240  -16.1000  -20.1890 O.2   222  ARG222     -0.2867
     44  CB        15.2690  -14.1680  -18.3810 C.3   222  ARG222      0.0307
     45  CG        16.0190  -13.5970  -17.1920 C.3   222  ARG222      0.0489
     46  CD        15.0710  -13.2090  -16.0700 C.3   222  ARG222      0.2205
     47  NE        15.6780  -13.4380  -14.7650 N.pl3 222  ARG222     -0.0865
     48  CZ        15.1320  -13.0730  -13.6090 C.cat 222  ARG222      0.5346
     49  NH1       13.9600  -12.4550  -13.5910 N.pl3 222  ARG222      0.1354
     50  NH2       15.7630  -13.3300  -12.4710 N.pl3 222  ARG222      0.1354
     51  N          8.6240  -19.3640  -17.2190 N.3   227  LEU227     -0.1231
     52  CA         7.8310  -19.0050  -16.0520 C.3   227  LEU227      0.1693
     53  C          7.7810  -17.4900  -15.8470 C.2   227  LEU227      0.2592
     54  O          6.8530  -16.9770  -15.2270 O.2   227  LEU227     -0.2718
     55  CB         8.3500  -19.7160  -14.7940 C.3   227  LEU227      0.0284
     56  CG         9.5340  -19.0890  -14.0480 C.3   227  LEU227      0.0019
     57  CD1        9.6570  -19.6650  -12.6450 C.3   227  LEU227      0.0001
     58  CD2       10.8260  -19.2780  -14.8280 C.3   227  LEU227      0.0001
     59  N          8.7640  -16.7730  -16.3840 N.am  228  PHE228     -0.1976
     60  CA         8.7090  -15.3110  -16.3990 C.3   228  PHE228      0.1639
     61  C          8.0350  -14.7600  -17.6580 C.2   228  PHE228      0.2290
     62  O          7.1130  -13.9490  -17.5690 O.2   228  PHE228     -0.2864
     63  CB        10.1090  -14.7130  -16.2400 C.3   228  PHE228      0.0560
     64  CG        10.7860  -15.0860  -14.9530 C.ar  228  PHE228     -0.0200
     65  CD1       10.0780  -15.1090  -13.7630 C.ar  228  PHE228     -0.0042
     66  CD2       12.1310  -15.4190  -14.9350 C.ar  228  PHE228     -0.0042
     67  CE1       10.6990  -15.4530  -12.5750 C.ar  228  PHE228     -0.0003
     68  CE2       12.7580  -15.7650  -13.7510 C.ar  228  PHE228     -0.0003
     69  CZ        12.0430  -15.7800  -12.5690 C.ar  228  PHE228     -0.0000
     70  N         22.2070  -24.1330  -10.1330 N.3   260  ILE260     -0.1245
     71  CA        21.6580  -23.2560   -9.1090 C.3   260  ILE260      0.1561
     72  C         20.9630  -24.0930   -8.0330 C.2   260  ILE260      0.2260
     73  O         20.4240  -25.1600   -8.3280 O.2   260  ILE260     -0.2867
     74  CB        20.6780  -22.2330   -9.7200 C.3   260  ILE260      0.0252
     75  CG1       20.0810  -21.3400   -8.6320 C.3   260  ILE260      0.0019
     76  CG2       19.5830  -22.9370  -10.5080 C.3   260  ILE260      0.0019
     77  CD1       19.3950  -20.1000   -9.1710 C.3   260  ILE260      0.0001
     78  N         18.5180  -23.4130   -5.6820 N.3   262  ILE262     -0.1245
     79  CA        17.1670  -23.1490   -5.1910 C.3   262  ILE262      0.1561
     80  C         16.2130  -24.3010   -5.5190 C.2   262  ILE262      0.2260
     81  O         16.3330  -24.9440   -6.5640 O.2   262  ILE262     -0.2867
     82  CB        16.6110  -21.8150   -5.7340 C.3   262  ILE262      0.0252
     83  CG1       16.1850  -21.9620   -7.1980 C.3   262  ILE262      0.0019
     84  CG2       17.6450  -20.7080   -5.5870 C.3   262  ILE262      0.0019
     85  CD1       15.6380  -20.6840   -7.8010 C.3   262  ILE262      0.0001
     86  N         13.3000  -24.3330   -6.5130 N.3   264  THR264     -0.1218
     87  CA        12.5170  -24.0800   -7.7200 C.3   264  THR264      0.1862
     88  C         13.1330  -24.7550   -8.9470 C.2   264  THR264      0.2287
     89  O         12.4530  -24.9850   -9.9480 O.2   264  THR264     -0.2866
     90  CB        12.3840  -22.5690   -7.9800 C.3   264  THR264      0.1770
     91  OG1       12.0890  -21.8990   -6.7480 O.3   264  THR264     -0.2211
     92  CG2       11.2770  -22.2860   -8.9930 C.3   264  THR264      0.0375
@<TRIPOS>BOND
     1    42    43    2
     2    42    41    1
     3    40    41    1
     4    41    44    1
     5    44    45    1
     6    61    62    2
     7    61    60    1
     8    51    52    1
     9    45    46    1
    10    60    59    1
    11    60    63    1
    12    59    53   am
    13    63    64    1
    14    46    47    1
    15    52    53    1
    16    52    55    1
    17    53    54    2
    18    64    66   ar
    19    64    65   ar
    20    66    68   ar
    21    58    56    1
    22    55    56    1
    23    47    48    2
    24    56    57    1
    25    65    67   ar
    26    68    69   ar
    27    48    49    1
    28    48    50    1
    29    67    69   ar
    30    76    74    1
    31    70    71    1
    32    89    88    2
    33     7     5    1
    34    74    71    1
    35    74    75    1
    36     1     2    1
    37    77    75    1
    38    71    72    1
    39    92    90    1
    40    88    87    1
    41     5     2    1
    42     5     6    1
    43    14    13    1
    44    73    72    2
    45    25    23   ar
    46    25    26   ar
    47     2     3    1
    48    27    26    1
    49    90    87    1
    50    90    91    1
    51    85    83    1
    52    87    86    1
    53    23    21   ar
    54    26    24   ar
    55    39    38    1
    56    83    82    1
    57    13    15    1
    58    13    12    1
    59     4     3    2
    60    12     9    1
    61    81    80    2
    62    21    20    1
    63    21    22   ar
    64    11    10    2
    65    38    36   ar
    66    38    37   ar
    67    24    22   ar
    68    36    34   ar
    69    82    84    1
    70    82    79    1
    71    78    79    1
    72    20    17    1
    73    80    79    1
    74     9    10    1
    75     9     8    1
    76    37    35   ar
    77    34    33   ar
    78    17    16    1
    79    17    18    1
    80    35    33   ar
    81    33    32    1
    82    18    19    2
    83    32    29    1
    84    29    28    1
    85    29    30    1
    86    31    30    2
