@<TRIPOS>MOLECULE
tmp/4kf1A00.pdb
 216 207 0 0 0
SMALL
GASTEIGER

@<TRIPOS>ATOM
      1  N         24.8800  -11.9040  -19.8210 N.3    22  HIS22      -0.1241
      2  CA        24.2810  -12.2720  -18.5300 C.3    22  HIS22       0.1621
      3  C         24.0350  -13.7610  -18.4510 C.2    22  HIS22       0.2264
      4  O         22.9470  -14.2400  -18.7870 O.2    22  HIS22      -0.2867
      5  CB        22.9720  -11.5070  -18.2930 C.3    22  HIS22       0.0745
      6  CG        22.4720  -11.5530  -16.8640 C.ar   22  HIS22       0.0817
      7  ND1       22.0320  -10.4410  -16.2090 N.ar   22  HIS22      -0.2268
      8  CD2       22.3350  -12.6000  -15.9780 C.ar   22  HIS22       0.1154
      9  CE1       21.6440  -10.7760  -14.9730 C.ar   22  HIS22       0.1986
     10  NE2       21.8170  -12.0910  -14.8180 N.ar   22  HIS22      -0.2212
     11  N         25.2190  -17.3300  -15.7350 N.3    24  HIS24      -0.1241
     12  CA        25.8170  -17.7410  -14.4630 C.3    24  HIS24       0.1621
     13  C         26.4330  -19.1290  -14.5580 C.2    24  HIS24       0.2264
     14  O         25.7490  -20.0950  -14.8930 O.2    24  HIS24      -0.2867
     15  CB        24.7730  -17.7290  -13.3420 C.3    24  HIS24       0.0745
     16  CG        24.1340  -16.3850  -13.0960 C.ar   24  HIS24       0.0817
     17  ND1       24.6910  -15.4460  -12.2810 N.ar   24  HIS24      -0.2268
     18  CD2       22.9550  -15.8450  -13.5510 C.ar   24  HIS24       0.1154
     19  CE1       23.9030  -14.3690  -12.2410 C.ar   24  HIS24       0.1986
     20  NE2       22.8400  -14.5980  -13.0090 N.ar   24  HIS24      -0.2212
     21  N         25.2520  -20.6540   -9.2470 N.3    27  VAL27      -0.1245
     22  CA        24.6360  -19.8200   -8.2150 C.3    27  VAL27       0.1561
     23  C         24.3530  -20.6400   -6.9600 C.2    27  VAL27       0.2260
     24  O         23.8220  -21.7470   -7.0430 O.2    27  VAL27      -0.2867
     25  CB        23.3220  -19.1900   -8.7200 C.3    27  VAL27       0.0252
     26  CG1       22.5360  -18.5750   -7.5690 C.3    27  VAL27       0.0019
     27  CG2       23.6150  -18.1550   -9.7970 C.3    27  VAL27       0.0019
     28  N         24.7510  -14.3290   -4.4190 N.3    72  LEU72      -0.1245
     29  CA        24.5320  -15.3530   -5.4400 C.3    72  LEU72       0.1561
     30  C         25.6330  -16.4080   -5.4330 C.2    72  LEU72       0.2260
     31  O         25.6010  -17.3510   -6.2270 O.2    72  LEU72      -0.2867
     32  CB        24.4500  -14.7160   -6.8280 C.3    72  LEU72       0.0270
     33  CG        23.2510  -13.8210   -7.1300 C.3    72  LEU72       0.0019
     34  CD1       23.3640  -13.2270   -8.5280 C.3    72  LEU72       0.0001
     35  CD2       21.9540  -14.5990   -6.9730 C.3    72  LEU72       0.0001
     36  N         23.7490   -8.4230   -4.2560 N.3    97  TYR97      -0.1241
     37  CA        22.4650   -8.8600   -4.7830 C.3    97  TYR97       0.1605
     38  C         21.5290   -9.1030   -3.6010 C.2    97  TYR97       0.2264
     39  O         21.5930  -10.1490   -2.9510 O.2    97  TYR97      -0.2867
     40  CB        22.6670  -10.1420   -5.6090 C.3    97  TYR97       0.0534
     41  CG        21.4330  -10.7140   -6.2820 C.ar   97  TYR97      -0.0201
     42  CD1       20.5070  -11.4590   -5.5640 C.ar   97  TYR97      -0.0009
     43  CD2       21.2160  -10.5420   -7.6480 C.ar   97  TYR97      -0.0009
     44  CE1       19.3890  -11.9980   -6.1770 C.ar   97  TYR97       0.0417
     45  CE2       20.0990  -11.0770   -8.2710 C.ar   97  TYR97       0.0417
     46  CZ        19.1900  -11.8060   -7.5330 C.ar   97  TYR97       0.1957
     47  OH        18.0740  -12.3450   -8.1430 O.3    97  TYR97      -0.2866
     48  N         17.2310   -8.2990   -2.1520 N.3    99  TYR99      -0.1241
     49  CA        15.8750   -7.8290   -2.4650 C.3    99  TYR99       0.1605
     50  C         15.3060   -6.9100   -1.3820 C.2    99  TYR99       0.2264
     51  O         14.4320   -6.0850   -1.6530 O.2    99  TYR99      -0.2867
     52  CB        14.9180   -9.0060   -2.6610 C.3    99  TYR99       0.0534
     53  CG        15.1340   -9.8210   -3.9200 C.ar   99  TYR99      -0.0201
     54  CD1       16.1680   -9.5320   -4.8050 C.ar   99  TYR99      -0.0009
     55  CD2       14.2980  -10.8900   -4.2150 C.ar   99  TYR99      -0.0009
     56  CE1       16.3560  -10.2890   -5.9540 C.ar   99  TYR99       0.0417
     57  CE2       14.4770  -11.6490   -5.3560 C.ar   99  TYR99       0.0417
     58  CZ        15.5060  -11.3500   -6.2210 C.ar   99  TYR99       0.1957
     59  OH        15.6750  -12.1180   -7.3530 O.3    99  TYR99      -0.2866
     60  N         19.7470   -6.2500  -11.9090 N.3   169  HIS169     -0.1241
     61  CA        18.5960   -7.1230  -11.8410 C.3   169  HIS169      0.1621
     62  C         17.3880   -6.2920  -11.4620 C.2   169  HIS169      0.2264
     63  O         17.4350   -5.5240  -10.5030 O.2   169  HIS169     -0.2867
     64  CB        18.8730   -8.2040  -10.7940 C.3   169  HIS169      0.0745
     65  CG        17.6810   -9.0510  -10.4470 C.ar  169  HIS169      0.0817
     66  ND1       17.5840  -10.3660  -10.8080 N.ar  169  HIS169     -0.2268
     67  CD2       16.5370   -8.7510   -9.7460 C.ar  169  HIS169      0.1154
     68  CE1       16.4280  -10.8560  -10.3510 C.ar  169  HIS169      0.1986
     69  NE2       15.7810   -9.8840   -9.7050 N.ar  169  HIS169     -0.2212
     70  N         16.4000   -7.7560  -17.1410 N.3   198  HIS198     -0.1241
     71  CA        15.2050   -8.5840  -16.9610 C.3   198  HIS198      0.1621
     72  C         13.9670   -7.9000  -17.5140 C.2   198  HIS198      0.2264
     73  O         12.8330   -8.2630  -17.1870 O.2   198  HIS198     -0.2867
     74  CB        15.0300   -8.9890  -15.4900 C.3   198  HIS198      0.0745
     75  CG        16.2090   -9.7380  -14.9110 C.ar  198  HIS198      0.0817
     76  ND1       17.1160  -10.3940  -15.6870 N.ar  198  HIS198     -0.2268
     77  CD2       16.6110   -9.9290  -13.6090 C.ar  198  HIS198      0.1154
     78  CE1       18.0400  -10.9630  -14.9080 C.ar  198  HIS198      0.1986
     79  NE2       17.7460  -10.6880  -13.6360 N.ar  198  HIS198     -0.2212
     80  N         16.5540  -13.2030  -20.2390 N.3   222  ARG222     -0.1245
     81  CA        16.1690  -14.4530  -19.5840 C.3   222  ARG222      0.1563
     82  C         15.4730  -15.4060  -20.5540 C.2   222  ARG222      0.2260
     83  O         14.5240  -16.1000  -20.1890 O.2   222  ARG222     -0.2867
     84  CB        15.2690  -14.1680  -18.3810 C.3   222  ARG222      0.0307
     85  CG        16.0190  -13.5970  -17.1920 C.3   222  ARG222      0.0489
     86  CD        15.0710  -13.2090  -16.0700 C.3   222  ARG222      0.2205
     87  NE        15.6780  -13.4380  -14.7650 N.pl3 222  ARG222     -0.0865
     88  CZ        15.1320  -13.0730  -13.6090 C.cat 222  ARG222      0.5346
     89  NH1       13.9600  -12.4550  -13.5910 N.pl3 222  ARG222      0.1354
     90  NH2       15.7630  -13.3300  -12.4710 N.pl3 222  ARG222      0.1354
     91  N         13.4920  -18.8790  -19.6990 N.3   225  LEU225     -0.1245
     92  CA        12.7630  -18.8720  -18.4410 C.3   225  LEU225      0.1561
     93  C         11.2870  -18.5620  -18.6750 C.2   225  LEU225      0.2260
     94  O         10.8280  -17.4330  -18.4680 O.2   225  LEU225     -0.2867
     95  CB        13.3930  -17.8850  -17.4580 C.3   225  LEU225      0.0270
     96  CG        14.7440  -18.3650  -16.9080 C.3   225  LEU225      0.0019
     97  CD1       15.5690  -17.2030  -16.3770 C.3   225  LEU225      0.0001
     98  CD2       14.5420  -19.4170  -15.8280 C.3   225  LEU225      0.0001
     99  N          8.6240  -19.3640  -17.2190 N.3   227  LEU227     -0.1231
    100  CA         7.8310  -19.0050  -16.0520 C.3   227  LEU227      0.1693
    101  C          7.7810  -17.4900  -15.8470 C.2   227  LEU227      0.2592
    102  O          6.8530  -16.9770  -15.2270 O.2   227  LEU227     -0.2718
    103  CB         8.3500  -19.7160  -14.7940 C.3   227  LEU227      0.0284
    104  CG         9.5340  -19.0890  -14.0480 C.3   227  LEU227      0.0019
    105  CD1        9.6570  -19.6650  -12.6450 C.3   227  LEU227      0.0001
    106  CD2       10.8260  -19.2780  -14.8280 C.3   227  LEU227      0.0001
    107  N          8.7640  -16.7730  -16.3840 N.am  228  PHE228     -0.1976
    108  CA         8.7090  -15.3110  -16.3990 C.3   228  PHE228      0.1639
    109  C          8.0350  -14.7600  -17.6580 C.2   228  PHE228      0.2290
    110  O          7.1130  -13.9490  -17.5690 O.2   228  PHE228     -0.2864
    111  CB        10.1090  -14.7130  -16.2400 C.3   228  PHE228      0.0560
    112  CG        10.7860  -15.0860  -14.9530 C.ar  228  PHE228     -0.0200
    113  CD1       10.0780  -15.1090  -13.7630 C.ar  228  PHE228     -0.0042
    114  CD2       12.1310  -15.4190  -14.9350 C.ar  228  PHE228     -0.0042
    115  CE1       10.6990  -15.4530  -12.5750 C.ar  228  PHE228     -0.0003
    116  CE2       12.7580  -15.7650  -13.7510 C.ar  228  PHE228     -0.0003
    117  CZ        12.0430  -15.7800  -12.5690 C.ar  228  PHE228     -0.0000
    118  N         20.3540  -15.6240  -18.8890 N.3   255  ASP255     -0.1239
    119  CA        20.4410  -15.7130  -17.4350 C.3   255  ASP255      0.1674
    120  C         20.5930  -17.1790  -17.0220 C.2   255  ASP255      0.2266
    121  O         20.1320  -17.5780  -15.9520 O.2   255  ASP255     -0.2867
    122  CB        19.1750  -15.1180  -16.8000 C.3   255  ASP255      0.1410
    123  CG        19.3670  -14.7180  -15.3400 C.2   255  ASP255      0.3668
    124  OD1       20.5190  -14.6700  -14.8490 O.co2 255  ASP255     -0.2456
    125  OD2       18.3430  -14.4350  -14.6820 O.co2 255  ASP255     -0.2456
    126  N         21.7780  -20.6150  -15.5370 N.3   257  CYS257     -0.1235
    127  CA        22.5760  -21.0610  -14.4010 C.3   257  CYS257      0.1677
    128  C         22.9950  -22.5150  -14.5830 C.2   257  CYS257      0.2270
    129  O         22.1580  -23.4180  -14.5510 O.2   257  CYS257     -0.2867
    130  CB        21.7780  -20.9100  -13.1040 C.3   257  CYS257      0.0956
    131  SG        21.2460  -19.2190  -12.7640 S.3   257  CYS257     -0.0801
    132  N         22.2070  -24.1330  -10.1330 N.3   260  ILE260     -0.1245
    133  CA        21.6580  -23.2560   -9.1090 C.3   260  ILE260      0.1561
    134  C         20.9630  -24.0930   -8.0330 C.2   260  ILE260      0.2260
    135  O         20.4240  -25.1600   -8.3280 O.2   260  ILE260     -0.2867
    136  CB        20.6780  -22.2330   -9.7200 C.3   260  ILE260      0.0252
    137  CG1       20.0810  -21.3400   -8.6320 C.3   260  ILE260      0.0019
    138  CG2       19.5830  -22.9370  -10.5080 C.3   260  ILE260      0.0019
    139  CD1       19.3950  -20.1000   -9.1710 C.3   260  ILE260      0.0001
    140  N         18.5180  -23.4130   -5.6820 N.3   262  ILE262     -0.1245
    141  CA        17.1670  -23.1490   -5.1910 C.3   262  ILE262      0.1561
    142  C         16.2130  -24.3010   -5.5190 C.2   262  ILE262      0.2260
    143  O         16.3330  -24.9440   -6.5640 O.2   262  ILE262     -0.2867
    144  CB        16.6110  -21.8150   -5.7340 C.3   262  ILE262      0.0252
    145  CG1       16.1850  -21.9620   -7.1980 C.3   262  ILE262      0.0019
    146  CG2       17.6450  -20.7080   -5.5870 C.3   262  ILE262      0.0019
    147  CD1       15.6380  -20.6840   -7.8010 C.3   262  ILE262      0.0001
    148  N         13.3000  -24.3330   -6.5130 N.3   264  THR264     -0.1203
    149  CA        12.5170  -24.0800   -7.7200 C.3   264  THR264      0.1994
    150  C         13.1330  -24.7550   -8.9470 C.2   264  THR264      0.2618
    151  O         12.4530  -24.9850   -9.9480 O.2   264  THR264     -0.2717
    152  CB        12.3840  -22.5690   -7.9800 C.3   264  THR264      0.1784
    153  OG1       12.0890  -21.8990   -6.7480 O.3   264  THR264     -0.2211
    154  CG2       11.2770  -22.2860   -8.9930 C.3   264  THR264      0.0376
    155  N         14.4200  -25.0760   -8.8580 N.am  265  ALA265     -0.1965
    156  CA        15.1740  -25.5810  -10.0010 C.3   265  ALA265      0.1728
    157  C         15.4220  -27.0870   -9.9070 C.2   265  ALA265      0.2616
    158  O         16.2140  -27.6370  -10.6720 O.2   265  ALA265     -0.2715
    159  CB        16.4990  -24.8400  -10.1290 C.3   265  ALA265      0.0334
    160  N         14.7570  -27.7490   -8.9660 N.am  266  LYS266     -0.1977
    161  CA        14.6960  -29.2100   -8.9700 C.3   266  LYS266      0.1596
    162  C         14.3510  -29.7220  -10.3660 C.2   266  LYS266      0.2287
    163  O         13.4740  -29.1720  -11.0340 O.2   266  LYS266     -0.2864
    164  CB        13.6630  -29.7150   -7.9590 C.3   266  LYS266      0.0298
    165  CG        14.0990  -29.6110   -6.5060 C.3   266  LYS266      0.0038
    166  CD        12.9360  -29.8940   -5.5660 C.3   266  LYS266      0.0206
    167  CE        13.4210  -30.1700   -4.1520 C.3   266  LYS266      0.1093
    168  NZ        12.4060  -29.8000   -3.1280 N.3   266  LYS266     -0.1314
    169  N         10.9610  -29.8310  -12.0240 N.3   269  TYR269     -0.1227
    170  CA        10.2160  -28.6050  -12.2920 C.3   269  TYR269      0.1736
    171  C         10.5880  -28.0000  -13.6440 C.2   269  TYR269      0.2595
    172  O          9.8950  -27.1170  -14.1500 O.2   269  TYR269     -0.2718
    173  CB        10.4490  -27.5800  -11.1810 C.3   269  TYR269      0.0548
    174  CG         9.8650  -27.9800   -9.8460 C.ar  269  TYR269     -0.0200
    175  CD1        8.7010  -28.7350   -9.7720 C.ar  269  TYR269     -0.0009
    176  CD2       10.4780  -27.6020   -8.6590 C.ar  269  TYR269     -0.0009
    177  CE1        8.1640  -29.1030   -8.5530 C.ar  269  TYR269      0.0417
    178  CE2        9.9480  -27.9640   -7.4340 C.ar  269  TYR269      0.0417
    179  CZ         8.7920  -28.7140   -7.3870 C.ar  269  TYR269      0.1957
    180  OH         8.2620  -29.0760   -6.1700 O.3   269  TYR269     -0.2866
    181  N         11.6840  -28.4800  -14.2230 N.am  270  LYS270     -0.1980
    182  CA        12.2520  -27.8550  -15.4150 C.3   270  LYS270      0.1596
    183  C         11.2960  -27.8710  -16.6110 C.2   270  LYS270      0.2287
    184  O         11.0980  -26.8460  -17.2610 O.2   270  LYS270     -0.2864
    185  CB        13.5860  -28.5050  -15.7870 C.3   270  LYS270      0.0298
    186  CG        14.2790  -27.8490  -16.9700 C.3   270  LYS270      0.0038
    187  CD        15.7890  -27.9920  -16.8720 C.3   270  LYS270      0.0206
    188  CE        16.4310  -27.9980  -18.2500 C.3   270  LYS270      0.1093
    189  NZ        16.6050  -26.6170  -18.7770 N.3   270  LYS270     -0.1314
    190  N          8.7280  -25.1470  -16.0210 N.3   273  LEU273     -0.1231
    191  CA         9.1150  -23.7630  -15.7590 C.3   273  LEU273      0.1693
    192  C         10.0560  -23.2220  -16.8300 C.2   273  LEU273      0.2591
    193  O         10.0440  -22.0250  -17.1290 O.2   273  LEU273     -0.2718
    194  CB         9.7770  -23.6420  -14.3840 C.3   273  LEU273      0.0284
    195  CG         8.9320  -24.0410  -13.1720 C.3   273  LEU273      0.0019
    196  CD1        9.6370  -23.6430  -11.8830 C.3   273  LEU273      0.0001
    197  CD2        7.5470  -23.4150  -13.2480 C.3   273  LEU273      0.0001
    198  N         10.8770  -24.1040  -17.3980 N.am  274  ALA274     -0.1980
    199  CA        12.0010  -23.6820  -18.2300 C.3   274  ALA274      0.1597
    200  C         12.5170  -24.8020  -19.1390 C.2   274  ALA274      0.2287
    201  O         13.7060  -25.1190  -19.1260 O.2   274  ALA274     -0.2864
    202  CB        13.1260  -23.1460  -17.3600 C.3   274  ALA274      0.0319
    203  N         15.4960  -24.0320  -21.5620 N.3   277  TRP277     -0.1241
    204  CA        16.4660  -23.1220  -20.9750 C.3   277  TRP277      0.1605
    205  C         17.8480  -23.7400  -21.0350 C.2   277  TRP277      0.2264
    206  O         18.0680  -24.8470  -20.5410 O.2   277  TRP277     -0.2867
    207  CB        16.0620  -22.8600  -19.5260 C.3   277  TRP277      0.0550
    208  CG        16.7670  -21.7310  -18.8140 C.ar  277  TRP277      0.0003
    209  CD1       17.1930  -20.5240  -19.3400 C.ar  277  TRP277      0.0946
    210  CD2       17.1000  -21.6830  -17.4040 C.ar  277  TRP277      0.0152
    211  NE1       17.7720  -19.7520  -18.3580 N.ar  277  TRP277     -0.2442
    212  CE2       17.7370  -20.4160  -17.1690 C.ar  277  TRP277      0.0810
    213  CE3       16.9380  -22.5650  -16.3360 C.ar  277  TRP277      0.0012
    214  CZ2       18.2000  -20.0450  -15.9120 C.ar  277  TRP277      0.0191
    215  CZ3       17.4000  -22.1850  -15.0820 C.ar  277  TRP277      0.0001
    216  CH2       18.0210  -20.9470  -14.8800 C.ar  277  TRP277      0.0015
@<TRIPOS>BOND
     1   203   204    1
     2   205   204    1
     3   205   206    2
     4   204   207    1
     5    82    83    2
     6    82    81    1
     7    80    81    1
     8     1     2    1
     9    91    92    1
    10    81    84    1
    11   207   208    1
    12   209   208   ar
    13   209   211   ar
    14   200   201    2
    15   200   199    1
    16   118   119    1
    17   208   210   ar
    18     4     3    2
    19   189   188    1
    20    93    94    2
    21    93    92    1
    22     2     3    1
    23     2     5    1
    24    92    95    1
    25    84    85    1
    26   211   212   ar
    27     5     6    1
    28   188   187    1
    29   199   198    1
    30   199   202    1
    31   109   110    2
    32   109   108    1
    33    72    73    2
    34    72    71    1
    35    95    96    1
    36   119   120    1
    37   119   122    1
    38   210   212   ar
    39   210   213   ar
    40   198   192   am
    41   184   183    2
    42    99   100    1
    43    85    86    1
    44   212   214   ar
    45    70    71    1
    46   193   192    2
    47   120   121    2
    48   186   187    1
    49   186   185    1
    50    71    74    1
    51    96    97    1
    52    96    98    1
    53     6     7   ar
    54     6     8   ar
    55   192   191    1
    56   122   123    1
    57   183   182    1
    58   108   107    1
    59   108   111    1
    60   107   101   am
    61   213   215   ar
    62   111   112    1
    63     7     9   ar
    64    86    87    1
    65   100   101    1
    66   100   103    1
    67   190   191    1
    68     8    10   ar
    69   214   216   ar
    70   101   102    2
    71   185   182    1
    72   191   194    1
    73    11    12    1
    74    76    75   ar
    75    76    78   ar
    76   126   127    1
    77    74    75    1
    78   182   181    1
    79   123   124   ar
    80   123   125   ar
    81   215   216   ar
    82     9    10   ar
    83   112   114   ar
    84   112   113   ar
    85   114   116   ar
    86    75    77   ar
    87    78    79   ar
    88    14    13    2
    89   106   104    1
    90   103   104    1
    91    87    88    2
    92   128   129    2
    93   128   127    1
    94    13    12    1
    95    12    15    1
    96   127   130    1
    97   194   195    1
    98   181   171   am
    99   172   171    2
   100   104   105    1
   101   113   115   ar
   102   116   117   ar
   103   171   170    1
   104    79    77   ar
   105    88    89    1
   106    88    90    1
   107    18    16   ar
   108    18    20   ar
   109    15    16    1
   110   197   195    1
   111   195   196    1
   112   130   131    1
   113    16    17   ar
   114    20    19   ar
   115   115   117   ar
   116   170   169    1
   117   170   173    1
   118    17    19   ar
   119    60    61    1
   120    61    62    1
   121    61    64    1
   122    62    63    2
   123   173   174    1
   124   163   162    2
   125    66    65   ar
   126    66    68   ar
   127    64    65    1
   128   158   157    2
   129   138   136    1
   130    65    67   ar
   131   162   161    1
   132    68    69   ar
   133   132   133    1
   134   159   156    1
   135   156   157    1
   136   156   155    1
   137   151   150    2
   138   157   160   am
   139   174   175   ar
   140   174   176   ar
   141    27    25    1
   142   175   177   ar
   143    67    69   ar
   144   136   133    1
   145   136   137    1
   146    21    22    1
   147   139   137    1
   148   133   134    1
   149   154   152    1
   150   161   160    1
   151   161   164    1
   152   150   155   am
   153   150   149    1
   154    25    22    1
   155    25    26    1
   156   176   178   ar
   157   177   179   ar
   158    34    33    1
   159   135   134    2
   160    45    43   ar
   161    45    46   ar
   162    22    23    1
   163    47    46    1
   164   152   149    1
   165   152   153    1
   166   164   165    1
   167   147   145    1
   168   149   148    1
   169    43    41   ar
   170    46    44   ar
   171   178   179   ar
   172   179   180    1
   173    59    58    1
   174   145   144    1
   175    33    35    1
   176    33    32    1
   177    24    23    2
   178    32    29    1
   179   143   142    2
   180   165   166    1
   181    41    40    1
   182    41    42   ar
   183    31    30    2
   184    58    56   ar
   185    58    57   ar
   186    44    42   ar
   187    56    54   ar
   188   144   146    1
   189   144   141    1
   190   140   141    1
   191    40    37    1
   192   166   167    1
   193   142   141    1
   194    29    30    1
   195    29    28    1
   196    57    55   ar
   197    54    53   ar
   198    37    36    1
   199    37    38    1
   200    55    53   ar
   201   167   168    1
   202    53    52    1
   203    38    39    2
   204    52    49    1
   205    49    48    1
   206    49    50    1
   207    51    50    2
