@<TRIPOS>MOLECULE
tmp/4kf3A01.pdb
 154 145 0 0 0
SMALL
GASTEIGER

@<TRIPOS>ATOM
      1  N        -10.5970   -7.3450   11.7330 N.3     1  SER1       -0.1202
      2  CA       -11.6160   -6.4240   11.1470 C.3     1  SER1        0.2020
      3  C        -12.4210   -5.7800   12.2660 C.2     1  SER1        0.2619
      4  O        -12.1570   -6.0110   13.4460 O.2     1  SER1       -0.2717
      5  CB       -12.5690   -7.1980   10.2330 C.3     1  SER1        0.2103
      6  OG       -13.4540   -8.0010   10.9990 O.3     1  SER1       -0.2182
      7  N        -13.4150   -4.9830   11.8890 N.am    2  LEU2       -0.1965
      8  CA       -14.2620   -4.3130   12.8630 C.3     2  LEU2        0.1728
      9  C        -14.9270   -5.3070   13.8130 C.2     2  LEU2        0.2616
     10  O        -15.1050   -5.0190   14.9940 O.2     2  LEU2       -0.2715
     11  CB       -15.3370   -3.4870   12.1520 C.3     2  LEU2        0.0311
     12  CG       -15.2350   -1.9740   12.3360 C.3     2  LEU2        0.0022
     13  CD1      -16.3730   -1.2790   11.5960 C.3     2  LEU2        0.0001
     14  CD2      -15.2790   -1.6490   13.8190 C.3     2  LEU2        0.0001
     15  N        -15.2980   -6.4710   13.2910 N.am    3  PHE3       -0.1974
     16  CA       -15.9440   -7.4910   14.1040 C.3     3  PHE3        0.1639
     17  C        -15.0410   -7.9380   15.2470 C.2     3  PHE3        0.2290
     18  O        -15.4490   -7.9170   16.4080 O.2     3  PHE3       -0.2864
     19  CB       -16.3140   -8.7070   13.2580 C.3     3  PHE3        0.0560
     20  CG       -16.9990   -9.7910   14.0400 C.ar    3  PHE3       -0.0200
     21  CD1      -18.2840   -9.5960   14.5400 C.ar    3  PHE3       -0.0042
     22  CD2      -16.3440  -10.9890   14.3150 C.ar    3  PHE3       -0.0042
     23  CE1      -18.9080  -10.5790   15.3030 C.ar    3  PHE3       -0.0003
     24  CE2      -16.9580  -11.9810   15.0780 C.ar    3  PHE3       -0.0003
     25  CZ       -18.2420  -11.7750   15.5740 C.ar    3  PHE3       -0.0000
     26  N        -12.4270   -6.4460   16.3760 N.3     5  LEU5       -0.1231
     27  CA       -12.1610   -5.2950   17.2260 C.3     5  LEU5        0.1693
     28  C        -13.2750   -5.1230   18.2550 C.2     5  LEU5        0.2592
     29  O        -13.0080   -5.0240   19.4510 O.2     5  LEU5       -0.2718
     30  CB       -12.0300   -4.0230   16.3890 C.3     5  LEU5        0.0284
     31  CG       -11.8310   -2.7420   17.2050 C.3     5  LEU5        0.0019
     32  CD1      -10.6260   -2.8960   18.1310 C.3     5  LEU5        0.0001
     33  CD2      -11.6480   -1.5590   16.2550 C.3     5  LEU5        0.0001
     34  N        -14.5200   -5.0890   17.7850 N.am    6  GLY6       -0.1957
     35  CA       -15.6480   -4.9320   18.6890 C.3     6  GLY6        0.1869
     36  C        -15.7430   -6.0660   19.6940 C.2     6  GLY6        0.2309
     37  O        -16.0280   -5.8430   20.8720 O.2     6  GLY6       -0.2863
     38  N        -13.1010   -5.6540   22.4500 N.3     9  ILE9       -0.1245
     39  CA       -13.4700   -4.5800   23.3610 C.3     9  ILE9        0.1561
     40  C        -14.5660   -5.0530   24.3050 C.2     9  ILE9        0.2260
     41  O        -14.5500   -4.7420   25.4970 O.2     9  ILE9       -0.2867
     42  CB       -13.9270   -3.3360   22.5830 C.3     9  ILE9        0.0252
     43  CG1      -12.7730   -2.8250   21.7130 C.3     9  ILE9        0.0019
     44  CG2      -14.3620   -2.2380   23.5550 C.3     9  ILE9        0.0019
     45  CD1      -13.0950   -1.5710   20.9230 C.3     9  ILE9        0.0001
     46  N        -19.4920   -2.3880   22.7770 N.3    17  PRO17      -0.2102
     47  CA       -18.4130   -1.6480   22.1070 C.3    17  PRO17       0.1504
     48  C        -18.8450   -0.4290   21.3070 C.2    17  PRO17       0.2575
     49  O        -18.2950    0.6570   21.4770 O.2    17  PRO17      -0.2718
     50  CB       -17.7510   -2.7160   21.2390 C.3    17  PRO17       0.0282
     51  CG       -18.9010   -3.6110   20.8870 C.3    17  PRO17       0.0208
     52  CD       -19.6300   -3.7390   22.2040 C.3    17  PRO17       0.0893
     53  N        -19.8250   -0.6150   20.4310 N.am   18  ALA18      -0.1980
     54  CA       -20.3360    0.4720   19.6090 C.3    18  ALA18       0.1597
     55  C        -20.9880    1.5370   20.4790 C.2    18  ALA18       0.2287
     56  O        -20.7960    2.7380   20.2690 O.2    18  ALA18      -0.2864
     57  CB       -21.3450   -0.0700   18.6150 C.3    18  ALA18       0.0319
     58  N        -18.0000    3.1490   22.8010 N.3    21  TYR21      -0.1227
     59  CA       -16.8480    3.7260   22.1150 C.3    21  TYR21       0.1736
     60  C        -17.0090    4.0930   20.6440 C.2    21  TYR21       0.2596
     61  O        -16.0780    4.6230   20.0380 O.2    21  TYR21      -0.2718
     62  CB       -15.6580    2.7780   22.2520 C.3    21  TYR21       0.0548
     63  CG       -15.3440    2.3910   23.6780 C.ar   21  TYR21      -0.0200
     64  CD1      -15.6900    1.1360   24.1660 C.ar   21  TYR21      -0.0009
     65  CD2      -14.7070    3.2850   24.5400 C.ar   21  TYR21      -0.0009
     66  CE1      -15.4100    0.7700   25.4800 C.ar   21  TYR21       0.0417
     67  CE2      -14.4230    2.9330   25.8590 C.ar   21  TYR21       0.0417
     68  CZ       -14.7800    1.6730   26.3200 C.ar   21  TYR21       0.1957
     69  OH       -14.5280    1.3200   27.6250 O.3    21  TYR21      -0.2866
     70  N        -18.1750    3.8130   20.0710 N.am   22  GLY22      -0.1957
     71  CA       -18.4040    4.1220   18.6690 C.3    22  GLY22       0.1869
     72  C        -18.2440    5.5890   18.3020 C.2    22  GLY22       0.2309
     73  O        -17.8690    5.9200   17.1770 O.2    22  GLY22      -0.2863
     74  N        -11.2090   10.4270   19.5100 N.3    27  ASN27      -0.1240
     75  CA       -10.4630    9.3620   18.8520 C.3    27  ASN27       0.1653
     76  C        -11.1300    8.0100   18.7760 C.2    27  ASN27       0.2266
     77  O        -10.7430    7.1830   17.9550 O.2    27  ASN27      -0.2867
     78  CB        -9.1170    9.1820   19.5430 C.3    27  ASN27       0.1155
     79  CG        -8.2340   10.3920   19.4010 C.2    27  ASN27       0.2627
     80  OD1       -7.4830   10.5150   18.4350 O.2    27  ASN27      -0.2716
     81  ND2       -8.3290   11.3050   20.3580 N.am   27  ASN27      -0.0877
     82  N        -13.8930    5.2330   17.9170 N.3    29  GLY29      -0.1225
     83  CA       -14.9170    4.9870   16.9280 C.3    29  GLY29       0.1811
     84  C        -14.7230    5.6390   15.5780 C.2    29  GLY29       0.2280
     85  O        -13.6260    5.6370   15.0000 O.2    29  GLY29      -0.2866
     86  N         -7.7850    5.0360   22.0730 N.3    44  CYS44      -0.1235
     87  CA        -8.2170    5.0080   20.6850 C.3    44  CYS44       0.1677
     88  C         -7.2670    5.7770   19.7880 C.2    44  CYS44       0.2270
     89  O         -7.0820    5.4360   18.6230 O.2    44  CYS44      -0.2867
     90  CB        -9.6310    5.5690   20.5720 C.3    44  CYS44       0.0956
     91  SG       -10.8240    4.5910   21.5410 S.3    44  CYS44      -0.0801
     92  N         -4.5130    3.5060   19.2040 N.3    47  HIS47      -0.1226
     93  CA        -5.0060    2.4620   18.3160 C.3    47  HIS47       0.1752
     94  C         -4.9710    2.8910   16.8550 C.2    47  HIS47       0.2595
     95  O         -4.4590    2.1720   16.0050 O.2    47  HIS47      -0.2718
     96  CB        -6.4300    2.0810   18.7050 C.3    47  HIS47       0.0759
     97  CG        -6.9770    0.9250   17.9350 C.ar   47  HIS47       0.0818
     98  ND1       -8.1330    1.0040   17.1950 N.ar   47  HIS47      -0.2268
     99  CD2       -6.5290   -0.3480   17.7960 C.ar   47  HIS47       0.1154
    100  CE1       -8.3790   -0.1670   16.6330 C.ar   47  HIS47       0.1986
    101  NE2       -7.4160   -1.0030   16.9830 N.ar   47  HIS47      -0.2212
    102  N         -5.5210    4.0620   16.5610 N.am   48  LYS48      -0.1980
    103  CA        -5.5240    4.5470   15.1890 C.3    48  LYS48       0.1596
    104  C         -4.1010    4.7460   14.6960 C.2    48  LYS48       0.2287
    105  O         -3.8150    4.5550   13.5170 O.2    48  LYS48      -0.2864
    106  CB        -6.3430    5.8350   15.0930 C.3    48  LYS48       0.0298
    107  CG        -7.8300    5.5330   15.1580 C.3    48  LYS48       0.0038
    108  CD        -8.7270    6.7520   15.2190 C.3    48  LYS48       0.0206
    109  CE       -10.1770    6.2870   15.2720 C.3    48  LYS48       0.1093
    110  NZ       -11.1350    7.4080   15.4010 N.3    48  LYS48      -0.1314
    111  N        -10.1000   -2.6040    8.8250 N.3    60  LYS60      -0.1231
    112  CA       -11.5460   -2.6020    9.0020 C.3    60  LYS60       0.1693
    113  C        -12.2970   -3.7680    8.3710 C.2    60  LYS60       0.2591
    114  O        -13.3580   -4.1600    8.8620 O.2    60  LYS60      -0.2718
    115  CB       -12.1300   -1.2880    8.4800 C.3    60  LYS60       0.0285
    116  CG       -11.6320   -0.0660    9.2420 C.3    60  LYS60       0.0035
    117  CD       -12.2910    0.0010   10.6120 C.3    60  LYS60       0.0206
    118  CE       -11.8680    1.3010   11.2940 C.3    60  LYS60       0.1093
    119  NZ       -11.8030    1.1220   12.7730 N.3    60  LYS60      -0.1314
    120  N        -11.7530   -4.3300    7.2970 N.am   61  LYS61      -0.1980
    121  CA       -12.4260   -5.4290    6.6130 C.3    61  LYS61       0.1596
    122  C        -11.7920   -6.8000    6.7890 C.2    61  LYS61       0.2287
    123  O        -12.4850   -7.8130    6.7530 O.2    61  LYS61      -0.2864
    124  CB       -12.5310   -5.1210    5.1160 C.3    61  LYS61       0.0298
    125  CG       -13.3000   -3.8460    4.7990 C.3    61  LYS61       0.0038
    126  CD       -14.7760   -3.9650    4.9600 C.3    61  LYS61       0.0206
    127  CE       -15.6640   -2.8510    4.3830 C.3    61  LYS61       0.1093
    128  NZ       -15.6320   -1.6820    5.3110 N.3    61  LYS61      -0.1314
    129  N        -10.4510  -10.0230    8.3630 N.3    63  ARG63      -0.1245
    130  CA       -10.6600  -10.8440    9.5340 C.3    63  ARG63       0.1563
    131  C         -9.3370  -11.5050    9.8780 C.2    63  ARG63       0.2260
    132  O         -8.5180  -11.7690    9.0000 O.2    63  ARG63      -0.2867
    133  CB       -11.6990  -11.9220    9.2310 C.3    63  ARG63       0.0307
    134  CG       -12.9870  -11.3900    8.6320 C.3    63  ARG63       0.0489
    135  CD       -14.0710  -11.2510    9.6810 C.3    63  ARG63       0.2205
    136  NE       -14.4200  -12.5480   10.2490 N.pl3  63  ARG63      -0.0865
    137  CZ       -15.4370  -12.7530   11.0770 C.cat  63  ARG63       0.5346
    138  NH1      -15.6750  -13.9710   11.5430 N.pl3  63  ARG63       0.1354
    139  NH2      -16.2180  -11.7420   11.4350 N.pl3  63  ARG63       0.1354
    140  N         -5.8780   -1.9580   22.1900 N.3    92  VAL92      -0.1245
    141  CA        -6.8690   -0.9430   22.4940 C.3    92  VAL92       0.1561
    142  C         -7.9630   -1.4830   23.4150 C.2    92  VAL92       0.2260
    143  O         -8.4620   -0.7610   24.2760 O.2    92  VAL92      -0.2867
    144  CB        -7.4880   -0.3310   21.2120 C.3    92  VAL92       0.0252
    145  CG1       -8.4430   -1.3210   20.5410 C.3    92  VAL92       0.0019
    146  CG2       -8.2050    0.9620   21.5770 C.3    92  VAL92       0.0019
    147  N         -8.6820    0.2490   26.8770 N.3    96  LEU96      -0.1245
    148  CA       -10.0120    0.7380   27.2150 C.3    96  LEU96       0.1561
    149  C        -10.4700    0.1160   28.5310 C.2    96  LEU96       0.2260
    150  O        -11.1010    0.7720   29.3530 O.2    96  LEU96      -0.2867
    151  CB       -11.0060    0.3990   26.1030 C.3    96  LEU96       0.0270
    152  CG       -10.7780    1.1150   24.7640 C.3    96  LEU96       0.0019
    153  CD1      -11.8020    0.6160   23.7500 C.3    96  LEU96       0.0001
    154  CD2      -10.9140    2.6260   24.9550 C.3    96  LEU96       0.0001
@<TRIPOS>BOND
     1   127   126    1
     2   127   128    1
     3   125   126    1
     4   125   124    1
     5   124   121    1
     6   121   122    1
     7   121   120    1
     8   123   122    2
     9   120   113   am
    10   129   130    1
    11   113   114    2
    12   113   112    1
    13   115   112    1
    14   115   116    1
    15   134   133    1
    16   134   135    1
    17   111   112    1
    18   132   131    2
    19   133   130    1
    20   116   117    1
    21   130   131    1
    22   135   136    1
    23     5     6    1
    24     5     2    1
    25   136   137    2
    26   117   118    1
    27   137   139    1
    28   137   138    1
    29     2     1    1
    30     2     3    1
    31   118   119    1
    32    13    12    1
    33     7     3   am
    34     7     8    1
    35    11    12    1
    36    11     8    1
    37     3     4    2
    38    12    14    1
    39     8     9    1
    40    19    20    1
    41    19    16    1
    42    15     9   am
    43    15    16    1
    44   105   104    2
    45     9    10    2
    46    20    22   ar
    47    20    21   ar
    48    16    17    1
    49    22    24   ar
    50    21    23   ar
    51   104   103    1
    52    85    84    2
    53    24    25   ar
    54   106   107    1
    55   106   103    1
    56   107   108    1
    57   103   102    1
    58   108   109    1
    59    17    18    2
    60   109   110    1
    61    23    25   ar
    62    84    83    1
    63    95    94    2
    64    33    31    1
    65    26    27    1
    66    30    31    1
    67    30    27    1
    68   102    94   am
    69   100   101   ar
    70   100    98   ar
    71    94    93    1
    72    83    82    1
    73   101    99   ar
    74    73    72    2
    75    98    97   ar
    76    31    32    1
    77    27    28    1
    78    34    28   am
    79    34    35    1
    80    99    97   ar
    81    97    96    1
    82    77    76    2
    83    28    29    2
    84    72    71    1
    85    93    96    1
    86    93    92    1
    87    80    79    2
    88    57    54    1
    89    89    88    2
    90    71    70    1
    91    35    36    1
    92    76    75    1
    93    75    74    1
    94    75    78    1
    95    79    78    1
    96    79    81   am
    97    54    53    1
    98    54    55    1
    99    36    37    2
   100    88    87    1
   101    61    60    2
   102    70    60   am
   103    56    55    2
   104    53    48   am
   105   145   144    1
   106    90    87    1
   107    90    91    1
   108    60    59    1
   109    87    86    1
   110    51    50    1
   111    51    52    1
   112    45    43    1
   113   144   146    1
   114   144   141    1
   115    50    47    1
   116    48    49    2
   117    48    47    1
   118    43    42    1
   119    47    46    1
   120    59    62    1
   121    59    58    1
   122   140   141    1
   123    52    46    1
   124    62    63    1
   125    38    39    1
   126   141   142    1
   127    42    39    1
   128    42    44    1
   129    39    40    1
   130   142   143    2
   131    63    64   ar
   132    63    65   ar
   133   153   152    1
   134    64    66   ar
   135    40    41    2
   136    65    67   ar
   137   152   154    1
   138   152   151    1
   139    66    68   ar
   140    67    68   ar
   141   151   148    1
   142    68    69    1
   143   147   148    1
   144   148   149    1
   145   149   150    2
