@<TRIPOS>MOLECULE
tmp/4kf3B02.pdb
 100 94 0 0 0
SMALL
GASTEIGER

@<TRIPOS>ATOM
      1  N        -19.9190   11.4480    7.7000 N.3     2  LEU2       -0.1245
      2  CA       -20.6820   10.8070    8.7640 C.3     2  LEU2        0.1561
      3  C        -21.3200   11.8490    9.6710 C.2     2  LEU2        0.2260
      4  O        -22.3580   11.5960   10.2790 O.2     2  LEU2       -0.2867
      5  CB       -19.7850    9.8990    9.6120 C.3     2  LEU2        0.0270
      6  CG       -19.3300    8.5700    9.0180 C.3     2  LEU2        0.0019
      7  CD1      -18.5380    7.8180   10.0810 C.3     2  LEU2        0.0001
      8  CD2      -20.5340    7.7400    8.5720 C.3     2  LEU2        0.0001
      9  N        -24.5560   13.1210    7.9400 N.3     5  LEU5       -0.1245
     10  CA       -25.4600   11.9750    7.9390 C.3     5  LEU5        0.1561
     11  C        -26.0610   11.7980    9.3290 C.2     5  LEU5        0.2260
     12  O        -27.2800   11.7030    9.4830 O.2     5  LEU5       -0.2867
     13  CB       -24.7040   10.7070    7.5400 C.3     5  LEU5        0.0270
     14  CG       -25.4640    9.3740    7.6090 C.3     5  LEU5        0.0019
     15  CD1      -26.6960    9.4260    6.7080 C.3     5  LEU5        0.0001
     16  CD2      -24.5370    8.2380    7.1840 C.3     5  LEU5        0.0001
     17  N        -26.0020    7.1570   16.2500 N.3    18  ALA18      -0.1245
     18  CA       -25.0720    6.0580   16.5190 C.3    18  ALA18       0.1562
     19  C        -25.7400    4.9840   17.3710 C.2    18  ALA18       0.2260
     20  O        -25.6460    3.7880   17.0830 O.2    18  ALA18      -0.2867
     21  CB       -23.8310    6.5840   17.2280 C.3    18  ALA18       0.0290
     22  N        -26.3200    2.8560   14.6430 N.3    22  GLY22      -0.1210
     23  CA       -24.9210    2.5120   14.4690 C.3    22  GLY22       0.1956
     24  C        -24.6620    1.0450   14.1700 C.2    22  GLY22       0.2611
     25  O        -23.7380    0.7140   13.4210 O.2    22  GLY22      -0.2717
     26  N        -25.4720    0.1590   14.7450 N.am   23  VAL23      -0.1979
     27  CA       -25.2900   -1.2690   14.5260 C.3    23  VAL23       0.1595
     28  C        -26.6280   -1.9810   14.3690 C.2    23  VAL23       0.2287
     29  O        -26.7500   -3.1580   14.6990 O.2    23  VAL23      -0.2864
     30  CB       -24.5420   -1.9290   15.7090 C.3    23  VAL23       0.0276
     31  CG1      -23.8160   -3.1780   15.2300 C.3    23  VAL23       0.0022
     32  CG2      -23.5780   -0.9450   16.3420 C.3    23  VAL23       0.0022
     33  N        -25.6040    1.3430    9.8390 N.3    29  GLY29      -0.1210
     34  CA       -24.3440    1.5840   10.5110 C.3    29  GLY29       0.1956
     35  C        -23.1380    0.8690    9.9370 C.2    29  GLY29       0.2612
     36  O        -22.9740    0.7700    8.7170 O.2    29  GLY29      -0.2717
     37  N        -22.2920    0.3700   10.8330 N.am   30  VAL30      -0.1965
     38  CA       -21.0730   -0.3270   10.4500 C.3    30  VAL30       0.1727
     39  C        -21.3080   -1.4820    9.4900 C.2    30  VAL30       0.2617
     40  O        -22.3830   -2.0790    9.4680 O.2    30  VAL30      -0.2715
     41  CB       -20.3300   -0.8700   11.6900 C.3    30  VAL30       0.0290
     42  CG1      -19.8150    0.2850   12.5280 C.3    30  VAL30       0.0023
     43  CG2      -21.2580   -1.7480   12.5160 C.3    30  VAL30       0.0023
     44  N        -20.2870   -1.7810    8.6940 N.am   31  GLY31      -0.1940
     45  CA       -20.3750   -2.8710    7.7450 C.3    31  GLY31       0.2014
     46  C        -21.0300   -2.5200    6.4280 C.2    31  GLY31       0.2639
     47  O        -21.2900   -1.3510    6.1320 O.2    31  GLY31      -0.2714
     48  N        -21.2860   -3.5510    5.6290 N.am   32  GLY32      -0.1954
     49  CA       -21.9180   -3.3570    4.3420 C.3    32  GLY32       0.1869
     50  C        -23.3970   -3.6550    4.4360 C.2    32  GLY32       0.2309
     51  O        -24.0530   -3.3490    5.4380 O.2    32  GLY32      -0.2863
     52  N        -29.6800    3.2050    1.2990 N.3    47  HIS47      -0.1226
     53  CA       -28.6650    4.2330    1.5270 C.3    47  HIS47       0.1752
     54  C        -27.2740    3.7620    1.1000 C.2    47  HIS47       0.2595
     55  O        -26.5200    4.5070    0.4650 O.2    47  HIS47      -0.2718
     56  CB       -28.6440    4.6130    3.0110 C.3    47  HIS47       0.0759
     57  CG       -27.7120    5.7370    3.3370 C.ar   47  HIS47       0.0818
     58  ND1      -26.6930    5.6140    4.2600 N.ar   47  HIS47      -0.2268
     59  CD2      -27.6640    7.0150    2.8930 C.ar   47  HIS47       0.1154
     60  CE1      -26.0620    6.7680    4.3720 C.ar   47  HIS47       0.1986
     61  NE2      -26.6310    7.6380    3.5530 N.ar   47  HIS47      -0.2212
     62  N        -26.9220    2.5290    1.4520 N.am   48  LYS48      -0.1980
     63  CA       -25.6100    2.0160    1.0830 C.3    48  LYS48       0.1596
     64  C        -25.4960    1.8130   -0.4160 C.2    48  LYS48       0.2287
     65  O        -24.4150    1.9440   -0.9850 O.2    48  LYS48      -0.2864
     66  CB       -25.2990    0.7310    1.8650 C.3    48  LYS48       0.0298
     67  CG       -24.9210    1.0690    3.3070 C.3    48  LYS48       0.0038
     68  CD       -24.6400   -0.1150    4.2000 C.3    48  LYS48       0.0206
     69  CE       -24.1920    0.4000    5.5690 C.3    48  LYS48       0.1093
     70  NZ       -23.9910   -0.6740    6.5740 N.3    48  LYS48      -0.1314
     71  N        -24.8630    5.1590   -1.9570 N.3    51  TYR51      -0.1241
     72  CA       -23.4430    5.4920   -1.8600 C.3    51  TYR51       0.1605
     73  C        -22.6300    4.8690   -2.9840 C.2    51  TYR51       0.2264
     74  O        -21.6840    5.4820   -3.4800 O.2    51  TYR51      -0.2867
     75  CB       -22.8770    5.0170   -0.5160 C.3    51  TYR51       0.0534
     76  CG       -23.0300    6.0100    0.6190 C.ar   51  TYR51      -0.0201
     77  CD1      -23.9870    7.0200    0.5630 C.ar   51  TYR51      -0.0009
     78  CD2      -22.2120    5.9400    1.7490 C.ar   51  TYR51      -0.0009
     79  CE1      -24.1290    7.9320    1.5990 C.ar   51  TYR51       0.0417
     80  CE2      -22.3500    6.8480    2.7960 C.ar   51  TYR51       0.0417
     81  CZ       -23.3080    7.8440    2.7100 C.ar   51  TYR51       0.1957
     82  OH       -23.4500    8.7560    3.7280 O.3    51  TYR51      -0.2866
     83  N        -18.0940    9.1430    3.4190 N.3    60  LYS60      -0.1231
     84  CA       -17.8580    9.1000    4.8520 C.3    60  LYS60       0.1693
     85  C        -17.0880   10.3020    5.3920 C.2    60  LYS60       0.2591
     86  O        -17.3370   10.7550    6.5080 O.2    60  LYS60      -0.2718
     87  CB       -17.1080    7.8050    5.2160 C.3    60  LYS60       0.0285
     88  CG       -16.9970    7.5590    6.7140 C.3    60  LYS60       0.0035
     89  CD       -16.2560    6.2590    7.0560 C.3    60  LYS60       0.0206
     90  CE       -14.7350    6.4040    6.9810 C.3    60  LYS60       0.1093
     91  NZ       -14.2190    6.5160    5.5870 N.3    60  LYS60      -0.1314
     92  N        -16.1730   10.8370    4.5950 N.am   61  LYS61      -0.1980
     93  CA       -15.3530   11.9480    5.0640 C.3    61  LYS61       0.1596
     94  C        -15.6530   13.3610    4.5680 C.2    61  LYS61       0.2287
     95  O        -15.3610   14.3320    5.2680 O.2    61  LYS61      -0.2864
     96  CB       -13.8800   11.6320    4.7810 C.3    61  LYS61       0.0298
     97  CG       -13.5760   10.3300    5.5340 C.3    61  LYS61       0.0038
     98  CD       -13.3560   10.6310    7.0070 C.3    61  LYS61       0.0206
     99  CE       -12.1560    9.7640    7.4040 C.3    61  LYS61       0.1093
    100  NZ       -12.2820    9.7540    8.8940 N.3    61  LYS61      -0.1314
@<TRIPOS>BOND
     1    74    73    2
     2    73    72    1
     3    71    72    1
     4    72    75    1
     5    65    64    2
     6    75    76    1
     7    64    63    1
     8    55    54    2
     9    77    76   ar
    10    77    79   ar
    11    76    78   ar
    12    63    62    1
    13    63    66    1
    14    54    62   am
    15    54    53    1
    16    52    53    1
    17    53    56    1
    18    79    81   ar
    19    78    80   ar
    20    66    67    1
    21    81    80   ar
    22    81    82    1
    23    59    57   ar
    24    59    61   ar
    25    56    57    1
    26    67    68    1
    27    57    58   ar
    28    83    84    1
    29    61    60   ar
    30    68    69    1
    31    58    60   ar
    32    49    50    1
    33    49    48    1
    34    50    51    2
    35    94    93    1
    36    94    95    2
    37    92    93    1
    38    92    85   am
    39    96    93    1
    40    96    97    1
    41    84    87    1
    42    84    85    1
    43    87    88    1
    44    85    86    2
    45    97    98    1
    46    69    70    1
    47    91    90    1
    48    48    46   am
    49    47    46    2
    50    46    45    1
    51    15    14    1
    52    88    89    1
    53    90    89    1
    54    98    99    1
    55    16    14    1
    56    99   100    1
    57    13    14    1
    58    13    10    1
    59     1     2    1
    60    45    44    1
    61    10     9    1
    62    10    11    1
    63     8     6    1
    64    44    39   am
    65    36    35    2
    66     2     5    1
    67     2     3    1
    68     6     5    1
    69     6     7    1
    70    11    12    2
    71    40    39    2
    72    39    38    1
    73     3     4    2
    74    33    34    1
    75    35    34    1
    76    35    37   am
    77    38    37    1
    78    38    41    1
    79    41    43    1
    80    41    42    1
    81    25    24    2
    82    24    23    1
    83    24    26   am
    84    28    27    1
    85    28    29    2
    86    23    22    1
    87    27    26    1
    88    27    30    1
    89    31    30    1
    90    30    32    1
    91    17    18    1
    92    18    21    1
    93    18    19    1
    94    20    19    2
