@<TRIPOS>MOLECULE
tmp/4kf3B00.pdb
 160 153 0 0 0
SMALL
GASTEIGER

@<TRIPOS>ATOM
      1  N        -20.4340   13.8220    4.9530 N.3     1  SER1       -0.1202
      2  CA       -19.5990   12.9590    5.8330 C.3     1  SER1        0.2020
      3  C        -20.4900   12.3400    6.8940 C.2     1  SER1        0.2619
      4  O        -21.6710   12.6730    6.9930 O.2     1  SER1       -0.2717
      5  CB       -18.5220   13.7900    6.5310 C.3     1  SER1        0.2103
      6  OG       -19.0870   14.5460    7.5950 O.3     1  SER1       -0.2182
      7  N        -19.9190   11.4480    7.7000 N.am    2  LEU2       -0.1965
      8  CA       -20.6820   10.8070    8.7640 C.3     2  LEU2        0.1728
      9  C        -21.3200   11.8490    9.6710 C.2     2  LEU2        0.2616
     10  O        -22.3580   11.5960   10.2790 O.2     2  LEU2       -0.2715
     11  CB       -19.7850    9.8990    9.6120 C.3     2  LEU2        0.0311
     12  CG       -19.3300    8.5700    9.0180 C.3     2  LEU2        0.0022
     13  CD1      -18.5380    7.8180   10.0810 C.3     2  LEU2        0.0001
     14  CD2      -20.5340    7.7400    8.5720 C.3     2  LEU2        0.0001
     15  N        -20.6950   13.0170    9.7710 N.am    3  PHE3       -0.1974
     16  CA       -21.2310   14.0690   10.6200 C.3     3  PHE3        0.1639
     17  C        -22.5770   14.5830   10.1130 C.2     3  PHE3        0.2290
     18  O        -23.5410   14.6600   10.8780 O.2     3  PHE3       -0.2864
     19  CB       -20.2560   15.2330   10.7250 C.3     3  PHE3        0.0560
     20  CG       -20.8150   16.4030   11.4710 C.ar    3  PHE3       -0.0200
     21  CD1      -21.0120   16.3370   12.8450 C.ar    3  PHE3       -0.0042
     22  CD2      -21.1990   17.5550   10.7920 C.ar    3  PHE3       -0.0042
     23  CE1      -21.5970   17.3980   13.5310 C.ar    3  PHE3       -0.0003
     24  CE2      -21.7830   18.6140   11.4670 C.ar    3  PHE3       -0.0003
     25  CZ       -21.9800   18.5370   12.8390 C.ar    3  PHE3       -0.0000
     26  N        -24.5560   13.1210    7.9400 N.3     5  LEU5       -0.1231
     27  CA       -25.4600   11.9750    7.9390 C.3     5  LEU5        0.1693
     28  C        -26.0610   11.7980    9.3290 C.2     5  LEU5        0.2592
     29  O        -27.2800   11.7030    9.4830 O.2     5  LEU5       -0.2718
     30  CB       -24.7040   10.7070    7.5400 C.3     5  LEU5        0.0284
     31  CG       -25.4640    9.3740    7.6090 C.3     5  LEU5        0.0019
     32  CD1      -26.6960    9.4260    6.7080 C.3     5  LEU5        0.0001
     33  CD2      -24.5370    8.2380    7.1840 C.3     5  LEU5        0.0001
     34  N        -25.1950   11.7560   10.3350 N.am    6  GLY6       -0.1957
     35  CA       -25.6580   11.6020   11.7010 C.3     6  GLY6        0.1869
     36  C        -26.5840   12.7300   12.1310 C.2     6  GLY6        0.2309
     37  O        -27.6130   12.4880   12.7440 O.2     6  GLY6       -0.2863
     38  N        -30.0890   12.3170   10.5320 N.3     9  ILE9       -0.1245
     39  CA       -30.8510   11.2530   11.1550 C.3     9  ILE9        0.1561
     40  C        -31.4300   11.7400   12.4740 C.2     9  ILE9        0.2260
     41  O        -32.5800   11.4680   12.7850 O.2     9  ILE9       -0.2867
     42  CB       -29.9560   10.0210   11.3680 C.3     9  ILE9        0.0252
     43  CG1      -29.6200    9.4140   10.0060 C.3     9  ILE9        0.0019
     44  CG2      -30.6470    9.0000   12.2660 C.3     9  ILE9        0.0019
     45  CD1      -28.6140    8.2850   10.0660 C.3     9  ILE9        0.0001
     46  N        -28.3810    8.9670   16.5330 N.3    17  PRO17      -0.2102
     47  CA       -28.0460    8.1430   15.3670 C.3    17  PRO17       0.1504
     48  C        -27.1400    6.9420   15.5990 C.2    17  PRO17       0.2575
     49  O        -27.4760    5.8270   15.1940 O.2    17  PRO17      -0.2718
     50  CB       -27.4600    9.1560   14.3810 C.3    17  PRO17       0.0282
     51  CG       -26.8630   10.2010   15.2770 C.3    17  PRO17       0.0208
     52  CD       -27.9080   10.3510   16.3550 C.3    17  PRO17       0.0893
     53  N        -26.0020    7.1570   16.2500 N.am   18  ALA18      -0.1980
     54  CA       -25.0720    6.0580   16.5190 C.3    18  ALA18       0.1597
     55  C        -25.7400    4.9840   17.3710 C.2    18  ALA18       0.2287
     56  O        -25.6460    3.7880   17.0830 O.2    18  ALA18      -0.2864
     57  CB       -23.8310    6.5840   17.2280 C.3    18  ALA18       0.0319
     58  N        -28.9500    3.5550   15.2520 N.3    21  TYR21      -0.1227
     59  CA       -28.6560    2.9810   13.9490 C.3    21  TYR21       0.1736
     60  C        -27.2050    2.5750   13.6920 C.2    21  TYR21       0.2596
     61  O        -26.8980    2.0050   12.6480 O.2    21  TYR21      -0.2718
     62  CB       -29.1190    3.9540   12.8680 C.3    21  TYR21       0.0548
     63  CG       -30.5570    4.3760   13.0300 C.ar   21  TYR21      -0.0200
     64  CD1      -30.8850    5.6320   13.5360 C.ar   21  TYR21      -0.0009
     65  CD2      -31.5950    3.5100   12.6890 C.ar   21  TYR21      -0.0009
     66  CE1      -32.2130    6.0100   13.7040 C.ar   21  TYR21       0.0417
     67  CE2      -32.9170    3.8750   12.8500 C.ar   21  TYR21       0.0417
     68  CZ       -33.2260    5.1230   13.3530 C.ar   21  TYR21       0.1957
     69  OH       -34.5450    5.4780   13.5010 O.3    21  TYR21      -0.2866
     70  N        -26.3200    2.8560   14.6430 N.am   22  GLY22      -0.1957
     71  CA       -24.9210    2.5120   14.4690 C.3    22  GLY22       0.1869
     72  C        -24.6620    1.0450   14.1700 C.2    22  GLY22       0.2309
     73  O        -23.7380    0.7140   13.4210 O.2    22  GLY22      -0.2863
     74  N        -28.0280   -3.8350    7.7500 N.3    27  ASN27      -0.1225
     75  CA       -27.6170   -2.7720    6.8410 C.3    27  ASN27       0.1785
     76  C        -27.2970   -1.4310    7.4910 C.2    27  ASN27       0.2597
     77  O        -26.5550   -0.6320    6.9230 O.2    27  ASN27      -0.2718
     78  CB       -28.7060   -2.5530    5.7870 C.3    27  ASN27       0.1169
     79  CG       -28.8530   -3.7310    4.8440 C.2    27  ASN27       0.2627
     80  OD1      -28.1130   -3.8570    3.8700 O.2    27  ASN27      -0.2716
     81  ND2      -29.8010   -4.6070    5.1380 N.am   27  ASN27      -0.0877
     82  N        -27.8480   -1.1710    8.6710 N.am   28  CYS28      -0.1956
     83  CA       -27.6120    0.1170    9.3100 C.3    28  CYS28       0.1843
     84  C        -26.2970    0.2280   10.0590 C.2    28  CYS28       0.2626
     85  O        -25.9210   -0.6650   10.8140 O.2    28  CYS28      -0.2714
     86  CB       -28.7680    0.4650   10.2540 C.3    28  CYS28       0.0997
     87  SG       -30.4160    0.1550    9.5530 S.3    28  CYS28      -0.0797
     88  N        -25.6040    1.3430    9.8390 N.am   29  GLY29      -0.1954
     89  CA       -24.3440    1.5840   10.5110 C.3    29  GLY29       0.1869
     90  C        -23.1380    0.8690    9.9370 C.2    29  GLY29       0.2309
     91  O        -22.9740    0.7700    8.7170 O.2    29  GLY29      -0.2863
     92  N        -31.5020    1.6250    5.2380 N.3    44  CYS44      -0.1235
     93  CA       -30.0450    1.6250    5.2270 C.3    44  CYS44       0.1677
     94  C        -29.4660    0.8550    4.0540 C.2    44  CYS44       0.2270
     95  O        -28.3860    1.1790    3.5550 O.2    44  CYS44      -0.2867
     96  CB       -29.5210    1.0450    6.5360 C.3    44  CYS44       0.0956
     97  SG       -30.0550    2.0080    7.9800 S.3    44  CYS44      -0.0801
     98  N        -29.6800    3.2050    1.2990 N.3    47  HIS47      -0.1226
     99  CA       -28.6650    4.2330    1.5270 C.3    47  HIS47       0.1752
    100  C        -27.2740    3.7620    1.1000 C.2    47  HIS47       0.2595
    101  O        -26.5200    4.5070    0.4650 O.2    47  HIS47      -0.2718
    102  CB       -28.6440    4.6130    3.0110 C.3    47  HIS47       0.0759
    103  CG       -27.7120    5.7370    3.3370 C.ar   47  HIS47       0.0818
    104  ND1      -26.6930    5.6140    4.2600 N.ar   47  HIS47      -0.2268
    105  CD2      -27.6640    7.0150    2.8930 C.ar   47  HIS47       0.1154
    106  CE1      -26.0620    6.7680    4.3720 C.ar   47  HIS47       0.1986
    107  NE2      -26.6310    7.6380    3.5530 N.ar   47  HIS47      -0.2212
    108  N        -26.9220    2.5290    1.4520 N.am   48  LYS48      -0.1980
    109  CA       -25.6100    2.0160    1.0830 C.3    48  LYS48       0.1596
    110  C        -25.4960    1.8130   -0.4160 C.2    48  LYS48       0.2287
    111  O        -24.4150    1.9440   -0.9850 O.2    48  LYS48      -0.2864
    112  CB       -25.2990    0.7310    1.8650 C.3    48  LYS48       0.0298
    113  CG       -24.9210    1.0690    3.3070 C.3    48  LYS48       0.0038
    114  CD       -24.6400   -0.1150    4.2000 C.3    48  LYS48       0.0206
    115  CE       -24.1920    0.4000    5.5690 C.3    48  LYS48       0.1093
    116  NZ       -23.9910   -0.6740    6.5740 N.3    48  LYS48      -0.1314
    117  N        -18.0940    9.1430    3.4190 N.3    60  LYS60      -0.1231
    118  CA       -17.8580    9.1000    4.8520 C.3    60  LYS60       0.1693
    119  C        -17.0880   10.3020    5.3920 C.2    60  LYS60       0.2591
    120  O        -17.3370   10.7550    6.5080 O.2    60  LYS60      -0.2718
    121  CB       -17.1080    7.8050    5.2160 C.3    60  LYS60       0.0285
    122  CG       -16.9970    7.5590    6.7140 C.3    60  LYS60       0.0035
    123  CD       -16.2560    6.2590    7.0560 C.3    60  LYS60       0.0206
    124  CE       -14.7350    6.4040    6.9810 C.3    60  LYS60       0.1093
    125  NZ       -14.2190    6.5160    5.5870 N.3    60  LYS60      -0.1314
    126  N        -16.1730   10.8370    4.5950 N.am   61  LYS61      -0.1980
    127  CA       -15.3530   11.9480    5.0640 C.3    61  LYS61       0.1596
    128  C        -15.6530   13.3610    4.5680 C.2    61  LYS61       0.2287
    129  O        -15.3610   14.3320    5.2680 O.2    61  LYS61      -0.2864
    130  CB       -13.8800   11.6320    4.7810 C.3    61  LYS61       0.0298
    131  CG       -13.5760   10.3300    5.5340 C.3    61  LYS61       0.0038
    132  CD       -13.3560   10.6310    7.0070 C.3    61  LYS61       0.0206
    133  CE       -12.1560    9.7640    7.4040 C.3    61  LYS61       0.1093
    134  NZ       -12.2820    9.7540    8.8940 N.3    61  LYS61      -0.1314
    135  N        -17.3940   16.7430    3.9060 N.3    63  ARG63      -0.1245
    136  CA       -18.4230   17.6020    4.4460 C.3    63  ARG63       0.1563
    137  C        -19.1650   18.2240    3.2760 C.2    63  ARG63       0.2260
    138  O        -18.6290   18.3460    2.1740 O.2    63  ARG63      -0.2867
    139  CB       -17.7950   18.7230    5.2810 C.3    63  ARG63       0.0307
    140  CG       -16.9670   18.2580    6.4680 C.3    63  ARG63       0.0489
    141  CD       -17.8560   17.7770    7.5910 C.3    63  ARG63       0.2205
    142  NE       -18.7540   18.8340    8.0580 N.pl3  63  ARG63      -0.0865
    143  CZ       -18.3660   19.9060    8.7410 C.cat  63  ARG63       0.5346
    144  NH1      -19.2590   20.8130    9.1190 N.pl3  63  ARG63       0.1354
    145  NH2      -17.0880   20.0660    9.0550 N.pl3  63  ARG63       0.1354
    146  N        -32.1330    8.6920    3.5370 N.3    92  VAL92      -0.1245
    147  CA       -32.1170    7.6810    4.5870 C.3    92  VAL92       0.1561
    148  C        -32.6410    8.2680    5.8940 C.2    92  VAL92       0.2260
    149  O        -33.3930    7.6130    6.6160 O.2    92  VAL92      -0.2867
    150  CB       -30.7000    7.0770    4.7880 C.3    92  VAL92       0.0252
    151  CG1      -29.7870    8.0500    5.5390 C.3    92  VAL92       0.0019
    152  CG2      -30.8150    5.7490    5.5150 C.3    92  VAL92       0.0019
    153  N        -35.6940    6.6020    7.6940 N.3    96  LEU96      -0.1245
    154  CA       -35.6220    6.0840    9.0560 C.3    96  LEU96       0.1561
    155  C        -36.7390    6.6850    9.8930 C.2    96  LEU96       0.2260
    156  O        -37.3460    6.0040   10.7170 O.2    96  LEU96      -0.2867
    157  CB       -34.2550    6.3900    9.6700 C.3    96  LEU96       0.0270
    158  CG       -33.0640    5.7060    8.9900 C.3    96  LEU96       0.0019
    159  CD1      -31.7640    6.1140    9.6750 C.3    96  LEU96       0.0001
    160  CD2      -33.2330    4.2020    9.0560 C.3    96  LEU96       0.0001
@<TRIPOS>BOND
     1   111   110    2
     2   110   109    1
     3   101   100    2
     4   109   108    1
     5   109   112    1
     6   100   108   am
     7   100    99    1
     8    98    99    1
     9    99   102    1
    10   112   113    1
    11   138   137    2
    12   105   103   ar
    13   105   107   ar
    14   102   103    1
    15   137   136    1
    16   113   114    1
    17   103   104   ar
    18   117   118    1
    19   146   147    1
    20   107   106   ar
    21    95    94    2
    22    80    79    2
    23   135   136    1
    24    94    93    1
    25   114   115    1
    26   104   106   ar
    27   136   139    1
    28   128   127    1
    29   128   129    2
    30   147   150    1
    31   147   148    1
    32   126   127    1
    33   126   119   am
    34   130   127    1
    35   130   131    1
    36   150   152    1
    37   150   151    1
    38    79    81   am
    39    79    78    1
    40   118   121    1
    41   118   119    1
    42     1     2    1
    43   121   122    1
    44    93    92    1
    45    93    96    1
    46   139   140    1
    47   119   120    2
    48   131   132    1
    49   115   116    1
    50   125   124    1
    51    78    75    1
    52     2     5    1
    53     2     3    1
    54   148   149    2
    55   140   141    1
    56     5     6    1
    57    96    97    1
    58    32    31    1
    59   122   123    1
    60    75    76    1
    61    75    74    1
    62     3     4    2
    63     3     7   am
    64    77    76    2
    65   124   123    1
    66   132   133    1
    67    33    31    1
    68   133   134    1
    69    76    82   am
    70    30    31    1
    71    30    27    1
    72   141   142    1
    73   153   154    1
    74     7     8    1
    75    27    26    1
    76    27    28    1
    77    97    87    1
    78   142   143    2
    79    14    12    1
    80    82    83    1
    81    91    90    2
    82   143   145    1
    83   143   144    1
    84     8    11    1
    85     8     9    1
    86   158   160    1
    87   158   157    1
    88   158   159    1
    89    12    11    1
    90    12    13    1
    91   154   157    1
    92   154   155    1
    93    83    84    1
    94    83    86    1
    95    28    29    2
    96    28    34   am
    97    87    86    1
    98     9    15   am
    99     9    10    2
   100    15    16    1
   101    88    84   am
   102    88    89    1
   103   155   156    2
   104    90    89    1
   105    43    45    1
   106    43    42    1
   107    84    85    2
   108    17    16    1
   109    17    18    2
   110    34    35    1
   111    38    39    1
   112    16    19    1
   113    19    20    1
   114    22    24   ar
   115    22    20   ar
   116    39    42    1
   117    39    40    1
   118    42    44    1
   119    24    25   ar
   120    20    21   ar
   121    35    36    1
   122    36    37    2
   123    40    41    2
   124    61    60    2
   125    65    67   ar
   126    65    63   ar
   127    25    23   ar
   128    21    23   ar
   129    67    68   ar
   130    62    63    1
   131    62    59    1
   132    63    64   ar
   133    68    69    1
   134    68    66   ar
   135    73    72    2
   136    64    66   ar
   137    60    59    1
   138    60    70   am
   139    59    58    1
   140    72    71    1
   141    50    51    1
   142    50    47    1
   143    71    70    1
   144    49    48    2
   145    51    52    1
   146    47    48    1
   147    47    46    1
   148    48    53   am
   149    53    54    1
   150    52    46    1
   151    54    57    1
   152    54    55    1
   153    56    55    2
