@<TRIPOS>MOLECULE
tmp/4kf3B03.pdb
 111 111 0 0 0
SMALL
GASTEIGER

@<TRIPOS>ATOM
      1  N        -20.6950   13.0170    9.7710 N.3     3  PHE3       -0.1227
      2  CA       -21.2310   14.0690   10.6200 C.3     3  PHE3        0.1736
      3  C        -22.5770   14.5830   10.1130 C.2     3  PHE3        0.2595
      4  O        -23.5410   14.6600   10.8780 O.2     3  PHE3       -0.2718
      5  CB       -20.2560   15.2330   10.7250 C.3     3  PHE3        0.0547
      6  CG       -20.8150   16.4030   11.4710 C.ar    3  PHE3       -0.0202
      7  CD1      -21.0120   16.3370   12.8450 C.ar    3  PHE3       -0.0042
      8  CD2      -21.1990   17.5550   10.7920 C.ar    3  PHE3       -0.0042
      9  CE1      -21.5970   17.3980   13.5310 C.ar    3  PHE3       -0.0003
     10  CE2      -21.7830   18.6140   11.4670 C.ar    3  PHE3       -0.0003
     11  CZ       -21.9800   18.5370   12.8390 C.ar    3  PHE3       -0.0000
     12  N        -22.6480   14.9410    8.8310 N.am    4  GLU4       -0.1979
     13  CA       -23.9010   15.4340    8.2570 C.3     4  GLU4        0.1602
     14  C        -24.9570   14.3380    8.3080 C.2     4  GLU4        0.2287
     15  O        -26.1090   14.5950    8.6490 O.2     4  GLU4       -0.2864
     16  CB       -23.7320   15.8580    6.7930 C.3     4  GLU4        0.0415
     17  CG       -22.9860   17.1650    6.5480 C.3     4  GLU4        0.1163
     18  CD       -21.4980   17.0490    6.7750 C.2     4  GLU4        0.3649
     19  OE1      -20.9400   15.9610    6.5210 O.co2   4  GLU4       -0.2457
     20  OE2      -20.8820   18.0510    7.1880 O.co2   4  GLU4       -0.2457
     21  N        -26.2220   13.9670   11.8150 N.3     7  LYS7       -0.1245
     22  CA       -27.0530   15.1090   12.1940 C.3     7  LYS7        0.1561
     23  C        -28.4360   15.0230   11.5310 C.2     7  LYS7        0.2260
     24  O        -29.4550   15.2990   12.1630 O.2     7  LYS7       -0.2867
     25  CB       -26.3560   16.4160   11.8110 C.3     7  LYS7        0.0271
     26  CG       -27.0370   17.6610   12.3510 C.3     7  LYS7        0.0035
     27  CD       -26.2100   18.9110   12.0900 C.3     7  LYS7        0.0206
     28  CE       -26.8270   20.1160   12.7860 C.3     7  LYS7        0.1093
     29  NZ       -26.1430   21.3870   12.4310 N.3     7  LYS7       -0.1314
     30  N        -30.6320   12.4740   13.2410 N.3    10  LEU10      -0.1231
     31  CA       -31.0900   13.0130   14.5180 C.3    10  LEU10       0.1693
     32  C        -32.2320   13.9860   14.2470 C.2    10  LEU10       0.2591
     33  O        -33.2810   13.9440   14.8950 O.2    10  LEU10      -0.2718
     34  CB       -29.9450   13.7470   15.2250 C.3    10  LEU10       0.0284
     35  CG       -30.2960   14.4550   16.5400 C.3    10  LEU10       0.0019
     36  CD1      -30.8940   13.4630   17.5260 C.3    10  LEU10       0.0001
     37  CD2      -29.0480   15.0940   17.1240 C.3    10  LEU10       0.0001
     38  N        -32.0290   14.8530   13.2630 N.am   11  GLN11      -0.1979
     39  CA       -33.0330   15.8450   12.9060 C.3    11  GLN11       0.1601
     40  C        -34.3530   15.2230   12.4660 C.2    11  GLN11       0.2287
     41  O        -35.4180   15.6430   12.9110 O.2    11  GLN11      -0.2864
     42  CB       -32.4950   16.7610   11.8010 C.3    11  GLN11       0.0394
     43  CG       -31.4550   17.7330   12.3040 C.3    11  GLN11       0.0908
     44  CD       -30.7440   18.4850   11.1990 C.2    11  GLN11       0.2608
     45  OE1      -30.3160   19.6170   11.3990 O.2    11  GLN11      -0.2717
     46  NE2      -30.5940   17.8580   10.0390 N.am   11  GLN11      -0.0878
     47  N        -35.1140   12.2840   15.6160 N.3    14  GLY14      -0.1225
     48  CA       -35.0800   12.7330   16.9940 C.3    14  GLY14       0.1811
     49  C        -34.3050   11.7440   17.8440 C.2    14  GLY14       0.2280
     50  O        -34.2070   11.8970   19.0590 O.2    14  GLY14      -0.2866
     51  N        -17.3940   16.7430    3.9060 N.3    63  ARG63      -0.1231
     52  CA       -18.4230   17.6020    4.4460 C.3    63  ARG63       0.1694
     53  C        -19.1650   18.2240    3.2760 C.2    63  ARG63       0.2592
     54  O        -18.6290   18.3460    2.1740 O.2    63  ARG63      -0.2718
     55  CB       -17.7950   18.7230    5.2810 C.3    63  ARG63       0.0321
     56  CG       -16.9670   18.2580    6.4680 C.3    63  ARG63       0.0489
     57  CD       -17.8560   17.7770    7.5910 C.3    63  ARG63       0.2205
     58  NE       -18.7540   18.8340    8.0580 N.pl3  63  ARG63      -0.0865
     59  CZ       -18.3660   19.9060    8.7410 C.cat  63  ARG63       0.5346
     60  NH1      -19.2590   20.8130    9.1190 N.pl3  63  ARG63       0.1354
     61  NH2      -17.0880   20.0660    9.0550 N.pl3  63  ARG63       0.1354
     62  N        -20.4120   18.5940    3.5160 N.am   64  TYR64      -0.1962
     63  CA       -21.2070   19.2580    2.5070 C.3    64  TYR64       0.1771
     64  C        -22.1610   20.1830    3.2270 C.2    64  TYR64       0.2620
     65  O        -22.3750   20.0530    4.4340 O.2    64  TYR64      -0.2715
     66  CB       -21.9720   18.2610    1.6320 C.3    64  TYR64       0.0574
     67  CG       -22.8520   17.2830    2.3670 C.ar   64  TYR64      -0.0198
     68  CD1      -22.4560   15.9590    2.5440 C.ar   64  TYR64      -0.0009
     69  CD2      -24.0970   17.6700    2.8560 C.ar   64  TYR64      -0.0009
     70  CE1      -23.2790   15.0460    3.1790 C.ar   64  TYR64       0.0417
     71  CE2      -24.9320   16.7610    3.4950 C.ar   64  TYR64       0.0417
     72  CZ       -24.5130   15.4560    3.6510 C.ar   64  TYR64       0.1957
     73  OH       -25.3290   14.5560    4.2660 O.3    64  TYR64      -0.2866
     74  N        -22.7250   21.1270    2.4900 N.am   65  SER65      -0.1936
     75  CA       -23.6410   22.0770    3.0790 C.3    65  SER65       0.2055
     76  C        -25.0820   21.6670    2.8480 C.2    65  SER65       0.2643
     77  O        -25.4320   21.1310    1.7980 O.2    65  SER65      -0.2714
     78  CB       -23.4170   23.4650    2.4750 C.3    65  SER65       0.2130
     79  OG       -22.0590   23.8510    2.5880 O.3    65  SER65      -0.2179
     80  N        -25.9130   21.9220    3.8460 N.am   66  TYR66      -0.1959
     81  CA       -27.3290   21.6390    3.7420 C.3    66  TYR66       0.1771
     82  C        -27.9820   22.5010    4.7950 C.2    66  TYR66       0.2620
     83  O        -27.3370   22.9090    5.7540 O.2    66  TYR66      -0.2715
     84  CB       -27.6230   20.1460    3.9530 C.3    66  TYR66       0.0574
     85  CG       -27.7330   19.6600    5.3810 C.ar   66  TYR66      -0.0198
     86  CD1      -28.9310   19.7760    6.0960 C.ar   66  TYR66      -0.0009
     87  CD2      -26.6730   18.9850    5.9800 C.ar   66  TYR66      -0.0009
     88  CE1      -29.0670   19.2140    7.3680 C.ar   66  TYR66       0.0417
     89  CE2      -26.7970   18.4260    7.2480 C.ar   66  TYR66       0.0417
     90  CZ       -27.9950   18.5360    7.9330 C.ar   66  TYR66       0.1957
     91  OH       -28.1130   17.9250    9.1620 O.3    66  TYR66      -0.2866
     92  N        -29.2540   22.8000    4.6000 N.am   67  SER67      -0.1936
     93  CA       -29.9560   23.6530    5.5320 C.3    67  SER67       0.2055
     94  C        -31.1340   22.9490    6.1440 C.2    67  SER67       0.2643
     95  O        -31.6040   21.9320    5.6460 O.2    67  SER67      -0.2714
     96  CB       -30.4620   24.9090    4.8140 C.3    67  SER67       0.2130
     97  OG       -29.4000   25.6020    4.1900 O.3    67  SER67      -0.2179
     98  N        -31.5970   23.5120    7.2450 N.am   68  TRP68      -0.1973
     99  CA       -32.7570   23.0090    7.9480 C.3    68  TRP68       0.1640
    100  C        -33.7260   24.1610    7.6930 C.2    68  TRP68       0.2290
    101  O        -33.6630   25.2040    8.3440 O.2    68  TRP68      -0.2864
    102  CB       -32.4220   22.8490    9.4290 C.3    68  TRP68       0.0576
    103  CG       -33.5310   22.3580   10.3170 C.ar   68  TRP68       0.0006
    104  CD1      -34.0790   23.0280   11.3680 C.ar   68  TRP68       0.0946
    105  CD2      -34.1470   21.0630   10.3040 C.ar   68  TRP68       0.0152
    106  NE1      -34.9940   22.2350   12.0180 N.ar   68  TRP68      -0.2442
    107  CE2      -35.0620   21.0220   11.3810 C.ar   68  TRP68       0.0810
    108  CE3      -34.0260   19.9350    9.4800 C.ar   68  TRP68       0.0012
    109  CZ2      -35.8380   19.8960   11.6720 C.ar   68  TRP68       0.0191
    110  CZ3      -34.7970   18.8150    9.7640 C.ar   68  TRP68       0.0001
    111  CH2      -35.7000   18.8060   10.8510 C.ar   68  TRP68       0.0015
@<TRIPOS>BOND
     1    66    67    1
     2    66    63    1
     3    77    76    2
     4    54    53    2
     5    67    68   ar
     6    67    69   ar
     7    78    79    1
     8    78    75    1
     9    74    75    1
    10    74    64   am
    11    63    64    1
    12    63    62    1
    13    68    70   ar
    14    76    75    1
    15    76    80   am
    16    69    71   ar
    17    70    72   ar
    18    64    65    2
    19    53    62   am
    20    53    52    1
    21    71    72   ar
    22    72    73    1
    23    81    80    1
    24    81    84    1
    25    81    82    1
    26    51    52    1
    27    84    85    1
    28    97    96    1
    29    52    55    1
    30    92    82   am
    31    92    93    1
    32    82    83    2
    33    96    93    1
    34    55    56    1
    35    85    87   ar
    36    85    86   ar
    37    93    94    1
    38    95    94    2
    39    87    89   ar
    40    86    88   ar
    41    94    98   am
    42    56    57    1
    43    19    18   ar
    44    17    18    1
    45    17    16    1
    46    18    20   ar
    47    16    13    1
    48    98    99    1
    49    89    90   ar
    50    88    90   ar
    51    57    58    1
    52   100    99    1
    53   100   101    2
    54    90    91    1
    55    99   102    1
    56    58    59    2
    57    13    14    1
    58    13    12    1
    59    14    15    2
    60    59    61    1
    61    59    60    1
    62    12     3   am
    63   102   103    1
    64   108   110   ar
    65   108   105   ar
    66   110   111   ar
    67     1     2    1
    68    46    44   am
    69     3     2    1
    70     3     4    2
    71   105   103   ar
    72   105   107   ar
    73   103   104   ar
    74     2     5    1
    75     5     6    1
    76     8    10   ar
    77     8     6   ar
    78   111   109   ar
    79    44    45    2
    80    44    43    1
    81   104   106   ar
    82   107   109   ar
    83   107   106   ar
    84    10    11   ar
    85     6     7   ar
    86    23    24    2
    87    23    22    1
    88    42    43    1
    89    42    39    1
    90    25    22    1
    91    25    26    1
    92    21    22    1
    93    27    26    1
    94    27    28    1
    95    29    28    1
    96    40    39    1
    97    40    41    2
    98    11     9   ar
    99     7     9   ar
   100    39    38    1
   101    30    31    1
   102    38    32   am
   103    32    31    1
   104    32    33    2
   105    31    34    1
   106    34    35    1
   107    47    48    1
   108    35    37    1
   109    35    36    1
   110    48    49    1
   111    49    50    2
