@<TRIPOS>MOLECULE
tmp/4kf6B00.pdb
 191 183 0 0 0
SMALL
GASTEIGER

@<TRIPOS>ATOM
      1  N        -38.9750  -14.2660    9.3020 N.3    37  LEU37      -0.1245
      2  CA       -37.7370  -13.8150    9.9200 C.3    37  LEU37       0.1561
      3  C        -37.8980  -13.7760   11.4380 C.2    37  LEU37       0.2260
      4  O        -36.9850  -14.1470   12.1750 O.2    37  LEU37      -0.2867
      5  CB       -37.3260  -12.4440    9.3720 C.3    37  LEU37       0.0270
      6  CG       -36.8330  -12.4100    7.9260 C.3    37  LEU37       0.0019
      7  CD1      -36.6160  -10.9700    7.5230 C.3    37  LEU37       0.0001
      8  CD2      -35.5450  -13.1720    7.7490 C.3    37  LEU37       0.0001
      9  N        -35.3180   -8.1240   15.3930 N.3    46  PHE46      -0.1227
     10  CA       -34.7840   -6.7660   15.4960 C.3    46  PHE46       0.1736
     11  C        -34.2000   -6.2530   14.1850 C.2    46  PHE46       0.2595
     12  O        -34.3340   -5.0750   13.8620 O.2    46  PHE46      -0.2718
     13  CB       -33.7480   -6.6890   16.6230 C.3    46  PHE46       0.0547
     14  CG       -33.0990   -5.3400   16.7600 C.ar   46  PHE46      -0.0202
     15  CD1      -33.8590   -4.1940   16.9460 C.ar   46  PHE46      -0.0042
     16  CD2      -31.7170   -5.2330   16.7880 C.ar   46  PHE46      -0.0042
     17  CE1      -33.2500   -2.9550   17.0830 C.ar   46  PHE46      -0.0003
     18  CE2      -31.1040   -4.0010   16.9390 C.ar   46  PHE46      -0.0003
     19  CZ       -31.8720   -2.8610   17.0860 C.ar   46  PHE46      -0.0000
     20  N        -33.5490   -7.1330   13.4370 N.am   47  ILE47      -0.1966
     21  CA       -33.0350   -6.7790   12.1230 C.3    47  ILE47       0.1727
     22  C        -34.1880   -6.3710   11.2030 C.2    47  ILE47       0.2616
     23  O        -34.2190   -5.2640   10.6720 O.2    47  ILE47      -0.2715
     24  CB       -32.2520   -7.9560   11.4990 C.3    47  ILE47       0.0290
     25  CG1      -30.9900   -8.2550   12.3140 C.3    47  ILE47       0.0022
     26  CG2      -31.9120   -7.6720   10.0510 C.3    47  ILE47       0.0023
     27  CD1      -30.2560   -7.0200   12.8010 C.3    47  ILE47       0.0001
     28  N        -35.1490   -7.2740   11.0530 N.am   48  SER48      -0.1950
     29  CA       -36.3020   -7.0890   10.1800 C.3    48  SER48       0.1924
     30  C        -37.2340   -5.9510   10.5950 C.2    48  SER48       0.2314
     31  O        -38.2180   -5.6780    9.9100 O.2    48  SER48      -0.2863
     32  CB       -37.1070   -8.3880   10.1120 C.3    48  SER48       0.2116
     33  OG       -38.0060   -8.4760   11.2050 O.3    48  SER48      -0.2180
     34  N        -36.7660   -2.9970   10.3520 N.3    50  ASP50      -0.1225
     35  CA       -36.6180   -1.9600    9.3370 C.3    50  ASP50       0.1805
     36  C        -37.4540   -2.3050    8.0930 C.2    50  ASP50       0.2597
     37  O        -38.0780   -1.4270    7.4950 O.2    50  ASP50      -0.2718
     38  CB       -35.1410   -1.7820    8.9780 C.3    50  ASP50       0.1424
     39  CG       -34.9160   -0.7100    7.9340 C.2    50  ASP50       0.3668
     40  OD1      -35.0880    0.4870    8.2520 O.co2  50  ASP50      -0.2456
     41  OD2      -34.5880   -1.0600    6.7880 O.co2  50  ASP50      -0.2456
     42  N        -37.4150   -3.5760    7.6860 N.am   51  VAL51      -0.1980
     43  CA       -38.2410   -4.0940    6.5840 C.3    51  VAL51       0.1595
     44  C        -39.7270   -3.7880    6.7970 C.2    51  VAL51       0.2287
     45  O        -40.4540   -3.4900    5.8500 O.2    51  VAL51      -0.2864
     46  CB       -38.0590   -5.6230    6.4050 C.3    51  VAL51       0.0276
     47  CG1      -39.0850   -6.1960    5.4450 C.3    51  VAL51       0.0022
     48  CG2      -36.6590   -5.9340    5.9330 C.3    51  VAL51       0.0022
     49  N        -40.5880   -0.0440    6.2340 N.3    54  LYS54      -0.1245
     50  CA       -40.6500    0.3340    4.8280 C.3    54  LYS54       0.1561
     51  C        -41.9630   -0.1230    4.2300 C.2    54  LYS54       0.2260
     52  O        -42.5590    0.5890    3.4270 O.2    54  LYS54      -0.2867
     53  CB       -39.4680   -0.2500    4.0560 C.3    54  LYS54       0.0271
     54  CG       -38.1640    0.4980    4.2990 C.3    54  LYS54       0.0035
     55  CD       -36.9510   -0.2800    3.8130 C.3    54  LYS54       0.0206
     56  CE       -35.6790    0.5470    3.9280 C.3    54  LYS54       0.1093
     57  NZ       -35.3950    1.0010    5.3120 N.3    54  LYS54      -0.1314
     58  N        -29.0580   12.0530   -1.2130 N.3    91  ARG91      -0.1245
     59  CA       -30.0910   12.1910   -0.1960 C.3    91  ARG91       0.1563
     60  C        -30.5750   13.6370   -0.1730 C.2    91  ARG91       0.2260
     61  O        -29.7720   14.5750   -0.1520 O.2    91  ARG91      -0.2867
     62  CB       -29.5680   11.7660    1.1770 C.3    91  ARG91       0.0307
     63  CG       -28.8990   10.4180    1.1840 C.3    91  ARG91       0.0489
     64  CD       -28.7560    9.9110    2.6130 C.3    91  ARG91       0.2205
     65  NE       -28.6490    8.4690    2.5980 N.pl3  91  ARG91      -0.0865
     66  CZ       -29.5370    7.6370    3.1210 C.cat  91  ARG91       0.5346
     67  NH1      -30.6190    8.0780    3.7420 N.pl3  91  ARG91       0.1354
     68  NH2      -29.3660    6.3440    2.9590 N.pl3  91  ARG91       0.1354
     69  N        -37.0130    4.5750   -4.0310 N.3   100  ARG100     -0.1245
     70  CA       -35.8770    4.2580   -3.1820 C.3   100  ARG100      0.1563
     71  C        -36.2770    3.2480   -2.1050 C.2   100  ARG100      0.2260
     72  O        -35.4610    2.4370   -1.6760 O.2   100  ARG100     -0.2867
     73  CB       -35.2910    5.5360   -2.5590 C.3   100  ARG100      0.0307
     74  CG       -36.1460    6.2110   -1.5000 C.3   100  ARG100      0.0489
     75  CD       -35.8280    5.6950   -0.1040 C.3   100  ARG100      0.2205
     76  NE       -34.4500    5.9600    0.2960 N.pl3 100  ARG100     -0.0865
     77  CZ       -33.7470    5.1660    1.0970 C.cat 100  ARG100      0.5346
     78  NH1      -32.4990    5.4770    1.4250 N.pl3 100  ARG100      0.1354
     79  NH2      -34.2930    4.0560    1.5690 N.pl3 100  ARG100      0.1354
     80  N        -34.8930   -0.9100   -1.5890 N.3   104  ARG104     -0.1231
     81  CA       -34.3660   -1.5410   -0.3800 C.3   104  ARG104      0.1694
     82  C        -35.0230   -2.8900   -0.0850 C.2   104  ARG104      0.2591
     83  O        -34.3580   -3.8360    0.3320 O.2   104  ARG104     -0.2718
     84  CB       -34.5290   -0.6140    0.8190 C.3   104  ARG104      0.0321
     85  CG       -33.3240    0.2800    1.0950 C.3   104  ARG104      0.0489
     86  CD       -33.1210    1.3170    0.0080 C.3   104  ARG104      0.2205
     87  NE       -31.9960    2.2040    0.2830 N.pl3 104  ARG104     -0.0865
     88  CZ       -31.5530    3.1210   -0.5710 C.cat 104  ARG104      0.5346
     89  NH1      -32.1450    3.2750   -1.7460 N.pl3 104  ARG104      0.1354
     90  NH2      -30.5200    3.8880   -0.2540 N.pl3 104  ARG104      0.1354
     91  N        -36.3360   -2.9650   -0.2610 N.am  105  LEU105     -0.1980
     92  CA       -37.0460   -4.2340   -0.1280 C.3   105  LEU105      0.1596
     93  C        -36.5300   -5.2160   -1.1740 C.2   105  LEU105      0.2287
     94  O        -36.2760   -6.3810   -0.8770 O.2   105  LEU105     -0.2864
     95  CB       -38.5510   -4.0280   -0.2880 C.3   105  LEU105      0.0297
     96  CG       -39.2320   -3.1830    0.7920 C.3   105  LEU105      0.0022
     97  CD1      -40.6170   -2.7700    0.3330 C.3   105  LEU105      0.0001
     98  CD2      -39.3040   -3.9130    2.1250 C.3   105  LEU105      0.0001
     99  N        -33.5520   -5.3090   -2.7710 N.3   107  ARG107     -0.1231
    100  CA       -32.2370   -5.8360   -2.4200 C.3   107  ARG107      0.1694
    101  C        -32.3100   -6.9160   -1.3380 C.2   107  ARG107      0.2591
    102  O        -31.5720   -7.8990   -1.3790 O.2   107  ARG107     -0.2718
    103  CB       -31.3120   -4.7130   -1.9470 C.3   107  ARG107      0.0321
    104  CG       -31.1220   -3.5880   -2.9380 C.3   107  ARG107      0.0489
    105  CD       -29.7730   -2.9570   -2.7090 C.3   107  ARG107      0.2205
    106  NE       -29.5520   -1.7100   -3.4360 N.pl3 107  ARG107     -0.0865
    107  CZ       -29.4790   -0.5170   -2.8560 C.cat 107  ARG107      0.5346
    108  NH1      -29.5890   -0.4160   -1.5350 N.pl3 107  ARG107      0.1354
    109  NH2      -29.2690    0.5690   -3.5900 N.pl3 107  ARG107      0.1354
    110  N        -33.1880   -6.7110   -0.3630 N.am  108  ALA108     -0.1980
    111  CA       -33.3820   -7.6730    0.7130 C.3   108  ALA108      0.1597
    112  C        -33.9850   -8.9670    0.1800 C.2   108  ALA108      0.2287
    113  O        -33.6190  -10.0660    0.6080 O.2   108  ALA108     -0.2864
    114  CB       -34.2630   -7.0850    1.8020 C.3   108  ALA108      0.0319
    115  N        -31.4370  -11.0510   -1.2810 N.3   111  TRP111     -0.1241
    116  CA       -30.6490  -11.7030   -0.2450 C.3   111  TRP111      0.1605
    117  C        -31.3500  -12.9580    0.2370 C.2   111  TRP111      0.2264
    118  O        -30.7140  -13.9880    0.4300 O.2   111  TRP111     -0.2867
    119  CB       -30.4040  -10.7650    0.9330 C.3   111  TRP111      0.0550
    120  CG       -30.0360  -11.4890    2.1920 C.ar  111  TRP111      0.0003
    121  CD1      -28.9470  -12.2850    2.3940 C.ar  111  TRP111      0.0946
    122  CD2      -30.7720  -11.4970    3.4190 C.ar  111  TRP111      0.0152
    123  NE1      -28.9500  -12.7770    3.6780 N.ar  111  TRP111     -0.2442
    124  CE2      -30.0640  -12.3120    4.3270 C.ar  111  TRP111      0.0810
    125  CE3      -31.9600  -10.8900    3.8430 C.ar  111  TRP111      0.0012
    126  CZ2      -30.5060  -12.5350    5.6340 C.ar  111  TRP111      0.0191
    127  CZ3      -32.3980  -11.1130    5.1410 C.ar  111  TRP111      0.0001
    128  CH2      -31.6740  -11.9270    6.0200 C.ar  111  TRP111      0.0015
    129  N        -25.4760  -12.8610    1.7750 N.3   136  TYR136     -0.1241
    130  CA       -25.5320  -11.4840    2.2510 C.3   136  TYR136      0.1605
    131  C        -24.5030  -10.6340    1.5250 C.2   136  TYR136      0.2264
    132  O        -24.8000   -9.5320    1.0760 O.2   136  TYR136     -0.2867
    133  CB       -25.2570  -11.4180    3.7430 C.3   136  TYR136      0.0534
    134  CG       -25.1850  -10.0130    4.2840 C.ar  136  TYR136     -0.0201
    135  CD1      -26.3270   -9.2400    4.4330 C.ar  136  TYR136     -0.0009
    136  CD2      -23.9580   -9.4280    4.5630 C.ar  136  TYR136     -0.0009
    137  CE1      -26.2540   -7.9450    4.9210 C.ar  136  TYR136      0.0417
    138  CE2      -23.8750   -8.1340    5.0360 C.ar  136  TYR136      0.0417
    139  CZ       -25.0260   -7.3950    5.2120 C.ar  136  TYR136      0.1957
    140  OH       -24.9520   -6.1030    5.6840 O.3   136  TYR136     -0.2866
    141  N        -26.2450   -7.5970   -0.2280 N.3   140  LEU140     -0.1245
    142  CA       -26.4820   -6.4590    0.6510 C.3   140  LEU140      0.1561
    143  C        -25.2120   -5.7860    1.1810 C.2   140  LEU140      0.2260
    144  O        -25.1850   -4.5660    1.3560 O.2   140  LEU140     -0.2867
    145  CB       -27.3440   -6.8880    1.8410 C.3   140  LEU140      0.0270
    146  CG       -28.8420   -7.1210    1.6620 C.3   140  LEU140      0.0019
    147  CD1      -29.4840   -7.4200    2.9960 C.3   140  LEU140      0.0001
    148  CD2      -29.4970   -5.9150    1.0410 C.3   140  LEU140      0.0001
    149  N        -24.4420   -1.6900    2.6450 N.3   144  HIS144     -0.1227
    150  CA       -24.6900   -1.5010    4.0660 C.3   144  HIS144      0.1737
    151  C        -23.5320   -0.8300    4.7870 C.2   144  HIS144      0.2438
    152  O        -22.3650   -1.0050    4.4280 O.2   144  HIS144     -0.2733
    153  CB       -25.0300   -2.8370    4.7290 C.3   144  HIS144      0.0758
    154  CG       -26.4680   -3.2180    4.5820 C.ar  144  HIS144      0.0818
    155  ND1      -26.9450   -4.4780    4.8710 N.ar  144  HIS144     -0.2268
    156  CD2      -27.5370   -2.4930    4.1800 C.ar  144  HIS144      0.1154
    157  CE1      -28.2450   -4.5150    4.6430 C.ar  144  HIS144      0.1986
    158  NE2      -28.6290   -3.3230    4.2230 N.ar  144  HIS144     -0.2212
    159  N        -23.8670   -0.0360    5.8100 N.am  145  PRO145     -0.2729
    160  CA       -22.8820    0.6280    6.6600 C.3   145  PRO145      0.1401
    161  C        -22.0930   -0.3890    7.4710 C.2   145  PRO145      0.2269
    162  O        -22.5560   -1.5090    7.6530 O.2   145  PRO145     -0.2865
    163  CB       -23.7420    1.5060    7.5770 C.3   145  PRO145      0.0296
    164  CG       -25.0440    1.6130    6.8950 C.3   145  PRO145      0.0237
    165  CD       -25.2420    0.3400    6.1680 C.3   145  PRO145      0.0939
    166  N        -21.5140   -0.4520   10.6690 N.3   147  VAL147     -0.1231
    167  CA       -22.2530   -0.8030   11.8700 C.3   147  VAL147      0.1692
    168  C        -23.3280   -1.8570   11.6050 C.2   147  VAL147      0.2591
    169  O        -23.4450   -2.8250   12.3550 O.2   147  VAL147     -0.2718
    170  CB       -22.8920    0.4550   12.5030 C.3   147  VAL147      0.0266
    171  CG1      -23.5560    1.3180   11.4480 C.3   147  VAL147      0.0020
    172  CG2      -23.8640    0.0760   13.5960 C.3   147  VAL147      0.0020
    173  N        -24.0810   -1.7080   10.5210 N.am  148  VAL148     -0.1980
    174  CA       -25.1000   -2.7030   10.1950 C.3   148  VAL148      0.1595
    175  C        -24.4860   -4.0570    9.8410 C.2   148  VAL148      0.2287
    176  O        -24.8520   -5.0670   10.4330 O.2   148  VAL148     -0.2864
    177  CB       -26.0010   -2.2450    9.0440 C.3   148  VAL148      0.0276
    178  CG1      -27.0080   -3.3310    8.7120 C.3   148  VAL148      0.0022
    179  CG2      -26.7260   -0.9770    9.4300 C.3   148  VAL148      0.0022
    180  N        -23.4040   -5.8400   12.7270 N.3   151  ALA151     -0.1231
    181  CA       -24.5870   -6.2140   13.5180 C.3   151  ALA151      0.1694
    182  C        -25.3220   -7.4100   12.9010 C.2   151  ALA151      0.2591
    183  O        -25.6870   -8.3620   13.5890 O.2   151  ALA151     -0.2718
    184  CB       -25.5360   -5.0280   13.6610 C.3   151  ALA151      0.0304
    185  N        -25.5860   -7.3200   11.6040 N.am  152  VAL152     -0.1980
    186  CA       -26.2180   -8.4030   10.8600 C.3   152  VAL152      0.1595
    187  C        -25.4630   -9.7240   11.0220 C.2   152  VAL152      0.2287
    188  O        -26.0660  -10.7730   11.2490 O.2   152  VAL152     -0.2864
    189  CB       -26.3220   -8.0410    9.3630 C.3   152  VAL152      0.0276
    190  CG1      -26.8550   -9.1910    8.5720 C.3   152  VAL152      0.0022
    191  CG2      -27.2110   -6.8330    9.1820 C.3   152  VAL152      0.0022
@<TRIPOS>BOND
     1    69    70    1
     2   109   107    1
     3   106   107    2
     4   106   105    1
     5    70    73    1
     6    70    71    1
     7   104   105    1
     8   104   103    1
     9   107   108    1
    10    99   100    1
    11    73    74    1
    12   100   103    1
    13   100   101    1
    14    71    72    2
    15    89    88    1
    16    80    81    1
    17    74    75    1
    18   102   101    2
    19   101   110   am
    20   115   116    1
    21    58    59    1
    22    93    94    2
    23    93    92    1
    24    88    90    1
    25    88    87    2
    26    81    82    1
    27    81    84    1
    28   110   111    1
    29    95    92    1
    30    95    96    1
    31    91    92    1
    32    91    82   am
    33   116   117    1
    34   116   119    1
    35   141   142    1
    36    59    60    1
    37    59    62    1
    38    60    61    2
    39    75    76    1
    40    82    83    2
    41    86    87    1
    42    86    85    1
    43   112   113    2
    44   112   111    1
    45   117   118    2
    46    76    77    2
    47    97    96    1
    48   142   143    1
    49   142   145    1
    50   111   114    1
    51    96    98    1
    52    84    85    1
    53   119   120    1
    54   148   146    1
    55   132   131    2
    56    77    78    1
    57    77    79    1
    58    62    63    1
    59   143   144    2
    60    63    64    1
    61   131   130    1
    62   146   145    1
    63   146   147    1
    64   129   130    1
    65   120   121   ar
    66   120   122   ar
    67   130   133    1
    68   121   123   ar
    69    65    64    1
    70    65    66    2
    71   149   150    1
    72    68    66    1
    73    66    67    1
    74   122   125   ar
    75   122   124   ar
    76    52    51    2
    77   123   124   ar
    78   133   134    1
    79    55    56    1
    80    55    54    1
    81   125   127   ar
    82    56    57    1
    83    53    54    1
    84    53    50    1
    85   150   153    1
    86   150   151    1
    87   156   158   ar
    88   156   154   ar
    89   158   157   ar
    90    51    50    1
    91   134   135   ar
    92   134   136   ar
    93   124   126   ar
    94   152   151    2
    95   135   137   ar
    96   136   138   ar
    97   154   153    1
    98   154   155   ar
    99   157   155   ar
   100   151   159   am
   101    50    49    1
   102   137   139   ar
   103   138   139   ar
   104   127   128   ar
   105   139   140    1
   106    47    46    1
   107   126   128   ar
   108   159   165    1
   109   159   160    1
   110    45    44    2
   111    48    46    1
   112   165   164    1
   113    46    43    1
   114    43    44    1
   115    43    42    1
   116   160   161    1
   117   160   163    1
   118    41    39   ar
   119   164   163    1
   120   161   162    2
   121    37    36    2
   122     7     6    1
   123    42    36   am
   124     8     6    1
   125     6     5    1
   126    39    40   ar
   127    39    38    1
   128    36    35    1
   129   190   189    1
   130   178   177    1
   131    38    35    1
   132   177   179    1
   133   177   174    1
   134   191   189    1
   135     1     2    1
   136    35    34    1
   137   189   186    1
   138     5     2    1
   139   175   174    1
   140   175   176    2
   141    31    30    2
   142     2     3    1
   143    26    24    1
   144    32    29    1
   145    32    33    1
   146    29    30    1
   147    29    28    1
   148   174   173    1
   149   173   168   am
   150   166   167    1
   151    23    22    2
   152   186   187    1
   153   186   185    1
   154   187   188    2
   155    28    22   am
   156    22    21    1
   157     3     4    2
   158   171   170    1
   159    24    21    1
   160    24    25    1
   161   185   182   am
   162   168   167    1
   163   168   169    2
   164   167   170    1
   165    21    20    1
   166    25    27    1
   167   170   172    1
   168   180   181    1
   169   182   181    1
   170   182   183    2
   171    20    11   am
   172   181   184    1
   173    12    11    2
   174    11    10    1
   175     9    10    1
   176    10    13    1
   177    13    14    1
   178    14    16   ar
   179    14    15   ar
   180    16    18   ar
   181    18    19   ar
   182    15    17   ar
   183    17    19   ar
