@<TRIPOS>MOLECULE
tmp/4kf6E00.pdb
 190 182 0 0 0
SMALL
GASTEIGER

@<TRIPOS>ATOM
      1  N         -1.2040   -4.2530   22.6660 N.3    35  LEU35      -0.1245
      2  CA        -2.3940   -3.4080   22.6530 C.3    35  LEU35       0.1561
      3  C         -3.3090   -3.7580   23.8250 C.2    35  LEU35       0.2260
      4  O         -3.8880   -2.8730   24.4560 O.2    35  LEU35      -0.2867
      5  CB        -3.1430   -3.5400   21.3280 C.3    35  LEU35       0.0270
      6  CG        -2.3860   -3.0030   20.1110 C.3    35  LEU35       0.0019
      7  CD1       -3.2800   -2.9900   18.8810 C.3    35  LEU35       0.0001
      8  CD2       -1.8170   -1.6200   20.3900 C.3    35  LEU35       0.0001
      9  N         -8.8370   -0.5530   24.4500 N.3    42  PHE42      -0.1241
     10  CA        -7.9810   -0.9370   23.3290 C.3    42  PHE42       0.1605
     11  C         -8.1110   -2.4200   22.9660 C.2    42  PHE42       0.2264
     12  O         -8.0990   -2.7740   21.7870 O.2    42  PHE42      -0.2867
     13  CB        -6.5210   -0.6040   23.6460 C.3    42  PHE42       0.0534
     14  CG        -6.0770    0.7280   23.1160 C.ar   42  PHE42      -0.0203
     15  CD1       -6.2990    1.8840   23.8450 C.ar   42  PHE42      -0.0042
     16  CD2       -5.4270    0.8220   21.8930 C.ar   42  PHE42      -0.0042
     17  CE1       -5.8920    3.1130   23.3560 C.ar   42  PHE42      -0.0003
     18  CE2       -5.0120    2.0430   21.4020 C.ar   42  PHE42      -0.0003
     19  CZ        -5.2440    3.1900   22.1330 C.ar   42  PHE42      -0.0000
     20  N        -10.6320   -4.2330   22.9060 N.3    44  PHE44      -0.1227
     21  CA       -11.7970   -4.4120   22.0430 C.3    44  PHE44       0.1736
     22  C        -11.4630   -4.0500   20.6020 C.2    44  PHE44       0.2595
     23  O        -11.9630   -4.6680   19.6660 O.2    44  PHE44      -0.2718
     24  CB       -12.9740   -3.5760   22.5430 C.3    44  PHE44       0.0547
     25  CG       -13.2970   -3.8050   23.9860 C.ar   44  PHE44      -0.0202
     26  CD1      -13.1470   -5.0630   24.5520 C.ar   44  PHE44      -0.0042
     27  CD2      -13.7290   -2.7610   24.7840 C.ar   44  PHE44      -0.0042
     28  CE1      -13.4320   -5.2770   25.8850 C.ar   44  PHE44      -0.0003
     29  CE2      -14.0160   -2.9650   26.1170 C.ar   44  PHE44      -0.0003
     30  CZ       -13.8650   -4.2260   26.6710 C.ar   44  PHE44      -0.0000
     31  N        -10.6320   -3.0290   20.4350 N.am   45  ILE45      -0.1966
     32  CA       -10.1760   -2.6160   19.1130 C.3    45  ILE45       0.1727
     33  C         -9.4180   -3.7510   18.4180 C.2    45  ILE45       0.2616
     34  O         -9.7690   -4.1600   17.3070 O.2    45  ILE45      -0.2715
     35  CB        -9.2640   -1.3730   19.1990 C.3    45  ILE45       0.0290
     36  CG1      -10.0260   -0.1670   19.7690 C.3    45  ILE45       0.0022
     37  CG2       -8.6390   -1.0740   17.8430 C.3    45  ILE45       0.0023
     38  CD1      -11.4410   -0.0170   19.2410 C.3    45  ILE45       0.0001
     39  N         -8.3770   -4.2500   19.0820 N.am   46  SER46      -0.1950
     40  CA        -7.5270   -5.3030   18.5340 C.3    46  SER46       0.1924
     41  C         -8.2610   -6.6280   18.3460 C.2    46  SER46       0.2314
     42  O         -7.6740   -7.5930   17.8610 O.2    46  SER46      -0.2863
     43  CB        -6.3110   -5.5250   19.4280 C.3    46  SER46       0.2116
     44  OG        -6.6250   -6.4200   20.4770 O.3    46  SER46      -0.2180
     45  N        -10.4110   -7.2270   16.2800 N.3    48  ASP48      -0.1225
     46  CA       -10.5240   -7.3760   14.8340 C.3    48  ASP48       0.1805
     47  C         -9.2290   -7.8440   14.2030 C.2    48  ASP48       0.2597
     48  O         -9.2350   -8.7460   13.3630 O.2    48  ASP48      -0.2718
     49  CB       -10.9500   -6.0580   14.1890 C.3    48  ASP48       0.1424
     50  CG       -10.8830   -6.1060   12.6690 C.2    48  ASP48       0.3668
     51  OD1      -11.6760   -6.8470   12.0430 O.co2  48  ASP48      -0.2456
     52  OD2      -10.0310   -5.3840   12.1010 O.co2  48  ASP48      -0.2456
     53  N         -8.1220   -7.2340   14.6180 N.am   49  VAL49      -0.1980
     54  CA        -6.8040   -7.6120   14.1230 C.3    49  VAL49       0.1595
     55  C         -6.6060   -9.1150   14.2650 C.2    49  VAL49       0.2287
     56  O         -6.0510   -9.7650   13.3850 O.2    49  VAL49      -0.2864
     57  CB        -5.6810   -6.8770   14.8770 C.3    49  VAL49       0.0276
     58  CG1       -4.3260   -7.4290   14.4730 C.3    49  VAL49       0.0022
     59  CG2       -5.7440   -5.3860   14.6040 C.3    49  VAL49       0.0022
     60  N         -8.6350  -11.3080   11.7790 N.3    52  LYS52      -0.1245
     61  CA        -7.9960  -11.3580   10.4700 C.3    52  LYS52       0.1561
     62  C         -6.7730  -12.2650   10.4670 C.2    52  LYS52       0.2260
     63  O         -6.4920  -12.9250    9.4660 O.2    52  LYS52      -0.2867
     64  CB        -7.6130   -9.9540   10.0020 C.3    52  LYS52       0.0271
     65  CG        -8.7960   -9.1510    9.4970 C.3    52  LYS52       0.0035
     66  CD        -8.4740   -7.6830    9.3610 C.3    52  LYS52       0.0206
     67  CE        -9.6460   -6.9840    8.7340 C.3    52  LYS52       0.1093
     68  NZ       -10.8600   -7.2010    9.5560 N.3    52  LYS52      -0.1314
     69  N        -17.1760   -4.6730   -2.4830 N.3    89  ARG89      -0.1245
     70  CA       -17.4170   -5.8500   -1.6470 C.3    89  ARG89       0.1563
     71  C        -18.4000   -6.7890   -2.3360 C.2    89  ARG89       0.2260
     72  O        -19.4580   -6.3690   -2.7950 O.2    89  ARG89      -0.2867
     73  CB       -17.9420   -5.4510   -0.2640 C.3    89  ARG89       0.0307
     74  CG       -16.8160   -5.1150    0.6880 C.3    89  ARG89       0.0489
     75  CD       -17.3860   -5.2240    2.1260 C.3    89  ARG89       0.2205
     76  NE       -16.2440   -4.8900    2.9980 N.pl3  89  ARG89      -0.0865
     77  CZ       -16.0660   -3.6070    3.3490 C.cat  89  ARG89       0.5346
     78  NH1      -16.9210   -2.6570    2.9820 N.pl3  89  ARG89       0.1354
     79  NH2      -15.0320   -3.2610    4.1070 N.pl3  89  ARG89       0.1354
     80  N         -7.1190   -8.6050    0.3690 N.3    98  ARG98      -0.1245
     81  CA        -7.8240   -7.5510    1.0820 C.3    98  ARG98       0.1563
     82  C         -7.5380   -7.6430    2.5740 C.2    98  ARG98       0.2260
     83  O         -7.5350   -6.6360    3.2690 O.2    98  ARG98      -0.2867
     84  CB        -9.3320   -7.6080    0.8090 C.3    98  ARG98       0.0307
     85  CG       -10.0600   -8.8040    1.3900 C.3    98  ARG98       0.0489
     86  CD       -10.6560   -8.4810    2.7420 C.3    98  ARG98       0.2205
     87  NE       -11.5900   -7.3640    2.6880 N.pl3  98  ARG98      -0.0865
     88  CZ       -12.0610   -6.7380    3.7640 C.cat  98  ARG98       0.5346
     89  NH1      -12.9110   -5.7310    3.6260 N.pl3  98  ARG98       0.1354
     90  NH2      -11.6780   -7.1130    4.9790 N.pl3  98  ARG98       0.1354
     91  N         -5.6580   -4.7840    5.1220 N.3   102  ARG102     -0.1231
     92  CA        -6.1830   -4.2370    6.3660 C.3   102  ARG102      0.1694
     93  C         -5.1380   -4.2870    7.4820 C.2   102  ARG102      0.2591
     94  O         -4.9720   -3.3150    8.2210 O.2   102  ARG102     -0.2718
     95  CB        -7.4560   -4.9720    6.7830 C.3   102  ARG102      0.0321
     96  CG        -8.7290   -4.3030    6.2930 C.3   102  ARG102      0.0489
     97  CD        -8.8350   -4.3440    4.7840 C.3   102  ARG102      0.2205
     98  NE       -10.0660   -3.7380    4.2900 N.pl3 102  ARG102     -0.0865
     99  CZ       -10.3330   -3.5280    3.0030 C.cat 102  ARG102      0.5346
    100  NH1       -9.4530   -3.8670    2.0710 N.pl3 102  ARG102      0.1354
    101  NH2      -11.4760   -2.9630    2.6490 N.pl3 102  ARG102      0.1354
    102  N         -4.4330   -5.4090    7.6010 N.am  103  LEU103     -0.1980
    103  CA        -3.3330   -5.5140    8.5630 C.3   103  LEU103      0.1596
    104  C         -2.2270   -4.5220    8.2340 C.2   103  LEU103      0.2287
    105  O         -1.7100   -3.8410    9.1160 O.2   103  LEU103     -0.2864
    106  CB        -2.7660   -6.9360    8.5950 C.3   103  LEU103      0.0297
    107  CG        -3.7180   -7.9960    9.1460 C.3   103  LEU103      0.0022
    108  CD1       -3.2320   -9.4070    8.8340 C.3   103  LEU103      0.0001
    109  CD2       -3.8950   -7.7930   10.6430 C.3   103  LEU103      0.0001
    110  N         -2.7830   -0.9250    9.3510 N.3   106  ALA106     -0.1245
    111  CA        -2.6960   -0.8310   10.8080 C.3   106  ALA106      0.1562
    112  C         -1.2450   -0.8070   11.2640 C.2   106  ALA106      0.2260
    113  O         -0.8820   -0.0650   12.1760 O.2   106  ALA106     -0.2867
    114  CB        -3.4370   -1.9810   11.4620 C.3   106  ALA106      0.0290
    115  N          0.1060    2.5700   10.9330 N.3   109  TRP109     -0.1241
    116  CA        -0.2890    3.4940   11.9960 C.3   109  TRP109      0.1605
    117  C          0.6210    3.4080   13.2390 C.2   109  TRP109      0.2264
    118  O          1.0150    4.4430   13.7780 O.2   109  TRP109     -0.2867
    119  CB        -1.7550    3.2760   12.3810 C.3   109  TRP109      0.0550
    120  CG        -2.0880    3.8140   13.7340 C.ar  109  TRP109      0.0003
    121  CD1       -1.9420    5.0980   14.1630 C.ar  109  TRP109      0.0946
    122  CD2       -2.6700    3.0950   14.8180 C.ar  109  TRP109      0.0152
    123  NE1       -2.3620    5.2150   15.4630 N.ar  109  TRP109     -0.2442
    124  CE2       -2.8200    3.9980   15.8880 C.ar  109  TRP109      0.0810
    125  CE3       -3.0770    1.7730   14.9930 C.ar  109  TRP109      0.0012
    126  CZ2       -3.3530    3.6200   17.1160 C.ar  109  TRP109      0.0191
    127  CZ3       -3.5930    1.3930   16.2150 C.ar  109  TRP109      0.0001
    128  CH2       -3.7370    2.3150   17.2590 C.ar  109  TRP109      0.0015
    129  N         -2.8480    8.4740   13.6370 N.3   134  TYR134     -0.1241
    130  CA        -4.0600    7.8000   13.1960 C.3   134  TYR134      0.1605
    131  C         -4.6220    8.4710   11.9500 C.2   134  TYR134      0.2264
    132  O         -4.9340    7.8080   10.9590 O.2   134  TYR134     -0.2867
    133  CB        -5.1200    7.8330   14.2920 C.3   134  TYR134      0.0534
    134  CG        -6.4510    7.2510   13.8800 C.ar  134  TYR134     -0.0201
    135  CD1       -6.6270    5.8790   13.7490 C.ar  134  TYR134     -0.0009
    136  CD2       -7.5090    8.0800   13.5410 C.ar  134  TYR134     -0.0009
    137  CE1       -7.8450    5.3500   13.3620 C.ar  134  TYR134      0.0417
    138  CE2       -8.7210    7.5620   13.1400 C.ar  134  TYR134      0.0417
    139  CZ        -8.8850    6.1970   13.0520 C.ar  134  TYR134      0.1957
    140  OH       -10.0950    5.6800   12.6570 O.3   134  TYR134     -0.2866
    141  N         -4.9770    5.8590    8.9500 N.3   138  LEU138     -0.1245
    142  CA        -6.1720    5.0160    8.9870 C.3   138  LEU138      0.1561
    143  C         -7.4850    5.7780    8.8090 C.2   138  LEU138      0.2260
    144  O         -8.4300    5.2410    8.2330 O.2   138  LEU138     -0.2867
    145  CB        -6.2250    4.2180   10.2890 C.3   138  LEU138      0.0270
    146  CG        -5.2960    3.0120   10.3640 C.3   138  LEU138      0.0019
    147  CD1       -5.5380    2.2510   11.6480 C.3   138  LEU138      0.0001
    148  CD2       -5.5290    2.1180    9.1750 C.3   138  LEU138      0.0001
    149  N        -11.4860    4.4220    7.4740 N.3   142  HIS142     -0.1227
    150  CA       -12.3980    4.0150    8.5330 C.3   142  HIS142      0.1737
    151  C        -13.7090    4.7870    8.4780 C.2   142  HIS142      0.2438
    152  O        -13.7340    5.9510    8.0820 O.2   142  HIS142     -0.2733
    153  CB       -11.7370    4.1910    9.8990 C.3   142  HIS142      0.0758
    154  CG       -10.8450    3.0550   10.2890 C.ar  142  HIS142      0.0818
    155  ND1       -9.9720    3.1230   11.3510 N.ar  142  HIS142     -0.2268
    156  CD2      -10.7040    1.8150    9.7650 C.ar  142  HIS142      0.1154
    157  CE1       -9.3280    1.9750   11.4650 C.ar  142  HIS142      0.1986
    158  NE2       -9.7540    1.1640   10.5150 N.ar  142  HIS142     -0.2212
    159  N        -14.8110    4.1280    8.8560 N.am  143  PRO143     -0.2729
    160  CA       -16.1140    4.7950    8.9270 C.3   143  PRO143      0.1401
    161  C        -16.1470    5.8330   10.0410 C.2   143  PRO143      0.2269
    162  O        -15.3180    5.7820   10.9480 O.2   143  PRO143     -0.2865
    163  CB       -17.0860    3.6480    9.2240 C.3   143  PRO143      0.0296
    164  CG       -16.3510    2.4040    8.8490 C.3   143  PRO143      0.0237
    165  CD       -14.9140    2.6860    9.1240 C.3   143  PRO143      0.0939
    166  N        -16.5010    4.2510   13.5080 N.3   146  VAL146     -0.1245
    167  CA       -15.2620    3.6720   14.0070 C.3   146  VAL146      0.1561
    168  C        -14.3360    4.7700   14.5260 C.2   146  VAL146      0.2260
    169  O        -13.9110    4.7290   15.6780 O.2   146  VAL146     -0.2867
    170  CB       -14.5400    2.8460   12.9200 C.3   146  VAL146      0.0252
    171  CG1      -13.2060    2.3280   13.4440 C.3   146  VAL146      0.0019
    172  CG2      -15.4130    1.6870   12.4720 C.3   146  VAL146      0.0019
    173  N        -12.7120    5.1770   18.1240 N.3   150  VAL150     -0.1245
    174  CA       -11.2650    5.1690   18.2360 C.3   150  VAL150      0.1561
    175  C        -10.7470    6.3970   19.0150 C.2   150  VAL150      0.2260
    176  O         -9.8410    6.2850   19.8460 O.2   150  VAL150     -0.2867
    177  CB       -10.6430    5.0890   16.8250 C.3   150  VAL150      0.0252
    178  CG1       -9.1750    5.1510   16.8830 C.3   150  VAL150      0.0019
    179  CG2      -11.0430    3.7920   16.1530 C.3   150  VAL150      0.0019
    180  N         -8.4480    6.6720   22.3940 N.3   154  PHE154     -0.1241
    181  CA        -7.2260    7.4540   22.4590 C.3   154  PHE154      0.1605
    182  C         -7.0780    8.2500   23.7570 C.2   154  PHE154      0.2264
    183  O         -5.9620    8.4640   24.2280 O.2   154  PHE154     -0.2867
    184  CB        -7.1400    8.3940   21.2560 C.3   154  PHE154      0.0534
    185  CG        -6.8840    7.6870   19.9510 C.ar  154  PHE154     -0.0203
    186  CD1       -6.6700    6.3160   19.9140 C.ar  154  PHE154     -0.0042
    187  CD2       -6.7850    8.4040   18.7690 C.ar  154  PHE154     -0.0042
    188  CE1       -6.4140    5.6700   18.7160 C.ar  154  PHE154     -0.0003
    189  CE2       -6.5180    7.7670   17.5690 C.ar  154  PHE154     -0.0003
    190  CZ        -6.3200    6.4040   17.5450 C.ar  154  PHE154     -0.0000
@<TRIPOS>BOND
     1    72    71    2
     2    69    70    1
     3    71    70    1
     4    70    73    1
     5    73    74    1
     6    80    81    1
     7    74    75    1
     8    84    81    1
     9    84    85    1
    10    81    82    1
    11    85    86    1
    12   100    99    1
    13    75    76    1
    14    82    83    2
    15   101    99    1
    16    87    86    1
    17    87    88    2
    18    78    77    1
    19    76    77    2
    20    99    98    2
    21    77    79    1
    22    89    88    1
    23    88    90    1
    24    98    97    1
    25    97    96    1
    26    91    92    1
    27    96    95    1
    28    92    95    1
    29    92    93    1
    30   149   150    1
    31    93   102   am
    32    93    94    2
    33   102   103    1
    34   152   151    2
    35   144   143    2
    36   104   103    1
    37   104   105    2
    38   151   150    1
    39   151   159   am
    40   150   153    1
    41   103   106    1
    42   106   107    1
    43    67    66    1
    44    67    68    1
    45   143   142    1
    46   108   107    1
    47   164   165    1
    48   164   163    1
    49   159   160    1
    50   159   165    1
    51   160   163    1
    52   160   161    1
    53   141   142    1
    54   142   145    1
    55   107   109    1
    56   148   146    1
    57   110   111    1
    58    66    65    1
    59    63    62    2
    60    65    64    1
    61   156   154   ar
    62   156   158   ar
    63   153   154    1
    64    64    61    1
    65   161   162    2
    66   145   146    1
    67   154   155   ar
    68   146   147    1
    69    62    61    1
    70    61    60    1
    71   158   157   ar
    72   111   112    1
    73   111   114    1
    74   115   116    1
    75   132   131    2
    76   112   113    2
    77   155   157   ar
    78   131   130    1
    79   116   119    1
    80   116   117    1
    81    51    50   ar
    82    52    50   ar
    83   119   120    1
    84   172   170    1
    85   140   139    1
    86    50    49    1
    87   170   171    1
    88   170   167    1
    89   139   138   ar
    90   139   137   ar
    91   138   136   ar
    92   130   129    1
    93   130   133    1
    94   117   118    2
    95   137   135   ar
    96    48    47    2
    97    56    55    2
    98   166   167    1
    99   136   134   ar
   100   120   121   ar
   101   120   122   ar
   102   135   134   ar
   103   134   133    1
   104   167   168    1
   105    54    55    1
   106    54    53    1
   107    54    57    1
   108   121   123   ar
   109    49    46    1
   110    47    53   am
   111    47    46    1
   112    58    57    1
   113   168   169    2
   114    59    57    1
   115   122   125   ar
   116   122   124   ar
   117    46    45    1
   118   125   127   ar
   119   123   124   ar
   120   124   126   ar
   121   179   177    1
   122   127   128   ar
   123   177   178    1
   124   177   174    1
   125   126   128   ar
   126    34    33    2
   127   190   189   ar
   128   190   188   ar
   129   189   187   ar
   130    37    35    1
   131    42    41    2
   132   173   174    1
   133   174   175    1
   134    41    40    1
   135    33    39   am
   136    33    32    1
   137    40    39    1
   138    40    43    1
   139   188   186   ar
   140   187   185   ar
   141     7     6    1
   142   175   176    2
   143    32    35    1
   144    32    31    1
   145    35    36    1
   146    38    36    1
   147    43    44    1
   148    23    22    2
   149   186   185   ar
   150   185   184    1
   151     6     8    1
   152     6     5    1
   153    31    22   am
   154    22    21    1
   155   184   181    1
   156     5     2    1
   157    18    16   ar
   158    18    19   ar
   159    12    11    2
   160    16    14   ar
   161    21    24    1
   162    21    20    1
   163    19    17   ar
   164   180   181    1
   165   181   182    1
   166    24    25    1
   167     2     1    1
   168     2     3    1
   169    11    10    1
   170    14    13    1
   171    14    15   ar
   172    10    13    1
   173    10     9    1
   174    17    15   ar
   175   182   183    2
   176     3     4    2
   177    25    26   ar
   178    25    27   ar
   179    26    28   ar
   180    27    29   ar
   181    28    30   ar
   182    29    30   ar
