@<TRIPOS>MOLECULE
tmp/4kf6F00.pdb
 140 132 0 0 0
SMALL
GASTEIGER

@<TRIPOS>ATOM
      1  N        -24.7970   16.8870   20.0670 N.3    45  ILE45      -0.1245
      2  CA       -24.5730   17.1170   18.6420 C.3    45  ILE45       0.1561
      3  C        -23.5720   18.2660   18.4930 C.2    45  ILE45       0.2260
      4  O        -22.5740   18.1490   17.7820 O.2    45  ILE45      -0.2867
      5  CB       -25.8800   17.4400   17.8860 C.3    45  ILE45       0.0252
      6  CG1      -26.8490   16.2850   18.1430 C.3    45  ILE45       0.0019
      7  CG2      -25.6170   17.6180   16.3460 C.3    45  ILE45       0.0019
      8  CD1      -27.9630   16.2080   17.1590 C.3    45  ILE45       0.0001
      9  N        -19.4700   18.7490   18.6240 N.3    48  ASP48      -0.1225
     10  CA       -18.5540   18.7460   17.4910 C.3    48  ASP48       0.1805
     11  C        -18.1840   20.1220   16.9430 C.2    48  ASP48       0.2597
     12  O        -17.0010   20.4220   16.7740 O.2    48  ASP48      -0.2718
     13  CB       -19.1490   17.9590   16.3320 C.3    48  ASP48       0.1424
     14  CG       -18.2930   18.0500   15.0890 C.2    48  ASP48       0.3668
     15  OD1      -17.1880   17.4760   15.0950 O.co2  48  ASP48      -0.2456
     16  OD2      -18.6960   18.7410   14.1260 O.co2  48  ASP48      -0.2456
     17  N        -19.1930   20.9510   16.6740 N.am   49  VAL49      -0.1980
     18  CA       -18.9810   22.2990   16.1380 C.3    49  VAL49       0.1595
     19  C        -18.0380   23.1250   17.0100 C.2    49  VAL49       0.2287
     20  O        -17.1960   23.8670   16.4970 O.2    49  VAL49      -0.2864
     21  CB       -20.3250   23.0550   15.9370 C.3    49  VAL49       0.0276
     22  CG1      -21.1990   22.9760   17.1630 C.3    49  VAL49       0.0022
     23  CG2      -20.0720   24.4990   15.5480 C.3    49  VAL49       0.0022
     24  N        -14.5450   22.2810   16.5620 N.3    52  LYS52      -0.1245
     25  CA       -14.0830   22.8810   15.3100 C.3    52  LYS52       0.1561
     26  C        -13.8030   24.3650   15.4670 C.2    52  LYS52       0.2260
     27  O        -12.8780   24.8930   14.8510 O.2    52  LYS52      -0.2867
     28  CB       -15.1050   22.6840   14.1940 C.3    52  LYS52       0.0271
     29  CG       -15.0970   21.3070   13.6120 C.3    52  LYS52       0.0035
     30  CD       -16.3120   21.0490   12.7620 C.3    52  LYS52       0.0206
     31  CE       -16.1420   19.7090   12.1200 C.3    52  LYS52       0.1093
     32  NZ       -15.9460   18.7440   13.2290 N.3    52  LYS52      -0.1314
     33  N         -8.6470   12.0090    2.6980 N.3    89  ARG89      -0.1245
     34  CA        -8.1880   12.2960    4.0580 C.3    89  ARG89       0.1563
     35  C         -6.7740   11.7820    4.2860 C.2    89  ARG89       0.2260
     36  O         -6.4630   10.6350    3.9670 O.2    89  ARG89      -0.2867
     37  CB        -9.1420   11.6860    5.0870 C.3    89  ARG89       0.0307
     38  CG       -10.4020   12.4980    5.2430 C.3    89  ARG89       0.0489
     39  CD       -11.2200   11.8810    6.3750 C.3    89  ARG89       0.2205
     40  NE       -12.4970   12.5620    6.5810 N.pl3  89  ARG89      -0.0865
     41  CZ       -13.6330   12.0890    6.0650 C.cat  89  ARG89       0.5346
     42  NH1      -13.6560   10.9770    5.3380 N.pl3  89  ARG89       0.1354
     43  NH2      -14.7790   12.7140    6.3180 N.pl3  89  ARG89       0.1354
     44  N        -11.1210   22.5690    5.1600 N.3    98  ARG98      -0.1245
     45  CA       -12.0740   21.4910    5.4200 C.3    98  ARG98       0.1563
     46  C        -12.8880   21.7520    6.6910 C.2    98  ARG98       0.2260
     47  O        -14.0440   21.3500    6.7850 O.2    98  ARG98      -0.2867
     48  CB       -11.3540   20.1380    5.5110 C.3    98  ARG98       0.0307
     49  CG       -10.3770   20.0030    6.6640 C.3    98  ARG98       0.0489
     50  CD       -10.9900   19.2680    7.8530 C.3    98  ARG98       0.2205
     51  NE       -11.2100   17.8480    7.5810 N.pl3  98  ARG98      -0.0865
     52  CZ       -12.3980   17.2490    7.6120 C.cat  98  ARG98       0.5346
     53  NH1      -12.4960   15.9510    7.3500 N.pl3  98  ARG98       0.1354
     54  NH2      -13.4900   17.9420    7.9090 N.pl3  98  ARG98       0.1354
     55  N        -17.0620   22.2180    6.9290 N.3   102  ARG102     -0.1231
     56  CA       -17.9610   21.4520    7.7780 C.3   102  ARG102      0.1694
     57  C        -18.8450   22.4110    8.5520 C.2   102  ARG102      0.2591
     58  O        -20.0520   22.2020    8.6870 O.2   102  ARG102     -0.2718
     59  CB       -17.1740   20.5590    8.7370 C.3   102  ARG102      0.0321
     60  CG       -16.8780   19.1620    8.2060 C.3   102  ARG102      0.0489
     61  CD       -17.4230   18.9590    6.7990 C.3   102  ARG102      0.2205
     62  NE       -17.0680   17.6510    6.2570 N.pl3 102  ARG102     -0.0865
     63  CZ       -16.0980   17.4530    5.3660 C.cat 102  ARG102      0.5346
     64  NH1      -15.3930   18.4810    4.9080 N.pl3 102  ARG102      0.1354
     65  NH2      -15.8360   16.2300    4.9220 N.pl3 102  ARG102      0.1354
     66  N        -18.2210   23.4660    9.0630 N.am  103  LEU103     -0.1980
     67  CA       -18.9450   24.5210    9.7440 C.3   103  LEU103      0.1596
     68  C        -19.9140   25.1750    8.7700 C.2   103  LEU103      0.2287
     69  O        -21.0840   25.3640    9.0830 O.2   103  LEU103     -0.2864
     70  CB       -17.9710   25.5540   10.3200 C.3   103  LEU103      0.0297
     71  CG       -17.0440   25.0810   11.4440 C.3   103  LEU103      0.0022
     72  CD1      -15.9130   26.0700   11.6740 C.3   103  LEU103      0.0001
     73  CD2      -17.8290   24.8660   12.7240 C.3   103  LEU103      0.0001
     74  N        -21.4190   24.0770    5.9220 N.3   105  ARG105     -0.1231
     75  CA       -22.5780   23.2460    5.6120 C.3   105  ARG105      0.1694
     76  C        -23.5960   23.2620    6.7520 C.2   105  ARG105      0.2591
     77  O        -24.8030   23.2610    6.5120 O.2   105  ARG105     -0.2718
     78  CB       -22.1380   21.8120    5.3040 C.3   105  ARG105      0.0321
     79  CG       -21.4100   21.6470    4.0020 C.3   105  ARG105      0.0489
     80  CD       -22.2900   21.9310    2.8230 C.3   105  ARG105      0.2205
     81  NE       -21.6320   21.4940    1.6010 N.pl3 105  ARG105     -0.0865
     82  CZ       -21.6290   22.1830    0.4610 C.cat 105  ARG105      0.5346
     83  NH1      -22.2490   23.3500    0.3810 N.pl3 105  ARG105      0.1354
     84  NH2      -21.0030   21.6950   -0.5970 N.pl3 105  ARG105      0.1354
     85  N        -23.1030   23.2890    7.9870 N.am  106  ALA106     -0.1980
     86  CA       -23.9660   23.3280    9.1610 C.3   106  ALA106      0.1597
     87  C        -24.7700   24.6240    9.1540 C.2   106  ALA106      0.2287
     88  O        -25.9520   24.6330    9.4980 O.2   106  ALA106     -0.2864
     89  CB       -23.1490   23.2080   10.4270 C.3   106  ALA106      0.0319
     90  N        -27.5220   18.4920    4.8560 N.3   138  LEU138     -0.1245
     91  CA       -26.4960   17.7350    5.5680 C.3   138  LEU138      0.1561
     92  C        -26.5940   16.2220    5.3470 C.2   138  LEU138      0.2260
     93  O        -25.5760   15.5290    5.3480 O.2   138  LEU138     -0.2867
     94  CB       -26.5520   18.0680    7.0620 C.3   138  LEU138      0.0270
     95  CG       -25.9680   19.4460    7.3920 C.3   138  LEU138      0.0019
     96  CD1      -25.9500   19.7050    8.8790 C.3   138  LEU138      0.0001
     97  CD2      -24.5640   19.5560    6.8290 C.3   138  LEU138      0.0001
     98  N        -24.2310   14.4790    3.2660 N.3   141  TYR141     -0.1227
     99  CA       -22.8470   14.5560    3.7200 C.3   141  TYR141      0.1736
    100  C        -22.6650   13.8130    5.0350 C.2   141  TYR141      0.2595
    101  O        -21.6170   13.9130    5.6750 O.2   141  TYR141     -0.2718
    102  CB       -22.3930   16.0170    3.8630 C.3   141  TYR141      0.0548
    103  CG       -22.3940   16.8020    2.5650 C.ar  141  TYR141     -0.0200
    104  CD1      -21.2450   16.8890    1.7900 C.ar  141  TYR141     -0.0009
    105  CD2      -23.5400   17.4450    2.1090 C.ar  141  TYR141     -0.0009
    106  CE1      -21.2330   17.5980    0.6010 C.ar  141  TYR141      0.0417
    107  CE2      -23.5370   18.1570    0.9170 C.ar  141  TYR141      0.0417
    108  CZ       -22.3790   18.2290    0.1690 C.ar  141  TYR141      0.1957
    109  OH       -22.3590   18.9320   -1.0150 O.3   141  TYR141     -0.2866
    110  N        -23.6970   13.0880    5.4500 N.am  142  HIS142     -0.1962
    111  CA       -23.6420   12.3960    6.7290 C.3   142  HIS142      0.1772
    112  C        -23.7100   10.8750    6.5660 C.2   142  HIS142      0.2462
    113  O        -24.4020   10.3590    5.6870 O.2   142  HIS142     -0.2730
    114  CB       -24.7750   12.8880    7.6370 C.3   142  HIS142      0.0785
    115  CG       -24.4770   14.1890    8.3190 C.ar  142  HIS142      0.0821
    116  ND1      -25.4400   14.9320    8.9670 N.ar  142  HIS142     -0.2267
    117  CD2      -23.3210   14.8830    8.4460 C.ar  142  HIS142      0.1154
    118  CE1      -24.8910   16.0270    9.4630 C.ar  142  HIS142      0.1986
    119  NE2      -23.6060   16.0200    9.1610 N.ar  142  HIS142     -0.2212
    120  N        -22.9800   10.1550    7.4240 N.am  143  PRO143     -0.2727
    121  CA       -22.9800    8.6910    7.4860 C.3   143  PRO143      0.1402
    122  C        -24.3150    8.1640    7.9760 C.2   143  PRO143      0.2269
    123  O        -25.0540    8.9040    8.6150 O.2   143  PRO143     -0.2865
    124  CB       -21.8700    8.3750    8.4920 C.3   143  PRO143      0.0296
    125  CG       -21.0420    9.6180    8.5470 C.3   143  PRO143      0.0237
    126  CD       -21.9730   10.7460    8.3190 C.3   143  PRO143      0.0939
    127  N        -24.9430    8.5670   11.8120 N.3   146  VAL146     -0.1245
    128  CA       -25.1910    9.9700   12.1090 C.3   146  VAL146      0.1561
    129  C        -26.5970   10.3660   11.6900 C.2   146  VAL146      0.2260
    130  O        -27.3460   10.9260   12.4880 O.2   146  VAL146     -0.2867
    131  CB       -24.1880   10.8900   11.3950 C.3   146  VAL146      0.0252
    132  CG1      -24.5410   12.3460   11.6390 C.3   146  VAL146      0.0019
    133  CG2      -22.7830   10.5980   11.8560 C.3   146  VAL146      0.0019
    134  N        -29.0790   11.8490   14.4960 N.3   150  VAL150     -0.1245
    135  CA       -29.5610   13.2250   14.4480 C.3   150  VAL150      0.1561
    136  C        -31.0940   13.3200   14.4430 C.2   150  VAL150      0.2260
    137  O        -31.6630   14.1800   15.1180 O.2   150  VAL150     -0.2867
    138  CB       -29.0000   13.9610   13.2170 C.3   150  VAL150      0.0252
    139  CG1      -29.5510   15.3660   13.1530 C.3   150  VAL150      0.0019
    140  CG2      -27.4840   14.0110   13.2840 C.3   150  VAL150      0.0019
@<TRIPOS>BOND
     1   109   108    1
     2    84    82    1
     3   108   106   ar
     4   108   107   ar
     5    83    82    1
     6    82    81    2
     7   106   104   ar
     8   107   105   ar
     9    81    80    1
    10   104   103   ar
    11   105   103   ar
    12   103   102    1
    13    33    34    1
    14    80    79    1
    15    98    99    1
    16    99   102    1
    17    99   100    1
    18    36    35    2
    19    79    78    1
    20    34    35    1
    21    34    37    1
    22    90    91    1
    23    64    63    1
    24    65    63    1
    25   100   110   am
    26   100   101    2
    27    37    38    1
    28    44    45    1
    29    38    39    1
    30    78    75    1
    31    42    41    1
    32    92    93    2
    33    92    91    1
    34    63    62    2
    35    45    48    1
    36    45    46    1
    37   110   111    1
    38    48    49    1
    39    91    94    1
    40    75    74    1
    41    75    76    1
    42   113   112    2
    43    41    43    1
    44    41    40    2
    45    62    61    1
    46    39    40    1
    47    77    76    2
    48   112   111    1
    49   112   120   am
    50    49    50    1
    51    46    47    2
    52   111   114    1
    53    76    85   am
    54    61    60    1
    55    97    95    1
    56    55    56    1
    57    94    95    1
    58    53    52    1
    59    95    96    1
    60   120   121    1
    61   120   126    1
    62   121   122    1
    63   121   124    1
    64    51    52    2
    65    51    50    1
    66    52    54    1
    67   114   115    1
    68    56    57    1
    69    56    59    1
    70   122   123    2
    71    85    86    1
    72    60    59    1
    73   126   125    1
    74   115   117   ar
    75   115   116   ar
    76   117   119   ar
    77   124   125    1
    78    57    58    2
    79    57    66   am
    80    68    69    2
    81    68    67    1
    82   116   118   ar
    83    66    67    1
    84    87    86    1
    85    87    88    2
    86    86    89    1
    87   119   118   ar
    88    67    70    1
    89    70    71    1
    90   131   132    1
    91   131   133    1
    92   131   128    1
    93    71    72    1
    94    71    73    1
    95   129   128    1
    96   129   130    2
    97   127   128    1
    98    31    30    1
    99    31    32    1
   100    30    29    1
   101   139   138    1
   102   138   140    1
   103   138   135    1
   104    29    28    1
   105    16    14   ar
   106    28    25    1
   107   136   135    1
   108   136   137    2
   109   135   134    1
   110    27    26    2
   111    14    15   ar
   112    14    13    1
   113    25    26    1
   114    25    24    1
   115    23    21    1
   116    21    18    1
   117    21    22    1
   118    18    17    1
   119    18    19    1
   120    13    10    1
   121     7     5    1
   122    20    19    2
   123    17    11   am
   124    12    11    2
   125    11    10    1
   126     8     6    1
   127    10     9    1
   128     4     3    2
   129     5     6    1
   130     5     2    1
   131     3     2    1
   132     2     1    1
