@<TRIPOS>MOLECULE
tmp/4kf6A00.pdb
 222 215 0 0 0
SMALL
GASTEIGER

@<TRIPOS>ATOM
      1  N        -15.7190  -19.1610   26.2370 N.3    35  LEU35      -0.1245
      2  CA       -16.7500  -18.1380   26.1350 C.3    35  LEU35       0.1561
      3  C        -16.5320  -17.2300   24.9290 C.2    35  LEU35       0.2260
      4  O        -17.4750  -16.9100   24.2160 O.2    35  LEU35      -0.2867
      5  CB       -16.8150  -17.2980   27.4080 C.3    35  LEU35       0.0270
      6  CG       -17.2260  -18.0430   28.6840 C.3    35  LEU35       0.0019
      7  CD1      -17.5330  -17.0600   29.8140 C.3    35  LEU35       0.0001
      8  CD2      -18.3670  -19.0470   28.4640 C.3    35  LEU35       0.0001
      9  N        -20.0320  -11.9640   23.8320 N.3    42  PHE42      -0.1241
     10  CA       -19.5490  -12.7220   24.9830 C.3    42  PHE42       0.1605
     11  C        -18.0940  -12.4200   25.3290 C.2    42  PHE42       0.2264
     12  O        -17.7480  -12.3520   26.5040 O.2    42  PHE42      -0.2867
     13  CB       -19.7370  -14.2140   24.7520 C.3    42  PHE42       0.0534
     14  CG       -20.9720  -14.7600   25.3920 C.ar   42  PHE42      -0.0203
     15  CD1      -22.1950  -14.6900   24.7450 C.ar   42  PHE42      -0.0042
     16  CD2      -20.9090  -15.3440   26.6500 C.ar   42  PHE42      -0.0042
     17  CE1      -23.3410  -15.1880   25.3440 C.ar   42  PHE42      -0.0003
     18  CE2      -22.0490  -15.8510   27.2560 C.ar   42  PHE42      -0.0003
     19  CZ       -23.2680  -15.7720   26.5990 C.ar   42  PHE42      -0.0000
     20  N        -16.7720   -9.7390   25.2510 N.3    44  PHE44      -0.1227
     21  CA       -16.8630   -8.5020   26.0170 C.3    44  PHE44       0.1736
     22  C        -17.1630   -8.8070   27.4820 C.2    44  PHE44       0.2595
     23  O        -16.6410   -8.1480   28.3730 O.2    44  PHE44      -0.2718
     24  CB       -17.9670   -7.5970   25.4470 C.3    44  PHE44       0.0547
     25  CG       -18.0380   -6.2360   26.0880 C.ar   44  PHE44      -0.0202
     26  CD1      -17.0260   -5.3110   25.9000 C.ar   44  PHE44      -0.0042
     27  CD2      -19.0840   -5.9080   26.9410 C.ar   44  PHE44      -0.0042
     28  CE1      -17.0860   -4.0620   26.5020 C.ar   44  PHE44      -0.0003
     29  CE2      -19.1360   -4.6610   27.5590 C.ar   44  PHE44      -0.0003
     30  CZ       -18.1330   -3.7400   27.3350 C.ar   44  PHE44      -0.0000
     31  N        -18.0170   -9.8000   27.7170 N.am   45  ILE45      -0.1966
     32  CA       -18.3710  -10.2450   29.0690 C.3    45  ILE45       0.1727
     33  C        -17.1740  -10.7790   29.8550 C.2    45  ILE45       0.2617
     34  O        -16.8600  -10.2990   30.9450 O.2    45  ILE45      -0.2715
     35  CB       -19.4510  -11.3560   29.0300 C.3    45  ILE45       0.0290
     36  CG1      -20.7820  -10.8300   28.4790 C.3    45  ILE45       0.0022
     37  CG2      -19.6500  -11.9500   30.4010 C.3    45  ILE45       0.0023
     38  CD1      -21.1620   -9.4410   28.9740 C.3    45  ILE45       0.0001
     39  N        -16.5100  -11.7770   29.2800 N.am   46  SER46      -0.1936
     40  CA       -15.3750  -12.4500   29.9020 C.3    46  SER46       0.2055
     41  C        -14.1590  -11.5480   30.1370 C.2    46  SER46       0.2643
     42  O        -13.1680  -11.9860   30.7210 O.2    46  SER46      -0.2714
     43  CB       -14.9550  -13.6420   29.0400 C.3    46  SER46       0.2130
     44  OG       -14.0900  -13.2240   27.9920 O.3    46  SER46      -0.2179
     45  N        -14.2360  -10.2960   29.6940 N.am   47  LYS47      -0.1963
     46  CA       -13.1340   -9.3650   29.8610 C.3    47  LYS47       0.1728
     47  C        -12.8480   -9.1740   31.3410 C.2    47  LYS47       0.2616
     48  O        -11.7180   -8.8720   31.7280 O.2    47  LYS47      -0.2715
     49  CB       -13.4800   -8.0030   29.2430 C.3    47  LYS47       0.0311
     50  CG       -14.3570   -7.1710   30.1940 C.3    47  LYS47       0.0038
     51  CD       -14.6370   -5.7230   29.8150 C.3    47  LYS47       0.0206
     52  CE       -15.8050   -5.2040   30.6760 C.3    47  LYS47       0.1093
     53  NZ       -15.8390   -3.7300   30.8380 N.3    47  LYS47      -0.1314
     54  N        -13.8730   -9.3780   32.1690 N.am   48  ASP48      -0.1957
     55  CA       -13.7340   -9.1360   33.5960 C.3    48  ASP48       0.1840
     56  C        -13.1750  -10.3740   34.3000 C.2    48  ASP48       0.2621
     57  O        -12.3250  -10.2620   35.1850 O.2    48  ASP48      -0.2715
     58  CB       -15.0610   -8.6790   34.1930 C.3    48  ASP48       0.1450
     59  CG       -14.9400   -8.3330   35.6520 C.2    48  ASP48       0.3671
     60  OD1      -14.2510   -7.3360   35.9500 O.co2  48  ASP48      -0.2456
     61  OD2      -15.5480   -9.0060   36.4980 O.co2  48  ASP48      -0.2456
     62  N        -13.6790  -11.5500   33.9290 N.am   49  VAL49      -0.1977
     63  CA       -13.1400  -12.8010   34.4530 C.3    49  VAL49       0.1596
     64  C        -11.6280  -12.8380   34.2340 C.2    49  VAL49       0.2287
     65  O        -10.8760  -13.2790   35.1010 O.2    49  VAL49      -0.2864
     66  CB       -13.7920  -14.0390   33.8010 C.3    49  VAL49       0.0276
     67  CG1      -13.0490  -15.3060   34.1810 C.3    49  VAL49       0.0022
     68  CG2      -15.2510  -14.1290   34.2020 C.3    49  VAL49       0.0022
     69  N         -9.6720  -10.5520   36.6070 N.3    52  LYS52      -0.1245
     70  CA        -9.6220  -11.1400   37.9390 C.3    52  LYS52       0.1561
     71  C         -8.6150  -12.2800   38.0250 C.2    52  LYS52       0.2260
     72  O         -7.9220  -12.4200   39.0300 O.2    52  LYS52      -0.2867
     73  CB       -11.0150  -11.6270   38.3410 C.3    52  LYS52       0.0271
     74  CG       -11.9480  -10.5070   38.7710 C.3    52  LYS52       0.0035
     75  CD       -13.4000  -10.9450   38.8450 C.3    52  LYS52       0.0206
     76  CE       -14.2610   -9.8300   39.4390 C.3    52  LYS52       0.1093
     77  NZ       -14.1990   -8.5540   38.6830 N.3    52  LYS52      -0.1314
     78  N        -16.9290   -1.8830   50.7530 N.3    89  ARG89      -0.1245
     79  CA       -15.8100   -1.5550   49.8730 C.3    89  ARG89       0.1563
     80  C        -14.9240   -0.4840   50.4990 C.2    89  ARG89       0.2260
     81  O        -15.4000    0.5690   50.9250 O.2    89  ARG89      -0.2867
     82  CB       -16.3200   -1.0920   48.5070 C.3    89  ARG89       0.0307
     83  CG       -16.5970   -2.2600   47.5860 C.3    89  ARG89       0.0489
     84  CD       -16.6090   -1.7050   46.1380 C.3    89  ARG89       0.2205
     85  NE       -16.8780   -2.8880   45.2970 N.pl3  89  ARG89      -0.0865
     86  CZ       -18.1540   -3.1870   45.0110 C.cat  89  ARG89       0.5346
     87  NH1      -19.1600   -2.4160   45.4140 N.pl3  89  ARG89       0.1354
     88  NH2      -18.4400   -4.2610   44.2840 N.pl3  89  ARG89       0.1354
     89  N        -12.1570  -11.6420   47.9790 N.3    98  ARG98      -0.1245
     90  CA       -13.2750  -11.0110   47.2850 C.3    98  ARG98       0.1563
     91  C        -13.1720  -11.2940   45.8020 C.2    98  ARG98       0.2260
     92  O        -14.1850  -11.3900   45.1180 O.2    98  ARG98      -0.2867
     93  CB       -13.3440   -9.4970   47.5580 C.3    98  ARG98       0.0307
     94  CG       -12.2620   -8.6220   46.9330 C.3    98  ARG98       0.0489
     95  CD       -12.6480   -8.1030   45.5560 C.3    98  ARG98       0.2205
     96  NE       -13.9450   -7.4350   45.5310 N.pl3  98  ARG98      -0.0865
     97  CZ       -14.6140   -7.1800   44.4120 C.cat  98  ARG98       0.5346
     98  NH1      -15.7870   -6.5730   44.4530 N.pl3  98  ARG98       0.1354
     99  NH2      -14.1090   -7.5440   43.2420 N.pl3  98  ARG98       0.1354
    100  N        -15.9030  -13.8070   43.3400 N.3   102  ARG102     -0.1231
    101  CA       -16.5280  -13.4240   42.0790 C.3   102  ARG102      0.1694
    102  C        -16.3550  -14.4920   40.9990 C.2   102  ARG102      0.2591
    103  O        -17.2920  -14.7880   40.2510 O.2   102  ARG102     -0.2718
    104  CB       -15.9550  -12.0930   41.5920 C.3   102  ARG102      0.0321
    105  CG       -16.7400  -10.8650   42.0180 C.3   102  ARG102      0.0489
    106  CD       -16.6980  -10.6150   43.5150 C.3   102  ARG102      0.2205
    107  NE       -17.4420   -9.4100   43.8660 N.pl3 102  ARG102     -0.0865
    108  CZ       -17.6970   -9.0110   45.1080 C.cat 102  ARG102      0.5346
    109  NH1      -17.2710   -9.7190   46.1420 N.pl3 102  ARG102      0.1354
    110  NH2      -18.3910   -7.8990   45.3120 N.pl3 102  ARG102      0.1354
    111  N        -15.1510  -15.0540   40.9100 N.am  103  LEU103     -0.1980
    112  CA       -14.8870  -16.1570   39.9930 C.3   103  LEU103      0.1596
    113  C        -15.7810  -17.3250   40.3810 C.2   103  LEU103      0.2287
    114  O        -16.3980  -17.9660   39.5310 O.2   103  LEU103     -0.2864
    115  CB       -13.4090  -16.5600   40.0300 C.3   103  LEU103      0.0297
    116  CG       -12.3980  -15.5430   39.4950 C.3   103  LEU103      0.0022
    117  CD1      -10.9830  -15.8850   39.9180 C.3   103  LEU103      0.0001
    118  CD2      -12.4770  -15.4580   37.9880 C.3   103  LEU103      0.0001
    119  N        -18.7690  -17.3570   42.0430 N.3   105  ARG105     -0.1231
    120  CA       -20.1540  -17.1710   41.6320 C.3   105  ARG105      0.1694
    121  C        -20.3450  -17.3790   40.1340 C.2   105  ARG105      0.2591
    122  O        -21.3360  -17.9680   39.7050 O.2   105  ARG105     -0.2718
    123  CB       -20.6500  -15.7770   41.9970 C.3   105  ARG105      0.0321
    124  CG       -20.5810  -15.4230   43.4470 C.3   105  ARG105      0.0489
    125  CD       -21.6180  -14.3630   43.7460 C.3   105  ARG105      0.2205
    126  NE       -21.4560  -13.7940   45.0760 N.pl3 105  ARG105     -0.0865
    127  CZ       -20.9870  -12.5720   45.3000 C.cat 105  ARG105      0.5346
    128  NH1      -20.6430  -11.8050   44.2720 N.pl3 105  ARG105      0.1354
    129  NH2      -20.8670  -12.1130   46.5430 N.pl3 105  ARG105      0.1354
    130  N        -19.3910  -16.8920   39.3420 N.am  106  ALA106     -0.1980
    131  CA       -19.4440  -17.0320   37.8870 C.3   106  ALA106      0.1597
    132  C        -19.3410  -18.5020   37.4780 C.2   106  ALA106      0.2287
    133  O        -20.0270  -18.9480   36.5580 O.2   106  ALA106     -0.2864
    134  CB       -18.3460  -16.2190   37.2390 C.3   106  ALA106      0.0319
    135  N        -22.5730  -20.1250   37.7840 N.3   109  TRP109     -0.1241
    136  CA       -23.4490  -19.8370   36.6610 C.3   109  TRP109      0.1605
    137  C        -23.1770  -20.7680   35.4750 C.2   109  TRP109      0.2264
    138  O        -24.1100  -21.2970   34.8830 O.2   109  TRP109     -0.2867
    139  CB       -23.3010  -18.3750   36.2350 C.3   109  TRP109      0.0550
    140  CG       -23.7620  -18.1320   34.8440 C.ar  109  TRP109      0.0003
    141  CD1      -25.0210  -18.3050   34.3460 C.ar  109  TRP109      0.0946
    142  CD2      -22.9450  -17.7330   33.7430 C.ar  109  TRP109      0.0152
    143  NE1      -25.0430  -18.0110   33.0060 N.ar  109  TRP109     -0.2442
    144  CE2      -23.7770  -17.6610   32.6100 C.ar  109  TRP109      0.0810
    145  CE3      -21.5860  -17.4190   33.6080 C.ar  109  TRP109      0.0012
    146  CZ2      -23.2940  -17.2840   31.3550 C.ar  109  TRP109      0.0191
    147  CZ3      -21.1110  -17.0490   32.3720 C.ar  109  TRP109      0.0001
    148  CH2      -21.9600  -16.9860   31.2570 C.ar  109  TRP109      0.0015
    149  N        -28.5480  -17.8770   34.8310 N.3   134  TYR134     -0.1241
    150  CA       -28.0390  -16.5780   35.2270 C.3   134  TYR134      0.1605
    151  C        -28.8370  -16.0950   36.4290 C.2   134  TYR134      0.2264
    152  O        -28.2710  -15.6650   37.4330 O.2   134  TYR134     -0.2867
    153  CB       -28.1570  -15.5690   34.0880 C.3   134  TYR134      0.0534
    154  CG       -27.7280  -14.1870   34.4960 C.ar  134  TYR134     -0.0201
    155  CD1      -26.3870  -13.8380   34.5040 C.ar  134  TYR134     -0.0009
    156  CD2      -28.6500  -13.2470   34.9270 C.ar  134  TYR134     -0.0009
    157  CE1      -25.9770  -12.5790   34.8930 C.ar  134  TYR134      0.0417
    158  CE2      -28.2490  -11.9880   35.3230 C.ar  134  TYR134      0.0417
    159  CZ       -26.9100  -11.6630   35.3020 C.ar  134  TYR134      0.1957
    160  OH       -26.4880  -10.4180   35.6900 O.3   134  TYR134     -0.2866
    161  N        -26.2460  -15.3440   39.4940 N.3   138  LEU138     -0.1245
    162  CA       -25.5310  -14.0790   39.3640 C.3   138  LEU138      0.1561
    163  C        -26.4430  -12.8710   39.4860 C.2   138  LEU138      0.2260
    164  O        -26.0410  -11.8490   40.0420 O.2   138  LEU138     -0.2867
    165  CB       -24.8050  -14.0250   38.0170 C.3   138  LEU138      0.0270
    166  CG       -23.5510  -14.8790   37.8690 C.3   138  LEU138      0.0019
    167  CD1      -22.9100  -14.5930   36.5420 C.3   138  LEU138      0.0001
    168  CD2      -22.5790  -14.6380   39.0040 C.3   138  LEU138      0.0001
    169  N        -25.6560   -8.7090   40.7360 N.3   142  HIS142     -0.1227
    170  CA       -25.2550   -7.7820   39.6910 C.3   142  HIS142      0.1737
    171  C        -26.1160   -6.5350   39.7040 C.2   142  HIS142      0.2438
    172  O        -27.3010   -6.5950   40.0280 O.2   142  HIS142     -0.2733
    173  CB       -25.3340   -8.4420   38.3070 C.3   142  HIS142      0.0758
    174  CG       -24.1570   -9.3070   37.9760 C.ar  142  HIS142      0.0818
    175  ND1      -24.1440  -10.1580   36.8880 N.ar  142  HIS142     -0.2268
    176  CD2      -22.9690   -9.4790   38.5960 C.ar  142  HIS142      0.1154
    177  CE1      -22.9950  -10.8010   36.8480 C.ar  142  HIS142      0.1986
    178  NE2      -22.2620  -10.4120   37.8760 N.ar  142  HIS142     -0.2212
    179  N        -25.5180   -5.3940   39.3460 N.am  143  PRO143     -0.2729
    180  CA       -26.2600   -4.1400   39.2200 C.3   143  PRO143      0.1401
    181  C        -27.2690   -4.2190   38.0880 C.2   143  PRO143      0.2269
    182  O        -27.1930   -5.1160   37.2570 O.2   143  PRO143     -0.2865
    183  CB       -25.1720   -3.1090   38.9010 C.3   143  PRO143      0.0296
    184  CG       -23.8980   -3.7430   39.3310 C.3   143  PRO143      0.0237
    185  CD       -24.0780   -5.2030   39.1140 C.3   143  PRO143      0.0939
    186  N        -27.7190   -2.2000   35.4650 N.3   145  VAL145     -0.1231
    187  CA       -27.1110   -1.9870   34.1590 C.3   145  VAL145      0.1692
    188  C        -26.4060   -3.2550   33.6710 C.2   145  VAL145      0.2591
    189  O        -26.5110   -3.6230   32.5040 O.2   145  VAL145     -0.2718
    190  CB       -26.1340   -0.7960   34.1870 C.3   145  VAL145      0.0266
    191  CG1      -25.1690   -0.9110   35.3780 C.3   145  VAL145      0.0020
    192  CG2      -25.3770   -0.6940   32.8770 C.3   145  VAL145      0.0020
    193  N        -25.7160   -3.9430   34.5710 N.am  146  VAL146     -0.1980
    194  CA       -25.0480   -5.1830   34.2070 C.3   146  VAL146      0.1595
    195  C        -26.0520   -6.2320   33.7650 C.2   146  VAL146      0.2287
    196  O        -25.9360   -6.7660   32.6660 O.2   146  VAL146     -0.2864
    197  CB       -24.2220   -5.7380   35.3750 C.3   146  VAL146      0.0276
    198  CG1      -23.6730   -7.1100   35.0300 C.3   146  VAL146      0.0022
    199  CG2      -23.1150   -4.7600   35.7390 C.3   146  VAL146      0.0022
    200  N        -27.5100   -5.6530   30.3490 N.3   149  ALA149     -0.1231
    201  CA       -26.4440   -5.8020   29.3730 C.3   149  ALA149      0.1694
    202  C        -26.2470   -7.2920   29.1240 C.2   149  ALA149      0.2591
    203  O        -26.2460   -7.7540   27.9880 O.2   149  ALA149     -0.2718
    204  CB       -25.1570   -5.1530   29.8770 C.3   149  ALA149      0.0304
    205  N        -26.0920   -8.0360   30.2090 N.am  150  VAL150     -0.1980
    206  CA       -25.9780   -9.4780   30.1410 C.3   150  VAL150      0.1595
    207  C        -27.1570  -10.0920   29.3810 C.2   150  VAL150      0.2287
    208  O        -26.9730  -10.9720   28.5430 O.2   150  VAL150     -0.2864
    209  CB       -25.8930  -10.0890   31.5570 C.3   150  VAL150      0.0276
    210  CG1      -25.9190  -11.5870   31.4920 C.3   150  VAL150      0.0022
    211  CG2      -24.6430   -9.6220   32.2640 C.3   150  VAL150      0.0022
    212  N        -27.2020  -12.6710   25.8580 N.3   154  PHE154     -0.1241
    213  CA       -27.8920  -13.9550   25.8270 C.3   154  PHE154      0.1605
    214  C        -28.6180  -14.2160   24.5060 C.2   154  PHE154      0.2264
    215  O        -28.7490  -15.3650   24.0850 O.2   154  PHE154     -0.2867
    216  CB       -28.8930  -14.0430   26.9810 C.3   154  PHE154      0.0534
    217  CG       -28.2580  -14.2200   28.3310 C.ar  154  PHE154     -0.0203
    218  CD1      -26.8920  -14.4230   28.4530 C.ar  154  PHE154     -0.0042
    219  CD2      -29.0370  -14.2210   29.4760 C.ar  154  PHE154     -0.0042
    220  CE1      -26.3120  -14.5940   29.6920 C.ar  154  PHE154     -0.0003
    221  CE2      -28.4620  -14.3980   30.7160 C.ar  154  PHE154     -0.0003
    222  CZ       -27.0990  -14.5940   30.8240 C.ar  154  PHE154     -0.0000
@<TRIPOS>BOND
     1     9    10    1
     2   215   214    2
     3     4     3    2
     4   214   213    1
     5    15    17   ar
     6    15    14   ar
     7    13    10    1
     8    13    14    1
     9     3     2    1
    10    10    11    1
    11    20    21    1
    12    11    12    2
    13    17    19   ar
    14    14    16   ar
    15    24    21    1
    16    24    25    1
    17   213   212    1
    18   213   216    1
    19    26    25   ar
    20    26    28   ar
    21    21    22    1
    22    25    27   ar
    23     2     1    1
    24     2     5    1
    25    28    30   ar
    26    19    18   ar
    27    16    18   ar
    28    27    29   ar
    29   216   217    1
    30    30    29   ar
    31     5     6    1
    32    22    31   am
    33    22    23    2
    34    31    32    1
    35   203   202    2
    36    44    43    1
    37   217   218   ar
    38   217   219   ar
    39   218   220   ar
    40     8     6    1
    41    36    38    1
    42    36    35    1
    43   208   207    2
    44     6     7    1
    45    35    32    1
    46    35    37    1
    47    43    40    1
    48    32    33    1
    49   202   201    1
    50   202   205   am
    51    49    46    1
    52    49    50    1
    53    39    33   am
    54    39    40    1
    55   201   204    1
    56   201   200    1
    57   207   206    1
    58   219   221   ar
    59   220   222   ar
    60    45    46    1
    61    45    41   am
    62    51    50    1
    63    51    52    1
    64    33    34    2
    65    46    47    1
    66    40    41    1
    67    41    42    2
    68   206   205    1
    69   206   209    1
    70    52    53    1
    71   221   222   ar
    72   148   146   ar
    73   148   147   ar
    74    47    48    2
    75    47    54   am
    76   146   144   ar
    77   210   209    1
    78   209   211    1
    79    54    55    1
    80   147   145   ar
    81   189   188    2
    82   144   143   ar
    83   144   142   ar
    84   196   195    2
    85   192   190    1
    86   143   141   ar
    87    55    58    1
    88    55    56    1
    89   145   142   ar
    90   188   187    1
    91   188   193   am
    92   142   140   ar
    93   195   194    1
    94    66    67    1
    95    66    68    1
    96    66    63    1
    97    62    56   am
    98    62    63    1
    99   153   154    1
   100   153   150    1
   101   187   190    1
   102   187   186    1
   103   190   191    1
   104    58    59    1
   105   194   193    1
   106   194   197    1
   107    64    63    1
   108    64    65    2
   109    56    57    2
   110   141   140   ar
   111   154   155   ar
   112   154   156   ar
   113   155   157   ar
   114   149   150    1
   115   140   139    1
   116   138   137    2
   117   157   159   ar
   118   156   158   ar
   119   198   197    1
   120   150   151    1
   121   159   158   ar
   122   159   160    1
   123   197   199    1
   124   137   136    1
   125    59    60   ar
   126    59    61   ar
   127   139   136    1
   128   151   152    2
   129   167   166    1
   130   133   132    2
   131    69    70    1
   132   136   135    1
   133   177   175   ar
   134   177   178   ar
   135   175   174   ar
   136   134   131    1
   137   182   181    2
   138   132   131    1
   139   166   165    1
   140   166   168    1
   141   178   176   ar
   142   131   130    1
   143    70    71    1
   144    70    73    1
   145   174   173    1
   146   174   176   ar
   147   118   116    1
   148   165   162    1
   149    71    72    2
   150   181   180    1
   151   173   170    1
   152    73    74    1
   153    77    76    1
   154    74    75    1
   155    75    76    1
   156   183   180    1
   157   183   184    1
   158   185   184    1
   159   185   179    1
   160   180   179    1
   161   130   121   am
   162   179   171   am
   163   162   163    1
   164   162   161    1
   165   163   164    2
   166   116   117    1
   167   116   115    1
   168   114   113    2
   169   170   171    1
   170   170   169    1
   171   171   172    2
   172   122   121    2
   173   112   115    1
   174   112   113    1
   175   112   111    1
   176   121   120    1
   177   103   102    2
   178   111   102   am
   179   102   101    1
   180   104   105    1
   181   104   101    1
   182   120   123    1
   183   120   119    1
   184   123   124    1
   185   105   106    1
   186   101   100    1
   187    99    97    1
   188   124   125    1
   189   106   107    1
   190   125   126    1
   191   107   108    2
   192   128   127    1
   193    88    86    1
   194    97    98    1
   195    97    96    2
   196    86    85    2
   197    86    87    1
   198   126   127    2
   199   108   110    1
   200   108   109    1
   201    92    91    2
   202    85    84    1
   203   127   129    1
   204    96    95    1
   205    95    94    1
   206    91    90    1
   207    84    83    1
   208    94    93    1
   209    90    93    1
   210    90    89    1
   211    83    82    1
   212    82    79    1
   213    79    80    1
   214    79    78    1
   215    80    81    2
