@<TRIPOS>MOLECULE
tmp/4kfbA00.pdb
 91 86 0 0 0
SMALL
GASTEIGER

@<TRIPOS>ATOM
      1  N         49.7810  -12.0890   45.8250 N.3    92  VAL92      -0.1231
      2  CA        50.4880  -12.7410   44.7180 C.3    92  VAL92       0.1692
      3  C         49.5620  -13.6260   43.8910 C.2    92  VAL92       0.2591
      4  O         49.5980  -13.6170   42.6490 O.2    92  VAL92      -0.2718
      5  CB        51.6340  -13.6260   45.2810 C.3    92  VAL92       0.0266
      6  CG1       51.9430  -14.8050   44.3630 C.3    92  VAL92       0.0020
      7  CG2       52.8640  -12.7950   45.5460 C.3    92  VAL92       0.0020
      8  N         48.7400  -14.4090   44.5830 N.am   93  GLN93      -0.1979
      9  CA        47.8320  -15.2890   43.8850 C.3    93  GLN93       0.1601
     10  C         46.4500  -14.6670   43.9260 C.2    93  GLN93       0.2287
     11  O         45.7560  -14.6760   44.9410 O.2    93  GLN93      -0.2864
     12  CB        47.8250  -16.6730   44.5470 C.3    93  GLN93       0.0394
     13  CG        49.2050  -17.3000   44.6690 C.3    93  GLN93       0.0908
     14  CD        49.1460  -18.7600   45.0680 C.2    93  GLN93       0.2608
     15  OE1       48.5250  -19.1210   46.0690 O.2    93  GLN93      -0.2717
     16  NE2       49.7820  -19.6090   44.2790 N.am   93  GLN93      -0.0878
     17  N         51.7310  -16.2060   50.9290 N.3   163  GLN163     -0.1245
     18  CA        52.0870  -16.3420   49.5120 C.3   163  GLN163      0.1566
     19  C         53.4110  -15.6440   49.2300 C.2   163  GLN163      0.2260
     20  O         54.2930  -16.2020   48.5720 O.2   163  GLN163     -0.2867
     21  CB        50.9960  -15.7550   48.6130 C.3   163  GLN163      0.0367
     22  CG        49.7210  -16.5700   48.5380 C.3   163  GLN163      0.0905
     23  CD        48.5480  -15.7370   48.0430 C.2   163  GLN163      0.2608
     24  OE1       48.7220  -14.7940   47.2650 O.2   163  GLN163     -0.2717
     25  NE2       47.3500  -16.0680   48.5110 N.am  163  GLN163     -0.0878
     26  N         56.3500  -17.6370   50.8770 N.3   166  MET166     -0.1230
     27  CA        56.6280  -18.8490   50.1110 C.3   166  MET166      0.1702
     28  C         57.2860  -18.5430   48.7620 C.2   166  MET166      0.2593
     29  O         58.2190  -19.2380   48.3450 O.2   166  MET166     -0.2718
     30  CB        55.3440  -19.6750   49.9230 C.3   166  MET166      0.0401
     31  CG        55.5390  -21.0080   49.2400 C.3   166  MET166      0.0596
     32  SD        56.3990  -22.2690   50.2370 S.3   166  MET166     -0.1393
     33  CE        55.9970  -21.6920   51.8820 C.3   166  MET166      0.0692
     34  N         56.7940  -17.5170   48.0750 N.am  167  THR167     -0.1953
     35  CA        57.4020  -17.0820   46.8210 C.3   167  THR167      0.1897
     36  C         58.8890  -16.7680   46.9750 C.2   167  THR167      0.2313
     37  O         59.7120  -17.1880   46.1590 O.2   167  THR167     -0.2863
     38  CB        56.6890  -15.8330   46.2790 C.3   167  THR167      0.1794
     39  OG1       55.3790  -16.2050   45.8550 O.3   167  THR167     -0.2208
     40  CG2       57.4430  -15.2510   45.0950 C.3   167  THR167      0.0378
     41  N         60.8710  -19.9590   47.3300 N.3   170  LEU170     -0.1231
     42  CA        60.9160  -20.7750   46.1210 C.3   170  LEU170      0.1693
     43  C         61.6940  -20.1090   44.9880 C.2   170  LEU170      0.2591
     44  O         62.1880  -20.7870   44.0950 O.2   170  LEU170     -0.2718
     45  CB        59.4910  -21.0880   45.6370 C.3   170  LEU170      0.0284
     46  CG        58.6590  -21.9060   46.6320 C.3   170  LEU170      0.0019
     47  CD1       57.2010  -22.0030   46.1710 C.3   170  LEU170      0.0001
     48  CD2       59.2720  -23.2770   46.7960 C.3   170  LEU170      0.0001
     49  N         61.7700  -18.7820   45.0070 N.am  171  GLU171     -0.1979
     50  CA        62.3210  -18.0520   43.8570 C.3   171  GLU171      0.1602
     51  C         63.7120  -18.5210   43.3970 C.2   171  GLU171      0.2287
     52  O         63.8840  -18.8030   42.2150 O.2   171  GLU171     -0.2864
     53  CB        62.2760  -16.5260   44.0590 C.3   171  GLU171      0.0415
     54  CG        62.9050  -15.7200   42.9160 C.3   171  GLU171      0.1163
     55  CD        62.2350  -15.9510   41.5590 C.2   171  GLU171      0.3649
     56  OE1       61.0660  -16.3960   41.5260 O.co2 171  GLU171     -0.2457
     57  OE2       62.8800  -15.6820   40.5190 O.co2 171  GLU171     -0.2457
     58  N         63.4140  -21.9330   41.6710 N.3   174  ALA174     -0.1245
     59  CA        62.7870  -21.8490   40.3490 C.3   174  ALA174      0.1562
     60  C         63.7480  -21.2340   39.3430 C.2   174  ALA174      0.2260
     61  O         63.8640  -21.7120   38.2180 O.2   174  ALA174     -0.2867
     62  CB        61.5150  -21.0280   40.4190 C.3   174  ALA174      0.0290
     63  N         56.7040  -24.7120   38.9780 N.3   182  ILE182     -0.1231
     64  CA        56.2910  -24.9050   40.3570 C.3   182  ILE182      0.1692
     65  C         55.0030  -24.1410   40.5620 C.2   182  ILE182      0.2592
     66  O         54.7820  -23.1230   39.9210 O.2   182  ILE182     -0.2718
     67  CB        57.3840  -24.3910   41.3090 C.3   182  ILE182      0.0266
     68  CG1       58.5640  -25.3530   41.2860 C.3   182  ILE182      0.0019
     69  CG2       56.8750  -24.2760   42.7210 C.3   182  ILE182      0.0020
     70  CD1       59.6420  -25.0010   42.3300 C.3   182  ILE182      0.0001
     71  N         54.1170  -24.6520   41.4040 N.am  183  TYR183     -0.1962
     72  CA        52.9290  -23.8930   41.7440 C.3   183  TYR183      0.1771
     73  C         52.5580  -24.2960   43.1420 C.2   183  TYR183      0.2619
     74  O         52.6560  -25.4610   43.5090 O.2   183  TYR183     -0.2715
     75  CB        51.7950  -24.1960   40.7440 C.3   183  TYR183      0.0574
     76  CG        50.4150  -23.7760   41.2210 C.ar  183  TYR183     -0.0198
     77  CD1       49.9700  -22.4860   41.0570 C.ar  183  TYR183     -0.0009
     78  CD2       49.5610  -24.7020   41.8330 C.ar  183  TYR183     -0.0009
     79  CE1       48.7030  -22.1010   41.4970 C.ar  183  TYR183      0.0417
     80  CE2       48.3150  -24.3300   42.2880 C.ar  183  TYR183      0.0417
     81  CZ        47.8870  -23.0350   42.1140 C.ar  183  TYR183      0.1957
     82  OH        46.6350  -22.6790   42.5650 O.3   183  TYR183     -0.2866
     83  N         52.1270  -23.3290   43.9270 N.am  184  GLN184     -0.1977
     84  CA        51.8990  -23.5960   45.3240 C.3   184  GLN184      0.1601
     85  C         50.5410  -23.0540   45.7180 C.2   184  GLN184      0.2287
     86  O         50.2080  -21.9020   45.4490 O.2   184  GLN184     -0.2864
     87  CB        53.0360  -23.0100   46.1670 C.3   184  GLN184      0.0394
     88  CG        53.1920  -23.6610   47.5320 C.3   184  GLN184      0.0908
     89  CD        52.2810  -23.0230   48.5590 C.2   184  GLN184      0.2608
     90  OE1       52.0570  -21.8140   48.5270 O.2   184  GLN184     -0.2717
     91  NE2       51.7350  -23.8320   49.4620 N.am  184  GLN184     -0.0878
@<TRIPOS>BOND
     1    61    60    2
     2    63    64    1
     3    60    59    1
     4    66    65    2
     5    59    62    1
     6    59    58    1
     7    64    65    1
     8    64    67    1
     9    57    55   ar
    10    65    71   am
    11    75    76    1
    12    75    72    1
    13    77    76   ar
    14    77    79   ar
    15    76    78   ar
    16    68    67    1
    17    68    70    1
    18    67    69    1
    19    71    72    1
    20    79    81   ar
    21    56    55   ar
    22    55    54    1
    23    72    73    1
    24    78    80   ar
    25    81    80   ar
    26    81    82    1
    27    52    51    2
    28     4     3    2
    29    54    53    1
    30    73    74    2
    31    73    83   am
    32    51    50    1
    33    50    53    1
    34    50    49    1
    35     9    10    1
    36     9    12    1
    37     9     8    1
    38     3     8   am
    39     3     2    1
    40    10    11    2
    41    83    84    1
    42    44    43    2
    43    16    14   am
    44     6     5    1
    45    12    13    1
    46    13    14    1
    47     2     5    1
    48     2     1    1
    49    43    49   am
    50    43    42    1
    51    14    15    2
    52    40    38    1
    53     5     7    1
    54    84    85    1
    55    84    87    1
    56    86    85    2
    57    45    42    1
    58    45    46    1
    59    39    38    1
    60    42    41    1
    61    37    36    2
    62    87    88    1
    63    47    46    1
    64    38    35    1
    65    46    48    1
    66    35    36    1
    67    35    34    1
    68    24    23    2
    69    88    89    1
    70    23    25   am
    71    23    22    1
    72    34    28   am
    73    29    28    2
    74    90    89    2
    75    22    21    1
    76    89    91   am
    77    20    19    2
    78    21    18    1
    79    28    27    1
    80    19    18    1
    81    31    30    1
    82    31    32    1
    83    18    17    1
    84    30    27    1
    85    27    26    1
    86    32    33    1
