@<TRIPOS>MOLECULE
tmp/4kfgB00.pdb
 147 137 0 0 0
SMALL
GASTEIGER

@<TRIPOS>ATOM
      1  N          9.0210   19.1690  -23.8820 N.3    29  VAL29      -0.1245
      2  CA         7.7070   19.1420  -24.5400 C.3    29  VAL29       0.1561
      3  C          6.9720   17.8110  -24.2690 C.2    29  VAL29       0.2260
      4  O          5.7890   17.8050  -23.9020 O.2    29  VAL29      -0.2867
      5  CB         7.8210   19.4350  -26.0490 C.3    29  VAL29       0.0252
      6  CG1        6.4300   19.4210  -26.6570 C.3    29  VAL29       0.0019
      7  CG2        8.4700   20.7880  -26.3040 C.3    29  VAL29       0.0019
      8  N          5.3300   17.6930  -20.9080 N.3    32  ASN32      -0.1225
      9  CA         4.0020   18.3020  -20.8790 C.3    32  ASN32       0.1785
     10  C          2.9180   17.3410  -21.3730 C.2    32  ASN32       0.2597
     11  O          1.8320   17.2570  -20.7940 O.2    32  ASN32      -0.2718
     12  CB         3.9820   19.6180  -21.6560 C.3    32  ASN32       0.1169
     13  CG         4.6570   20.7390  -20.9030 C.2    32  ASN32       0.2627
     14  OD1        4.0140   21.4740  -20.1750 O.2    32  ASN32      -0.2716
     15  ND2        5.9560   20.8550  -21.0610 N.am   32  ASN32      -0.0877
     16  N          3.2430   16.5820  -22.4120 N.am   33  ALA33      -0.1979
     17  CA         2.3070   15.6150  -22.9680 C.3    33  ALA33       0.1597
     18  C          2.0800   14.4520  -22.0040 C.2    33  ALA33       0.2287
     19  O          0.9520   13.9980  -21.8300 O.2    33  ALA33      -0.2864
     20  CB         2.8070   15.1390  -24.3350 C.3    33  ALA33       0.0319
     21  N          2.3450   14.6090  -18.7560 N.3    35  ASP35      -0.1225
     22  CA         1.5670   15.1990  -17.6590 C.3    35  ASP35       0.1805
     23  C          0.0940   15.1030  -17.9920 C.2    35  ASP35       0.2597
     24  O         -0.7030   14.6830  -17.1590 O.2    35  ASP35      -0.2718
     25  CB         1.9910   16.6680  -17.4610 C.3    35  ASP35       0.1424
     26  CG         1.8260   17.1540  -16.0420 C.2    35  ASP35       0.3668
     27  OD1        2.0070   18.3760  -15.8330 O.co2  35  ASP35      -0.2456
     28  OD2        1.5280   16.3410  -15.1430 O.co2  35  ASP35      -0.2456
     29  N         -0.2560   15.4410  -19.2350 N.am   36  GLU36      -0.1979
     30  CA        -1.6520   15.4230  -19.6650 C.3    36  GLU36       0.1602
     31  C         -2.1720   13.9820  -19.7500 C.2    36  GLU36       0.2287
     32  O         -3.3310   13.7110  -19.4020 O.2    36  GLU36      -0.2864
     33  CB        -1.8240   16.2080  -20.9800 C.3    36  GLU36       0.0415
     34  CG        -3.2510   16.2750  -21.5380 C.3    36  GLU36       0.1163
     35  CD        -4.2650   16.9030  -20.6010 C.2    36  GLU36       0.3649
     36  OE1       -3.8890   17.4080  -19.5160 O.co2  36  GLU36      -0.2457
     37  OE2       -5.4540   16.9210  -20.9790 O.co2  36  GLU36      -0.2457
     38  N          5.4590   16.9430  -31.0270 N.3    57  VAL57      -0.1231
     39  CA         4.9420   16.0980  -29.9580 C.3    57  VAL57       0.1692
     40  C          3.4510   16.3600  -29.9390 C.2    57  VAL57       0.2592
     41  O          3.0150   17.5090  -29.9250 O.2    57  VAL57      -0.2718
     42  CB         5.5670   16.4850  -28.5970 C.3    57  VAL57       0.0266
     43  CG1        5.0140   15.5880  -27.5000 C.3    57  VAL57       0.0020
     44  CG2        7.0880   16.4060  -28.6690 C.3    57  VAL57       0.0020
     45  N          2.6790   15.2790  -30.0160 N.am   58  GLN58      -0.1966
     46  CA         1.2390   15.3850  -30.0880 C.3    58  GLN58       0.1733
     47  C          0.6090   14.5470  -29.0020 C.2    58  GLN58       0.2616
     48  O          1.0260   13.4180  -28.7740 O.2    58  GLN58      -0.2715
     49  CB         0.7110   14.9520  -31.4510 C.3    58  GLN58       0.0408
     50  CG        -0.7760   15.2330  -31.5780 C.3    58  GLN58       0.0908
     51  CD        -1.2310   15.3740  -33.0150 C.2    58  GLN58       0.2608
     52  OE1       -0.5120   15.0050  -33.9480 O.2    58  GLN58      -0.2717
     53  NE2       -2.4430   15.8900  -33.2030 N.am   58  GLN58      -0.0878
     54  N         -0.3860   15.0970  -28.3120 N.am   59  ASP59      -0.1971
     55  CA        -1.2080   14.2640  -27.4270 C.3    59  ASP59       0.1709
     56  C         -2.6740   14.3650  -27.8380 C.2    59  ASP59       0.2293
     57  O         -3.0630   15.2240  -28.6480 O.2    59  ASP59      -0.2864
     58  CB        -0.9930   14.5810  -25.9240 C.3    59  ASP59       0.1436
     59  CG        -1.5300   15.9350  -25.5050 C.2    59  ASP59       0.3671
     60  OD1       -0.7640   16.7370  -24.8990 O.co2  59  ASP59      -0.2456
     61  OD2       -2.7260   16.2130  -25.7460 O.co2  59  ASP59      -0.2456
     62  N         -6.8350   17.0690  -23.4190 N.3    62  ARG62      -0.1231
     63  CA        -7.8880   18.0520  -23.4160 C.3    62  ARG62       0.1694
     64  C         -7.7010   19.1850  -24.4200 C.2    62  ARG62       0.2593
     65  O         -8.6820   19.8240  -24.8320 O.2    62  ARG62      -0.2718
     66  CB        -8.0460   18.6300  -22.0230 C.3    62  ARG62       0.0321
     67  CG        -8.7440   17.6860  -21.0590 C.3    62  ARG62       0.0489
     68  CD        -8.6510   18.2670  -19.6690 C.3    62  ARG62       0.2205
     69  NE        -7.2860   18.1410  -19.1540 N.pl3  62  ARG62      -0.0865
     70  CZ        -6.9120   18.4630  -17.9220 C.cat  62  ARG62       0.5346
     71  NH1       -5.6540   18.2940  -17.5610 N.pl3  62  ARG62       0.1354
     72  NH2       -7.7950   18.9420  -17.0510 N.pl3  62  ARG62       0.1354
     73  N         -6.4500   19.4370  -24.8090 N.am   63  GLY63      -0.1942
     74  CA        -6.1050   20.6440  -25.5620 C.3    63  GLY63       0.2014
     75  C         -5.9230   21.8130  -24.6010 C.2    63  GLY63       0.2639
     76  O         -6.7560   22.0240  -23.7000 O.2    63  GLY63      -0.2714
     77  N         -4.8410   22.5740  -24.7520 N.am   64  ILE64      -0.1963
     78  CA        -4.6400   23.7470  -23.8940 C.3    64  ILE64       0.1712
     79  C         -5.7910   24.7270  -24.1390 C.2    64  ILE64       0.2458
     80  O         -6.1370   24.9730  -25.2890 O.2    64  ILE64      -0.2730
     81  CB        -3.3270   24.4970  -24.1910 C.3    64  ILE64       0.0289
     82  CG1       -2.1250   23.5380  -24.1160 C.3    64  ILE64       0.0022
     83  CG2       -3.1660   25.6700  -23.2130 C.3    64  ILE64       0.0023
     84  CD1       -0.7930   24.1230  -24.5580 C.3    64  ILE64       0.0001
     85  N         -6.3950   25.2930  -23.0660 N.am   65  PRO65      -0.2727
     86  CA        -7.4960   26.2460  -23.2690 C.3    65  PRO65       0.1402
     87  C         -7.1060   27.3950  -24.1950 C.2    65  PRO65       0.2269
     88  O         -5.9710   27.8850  -24.1400 O.2    65  PRO65      -0.2865
     89  CB        -7.7540   26.7800  -21.8680 C.3    65  PRO65       0.0296
     90  CG        -7.3980   25.6470  -20.9920 C.3    65  PRO65       0.0237
     91  CD        -6.2470   24.9290  -21.6430 C.3    65  PRO65       0.0939
     92  N          0.8500   30.2430  -21.6590 N.3    74  ILE74      -0.1231
     93  CA         1.6550   29.0510  -21.4110 C.3    74  ILE74       0.1692
     94  C          2.9400   29.0390  -22.2480 C.2    74  ILE74       0.2591
     95  O          4.0190   28.6770  -21.7610 O.2    74  ILE74      -0.2718
     96  CB         0.8350   27.7650  -21.6820 C.3    74  ILE74       0.0266
     97  CG1       -0.2780   27.5880  -20.6350 C.3    74  ILE74       0.0019
     98  CG2        1.7270   26.5250  -21.7640 C.3    74  ILE74       0.0020
     99  CD1        0.1990   27.3910  -19.2030 C.3    74  ILE74       0.0001
    100  N          2.8340   29.4910  -23.4920 N.am   75  MET75      -0.1979
    101  CA         3.9600   29.4400  -24.4340 C.3    75  MET75       0.1605
    102  C          4.9640   30.5590  -24.2430 C.2    75  MET75       0.2287
    103  O          6.1000   30.4590  -24.6960 O.2    75  MET75      -0.2864
    104  CB         3.4690   29.4990  -25.8850 C.3    75  MET75       0.0413
    105  CG         2.7630   28.2410  -26.3520 C.3    75  MET75       0.0598
    106  SD         3.8600   26.8100  -26.4360 S.3    75  MET75      -0.1393
    107  CE         2.8010   25.5950  -25.6550 C.3    75  MET75       0.0692
    108  N          1.4710   23.7850  -12.0590 N.3    79  ASP79      -0.1239
    109  CA         2.8700   23.9810  -12.4660 C.3    79  ASP79       0.1674
    110  C          3.7920   22.9130  -11.8710 C.2    79  ASP79       0.2266
    111  O          5.0030   22.9330  -12.0940 O.2    79  ASP79      -0.2867
    112  CB         3.3750   25.3920  -12.0990 C.3    79  ASP79       0.1410
    113  CG         3.4340   25.6450  -10.5900 C.2    79  ASP79       0.3668
    114  OD1        3.9630   26.7000  -10.1930 O.co2  79  ASP79      -0.2456
    115  OD2        2.9550   24.8170   -9.7930 O.co2  79  ASP79      -0.2456
    116  N          7.6420   24.8990  -20.8870 N.3    93  VAL93      -0.1245
    117  CA         7.6540   24.9190  -22.3540 C.3    93  VAL93       0.1561
    118  C          7.9920   26.3020  -22.9340 C.2    93  VAL93       0.2260
    119  O          8.4570   26.4060  -24.0560 O.2    93  VAL93      -0.2867
    120  CB         6.3280   24.3660  -22.9430 C.3    93  VAL93       0.0252
    121  CG1        5.1460   25.3050  -22.6570 C.3    93  VAL93       0.0019
    122  CG2        6.4640   24.0940  -24.4410 C.3    93  VAL93       0.0019
    123  N         -9.7740   21.4230  -29.7600 N.3   109  ARG109     -0.1245
    124  CA       -10.5420   21.6260  -28.5240 C.3   109  ARG109      0.1563
    125  C        -11.8900   22.2420  -28.8460 C.2   109  ARG109      0.2260
    126  O        -11.9770   23.1420  -29.6660 O.2   109  ARG109     -0.2867
    127  CB        -9.7470   22.5560  -27.6170 C.3   109  ARG109      0.0307
    128  CG       -10.3780   22.7780  -26.2490 C.3   109  ARG109      0.0489
    129  CD        -9.4160   23.5300  -25.3430 C.3   109  ARG109      0.2205
    130  NE       -10.1100   23.9990  -24.1420 N.pl3 109  ARG109     -0.0865
    131  CZ       -10.1930   23.3160  -23.0020 C.cat 109  ARG109      0.5346
    132  NH1       -9.6240   22.1230  -22.8640 N.pl3 109  ARG109      0.1354
    133  NH2      -10.8740   23.8340  -21.9790 N.pl3 109  ARG109      0.1354
    134  N         -3.1980   18.5160  -27.9440 N.3   138  THR138     -0.1218
    135  CA        -2.2180   19.5630  -28.1610 C.3   138  THR138      0.1862
    136  C         -1.0670   19.0170  -28.9800 C.2   138  THR138      0.2287
    137  O         -0.5970   17.9070  -28.7580 O.2   138  THR138     -0.2866
    138  CB        -1.6980   20.0930  -26.8140 C.3   138  THR138      0.1770
    139  OG1       -2.8010   20.5690  -26.0380 O.3   138  THR138     -0.2211
    140  CG2       -0.7040   21.2160  -26.9950 C.3   138  THR138      0.0375
    141  N          2.6810   20.3870  -30.3110 N.3   140  VAL140     -0.1245
    142  CA         3.7510   21.3760  -30.4260 C.3   140  VAL140      0.1561
    143  C          4.8130   20.8660  -31.3710 C.2   140  VAL140      0.2260
    144  O          5.3050   19.7610  -31.2070 O.2   140  VAL140     -0.2867
    145  CB         4.3880   21.7120  -29.0460 C.3   140  VAL140      0.0252
    146  CG1        5.6930   22.4820  -29.2170 C.3   140  VAL140      0.0019
    147  CG2        3.4000   22.5090  -28.2170 C.3   140  VAL140      0.0019
@<TRIPOS>BOND
     1    52    51    2
     2    53    51   am
     3    51    50    1
     4    50    49    1
     5    49    46    1
     6   143   144    2
     7   143   142    1
     8    38    39    1
     9   142   141    1
    10   142   145    1
    11    46    45    1
    12    46    47    1
    13    45    40   am
    14    39    40    1
    15    39    42    1
    16    40    41    2
    17   123   124    1
    18   126   125    2
    19   146   145    1
    20   145   147    1
    21    47    48    2
    22    47    54   am
    23   136   137    2
    24   136   135    1
    25   125   124    1
    26    44    42    1
    27    57    56    2
    28    42    43    1
    29   124   127    1
    30    54    55    1
    31   135   134    1
    32   135   138    1
    33    56    55    1
    34   127   128    1
    35    55    58    1
    36   140   138    1
    37   138   139    1
    38     6     5    1
    39   106   105    1
    40   106   107    1
    41   105   104    1
    42     7     5    1
    43   128   129    1
    44     5     2    1
    45    58    59    1
    46   104   101    1
    47    61    59   ar
    48    74    73    1
    49    74    75    1
    50    59    60   ar
    51   129   130    1
    52    80    79    2
    53    65    64    2
    54    73    64   am
    55    77    75   am
    56    77    78    1
    57   103   102    2
    58    75    76    2
    59    84    82    1
    60     2     3    1
    61     2     1    1
    62   122   120    1
    63   101   102    1
    64   101   100    1
    65    64    63    1
    66    20    17    1
    67     3     4    2
    68    87    88    2
    69    87    86    1
    70    81    82    1
    71    81    78    1
    72    81    83    1
    73   130   131    2
    74    79    78    1
    75    79    85   am
    76   119   118    2
    77   100    94   am
    78    62    63    1
    79    63    66    1
    80    86    85    1
    81    86    89    1
    82    85    91    1
    83   131   132    1
    84   131   133    1
    85    17    16    1
    86    17    18    1
    87   120   121    1
    88   120   117    1
    89   118   117    1
    90    16    10   am
    91   117   116    1
    92    94    95    2
    93    94    93    1
    94    66    67    1
    95    18    19    2
    96    89    90    1
    97    98    96    1
    98    96    93    1
    99    96    97    1
   100    92    93    1
   101    12    13    1
   102    12     9    1
   103    91    90    1
   104    34    33    1
   105    34    35    1
   106    10     9    1
   107    10    11    2
   108    15    13   am
   109    67    68    1
   110    33    30    1
   111    37    35   ar
   112     8     9    1
   113    13    14    2
   114    97    99    1
   115    35    36   ar
   116    31    30    1
   117    31    32    2
   118    68    69    1
   119    30    29    1
   120    29    23   am
   121    69    70    2
   122    21    22    1
   123    23    22    1
   124    23    24    2
   125    70    71    1
   126    70    72    1
   127    22    25    1
   128    25    26    1
   129    26    27   ar
   130    26    28   ar
   131   109   112    1
   132   109   108    1
   133   109   110    1
   134   112   113    1
   135   111   110    2
   136   113   114   ar
   137   113   115   ar
