@<TRIPOS>MOLECULE
tmp/4kfjA01.pdb
 203 197 0 0 0
SMALL
GASTEIGER

@<TRIPOS>ATOM
      1  N         24.9170    1.7030   20.3430 N.3     7  ILE7       -0.1231
      2  CA        23.9200    1.9420   19.3050 C.3     7  ILE7        0.1692
      3  C         23.1820    3.2180   19.6760 C.2     7  ILE7        0.2592
      4  O         22.8820    3.4470   20.8570 O.2     7  ILE7       -0.2718
      5  CB        23.0030    0.7240   19.1130 C.3     7  ILE7        0.0266
      6  CG1       22.0680    0.9370   17.9510 C.3     7  ILE7        0.0019
      7  CG2       22.2420    0.3560   20.3930 C.3     7  ILE7        0.0020
      8  CD1       21.4950   -0.3780   17.4020 C.3     7  ILE7        0.0001
      9  N         22.9300    4.0610   18.6710 N.am    8  VAL8       -0.1966
     10  CA        22.3540    5.3930   18.8850 C.3     8  VAL8        0.1727
     11  C         21.7120    5.8480   17.5560 C.2     8  VAL8        0.2616
     12  O         22.1290    5.4000   16.5080 O.2     8  VAL8       -0.2715
     13  CB        23.4460    6.3910   19.2900 C.3     8  VAL8        0.0290
     14  CG1       24.4370    6.6390   18.1190 C.3     8  VAL8        0.0023
     15  CG2       22.8460    7.6860   19.8150 C.3     8  VAL8        0.0023
     16  N         20.7110    6.7430   17.6270 N.am    9  ALA9       -0.1977
     17  CA        20.1470    7.4210   16.4410 C.3     9  ALA9        0.1597
     18  C         20.3070    8.8850   16.7340 C.2     9  ALA9        0.2287
     19  O         20.0210    9.3330   17.8520 O.2     9  ALA9       -0.2864
     20  CB        18.7040    7.0700   16.2820 C.3     9  ALA9        0.0319
     21  N         12.2740   11.9510   25.8760 N.3    21  ASP21      -0.1225
     22  CA        11.8740   11.0950   24.7660 C.3    21  ASP21       0.1805
     23  C         12.7860   11.4340   23.5910 C.2    21  ASP21       0.2597
     24  O         13.7230   12.2250   23.7170 O.2    21  ASP21      -0.2718
     25  CB        10.4250   11.3920   24.3980 C.3    21  ASP21       0.1424
     26  CG         9.7500   10.2580   23.6380 C.2    21  ASP21       0.3668
     27  OD1       10.4280    9.4210   23.0000 O.co2  21  ASP21      -0.2456
     28  OD2        8.5060   10.1970   23.6950 O.co2  21  ASP21      -0.2456
     29  N         12.4940   10.8420   22.4320 N.am   22  LEU22      -0.1979
     30  CA        13.2550   11.1040   21.2140 C.3    22  LEU22       0.1596
     31  C         12.8430   12.4340   20.5760 C.2    22  LEU22       0.2287
     32  O         11.7110   12.8820   20.7510 O.2    22  LEU22      -0.2864
     33  CB        13.0490    9.9660   20.2190 C.3    22  LEU22       0.0297
     34  CG        13.4150    8.5700   20.7530 C.3    22  LEU22       0.0022
     35  CD1       13.2860    7.5770   19.6210 C.3    22  LEU22       0.0001
     36  CD2       14.8300    8.5940   21.2840 C.3    22  LEU22       0.0001
     37  N         12.3830   13.0340   17.4230 N.3    24  TRP24      -0.1241
     38  CA        11.5930   12.7960   16.2120 C.3    24  TRP24       0.1605
     39  C         10.4130   11.8930   16.4830 C.2    24  TRP24       0.2264
     40  O         10.4020   11.1310   17.4540 O.2    24  TRP24      -0.2867
     41  CB        12.4700   12.1750   15.1020 C.3    24  TRP24       0.0550
     42  CG        13.3750   11.0800   15.6210 C.ar   24  TRP24       0.0003
     43  CD1       13.0890    9.7460   15.7540 C.ar   24  TRP24       0.0946
     44  CD2       14.6950   11.2680   16.1060 C.ar   24  TRP24       0.0152
     45  NE1       14.1750    9.0920   16.3180 N.ar   24  TRP24      -0.2442
     46  CE2       15.1770   10.0080   16.5260 C.ar   24  TRP24       0.0810
     47  CE3       15.5260   12.3840   16.2260 C.ar   24  TRP24       0.0012
     48  CZ2       16.4490    9.8480   17.0710 C.ar   24  TRP24       0.0191
     49  CZ3       16.8020   12.2250   16.7600 C.ar   24  TRP24       0.0001
     50  CH2       17.2470   10.9540   17.1760 C.ar   24  TRP24       0.0015
     51  N         13.3220    1.7410   12.1490 N.3    30  GLU30      -0.1231
     52  CA        14.5590    2.1180   12.8310 C.3    30  GLU30       0.1699
     53  C         14.5310    1.4740   14.2170 C.2    30  GLU30       0.2592
     54  O         15.5600    0.9840   14.7090 O.2    30  GLU30      -0.2718
     55  CB        14.6850    3.6520   12.9270 C.3    30  GLU30       0.0402
     56  CG        16.1310    4.1660   12.9270 C.3    30  GLU30       0.1161
     57  CD        16.7960    3.9840   14.2910 C.2    30  GLU30       0.3649
     58  OE1       17.9790    3.6050   14.2850 O.co2  30  GLU30      -0.2457
     59  OE2       16.1360    4.2220   15.3500 O.co2  30  GLU30      -0.2457
     60  N         13.3580    1.4740   14.8540 N.am   31  PHE31      -0.1976
     61  CA        13.2380    0.8340   16.1640 C.3    31  PHE31       0.1639
     62  C         13.4720   -0.6630   16.0410 C.2    31  PHE31       0.2290
     63  O         14.1480   -1.2610   16.8750 O.2    31  PHE31      -0.2864
     64  CB        11.8700    1.1140   16.7730 C.3    31  PHE31       0.0560
     65  CG        11.5140    0.1760   17.8780 C.ar   31  PHE31      -0.0200
     66  CD1       12.1010    0.3000   19.1090 C.ar   31  PHE31      -0.0042
     67  CD2       10.6130   -0.8510   17.6700 C.ar   31  PHE31      -0.0042
     68  CE1       11.7830   -0.5700   20.0960 C.ar   31  PHE31      -0.0003
     69  CE2       10.2900   -1.7210   18.6580 C.ar   31  PHE31      -0.0003
     70  CZ        10.8750   -1.5780   19.8790 C.ar   31  PHE31      -0.0000
     71  N         15.2980   -2.1310   13.9500 N.3    33  TYR33      -0.1227
     72  CA        16.7500   -2.2960   13.8030 C.3    33  TYR33       0.1736
     73  C         17.4250   -2.2910   15.1690 C.2    33  TYR33       0.2595
     74  O         18.2650   -3.1560   15.4660 O.2    33  TYR33      -0.2718
     75  CB        17.2830   -1.1490   12.9420 C.3    33  TYR33       0.0548
     76  CG        18.7870   -1.0600   12.7780 C.ar   33  TYR33      -0.0200
     77  CD1       19.5480   -0.1650   13.5460 C.ar   33  TYR33      -0.0009
     78  CD2       19.4250   -1.8270   11.8180 C.ar   33  TYR33      -0.0009
     79  CE1       20.9330   -0.0700   13.3520 C.ar   33  TYR33       0.0417
     80  CE2       20.7850   -1.7260   11.6090 C.ar   33  TYR33       0.0417
     81  CZ        21.5320   -0.8820   12.3820 C.ar   33  TYR33       0.1957
     82  OH        22.8800   -0.8000   12.1070 O.3    33  TYR33      -0.2866
     83  N         17.0660   -1.3330   16.0180 N.am   34  PHE34      -0.1962
     84  CA        17.6150   -1.2790   17.3620 C.3    34  PHE34       0.1771
     85  C         17.3180   -2.6080   18.0840 C.2    34  PHE34       0.2619
     86  O         18.1800   -3.1700   18.7440 O.2    34  PHE34      -0.2715
     87  CB        17.0260   -0.1040   18.1430 C.3    34  PHE34       0.0574
     88  CG        17.3550   -0.1360   19.6120 C.ar   34  PHE34      -0.0200
     89  CD1       18.4830    0.4940   20.0860 C.ar   34  PHE34      -0.0042
     90  CD2       16.5500   -0.7830   20.5000 C.ar   34  PHE34      -0.0042
     91  CE1       18.8100    0.4780   21.4050 C.ar   34  PHE34      -0.0003
     92  CE2       16.9430   -0.8170   21.8680 C.ar   34  PHE34      -0.0003
     93  CZ        18.0220   -0.1630   22.2960 C.ar   34  PHE34      -0.0000
     94  N         16.0790   -3.0640   17.9860 N.am   35  GLN35      -0.1977
     95  CA        15.6660   -4.3110   18.6220 C.3    35  GLN35       0.1601
     96  C         16.4770   -5.4850   18.0760 C.2    35  GLN35       0.2287
     97  O         17.0290   -6.2860   18.8520 O.2    35  GLN35      -0.2864
     98  CB        14.1600   -4.5340   18.4150 C.3    35  GLN35       0.0394
     99  CG        13.5680   -5.6630   19.2640 C.3    35  GLN35       0.0908
    100  CD        12.2340   -5.2850   19.8980 C.2    35  GLN35       0.2608
    101  OE1       12.1920   -4.7250   20.9910 O.2    35  GLN35      -0.2717
    102  NE2       11.1440   -5.6040   19.2200 N.am   35  GLN35      -0.0878
    103  N         17.5400    7.2240   30.5500 N.3    56  THR56      -0.1218
    104  CA        17.2130    6.3780   29.4160 C.3    56  THR56       0.1862
    105  C         16.2680    5.2740   29.8520 C.2    56  THR56       0.2287
    106  O         15.2710    5.0010   29.1940 O.2    56  THR56      -0.2866
    107  CB        18.4930    5.8570   28.7120 C.3    56  THR56       0.1770
    108  OG1       19.1960    6.9780   28.1690 O.3    56  THR56      -0.2211
    109  CG2       18.1420    4.8870   27.6230 C.3    56  THR56       0.0375
    110  N         12.9250    6.6380   30.1250 N.3    59  SER59      -0.1202
    111  CA        12.4230    7.0500   28.8180 C.3    59  SER59       0.2020
    112  C         11.8440    5.8870   28.0160 C.2    59  SER59       0.2619
    113  O         11.1560    6.1070   27.0210 O.2    59  SER59      -0.2717
    114  CB        13.5190    7.7390   28.0120 C.3    59  SER59       0.2103
    115  OG        14.3180    6.7670   27.3570 O.3    59  SER59      -0.2182
    116  N         12.1390    4.6530   28.4210 N.am   60  ILE60      -0.1966
    117  CA        11.5330    3.4950   27.8080 C.3    60  ILE60       0.1712
    118  C         10.1200    3.3680   28.3520 C.2    60  ILE60       0.2458
    119  O          9.9120    3.3970   29.5660 O.2    60  ILE60      -0.2730
    120  CB        12.3230    2.2010   28.1140 C.3    60  ILE60       0.0289
    121  CG1       13.7470    2.3140   27.5740 C.3    60  ILE60       0.0022
    122  CG2       11.6310    0.9840   27.5080 C.3    60  ILE60       0.0023
    123  CD1       14.7070    1.2030   28.1000 C.3    60  ILE60       0.0001
    124  N          9.1380    3.2500   27.4460 N.am   61  PRO61      -0.2727
    125  CA         7.7330    3.0350   27.7990 C.3    61  PRO61       0.1402
    126  C          7.5900    1.8570   28.7570 C.2    61  PRO61       0.2269
    127  O          7.9740    0.7470   28.3990 O.2    61  PRO61      -0.2865
    128  CB         7.0880    2.6970   26.4580 C.3    61  PRO61       0.0296
    129  CG         7.9480    3.3120   25.4500 C.3    61  PRO61       0.0237
    130  CD         9.3410    3.3210   25.9930 C.3    61  PRO61       0.0939
    131  N          7.1130   -1.8210   28.2010 N.3    64  ASN64      -0.1240
    132  CA         8.2140   -2.4460   27.4890 C.3    64  ASN64       0.1653
    133  C          9.5030   -2.6650   28.3130 C.2    64  ASN64       0.2266
    134  O         10.5270   -3.0980   27.7830 O.2    64  ASN64      -0.2867
    135  CB         8.4540   -1.6300   26.2350 C.3    64  ASN64       0.1155
    136  CG         7.3210   -1.8040   25.2180 C.2    64  ASN64       0.2627
    137  OD1        6.6100   -2.8020   25.2340 O.2    64  ASN64      -0.2716
    138  ND2        7.0880   -0.7900   24.4060 N.am   64  ASN64      -0.0877
    139  N         13.6060   -4.3670   28.6290 N.3    67  LEU67      -0.1231
    140  CA        13.6400   -4.7660   27.2150 C.3    67  LEU67       0.1693
    141  C         13.6750   -6.2830   27.1000 C.2    67  LEU67       0.2591
    142  O         14.6070   -6.9190   27.5820 O.2    67  LEU67      -0.2718
    143  CB        14.8440   -4.1390   26.4930 C.3    67  LEU67       0.0284
    144  CG        14.9020   -2.6070   26.5300 C.3    67  LEU67       0.0019
    145  CD1       16.1450   -2.0030   25.8540 C.3    67  LEU67       0.0001
    146  CD2       13.6400   -2.0490   25.9020 C.3    67  LEU67       0.0001
    147  N         12.6660   -6.8630   26.4570 N.am   68  LYS68      -0.1980
    148  CA        12.5070   -8.3140   26.3850 C.3    68  LYS68       0.1596
    149  C         13.6500   -9.0060   25.6300 C.2    68  LYS68       0.2287
    150  O         14.2050   -8.4620   24.6800 O.2    68  LYS68      -0.2864
    151  CB        11.1810   -8.6510   25.6990 C.3    68  LYS68       0.0298
    152  CG        11.2360   -8.3980   24.1960 C.3    68  LYS68       0.0038
    153  CD         9.8870   -8.4310   23.5260 C.3    68  LYS68       0.0206
    154  CE         9.9360   -7.5750   22.2590 C.3    68  LYS68       0.1093
    155  NZ         8.6850   -7.6260   21.4500 N.3    68  LYS68      -0.1314
    156  N         16.5730   -9.5230   26.4880 N.3    70  ARG70      -0.1245
    157  CA        17.8960   -8.9960   26.8380 C.3    70  ARG70       0.1563
    158  C         18.0380   -8.8090   28.3250 C.2    70  ARG70       0.2260
    159  O         17.0560   -8.5390   28.9940 O.2    70  ARG70      -0.2867
    160  CB        18.1320   -7.6340   26.1710 C.3    70  ARG70       0.0307
    161  CG        18.2020   -7.7220   24.6630 C.3    70  ARG70       0.0489
    162  CD        17.5900   -6.4700   24.0310 C.3    70  ARG70       0.2205
    163  NE        16.1330   -6.5660   23.9660 N.pl3  70  ARG70      -0.0865
    164  CZ        15.3540   -5.6940   23.3330 C.cat  70  ARG70       0.5346
    165  NH1       15.8780   -4.6640   22.6860 N.pl3  70  ARG70       0.1354
    166  NH2       14.0390   -5.8780   23.3230 N.pl3  70  ARG70       0.1354
    167  N         23.3860    1.5760   25.3090 N.3   115  VAL115     -0.1245
    168  CA        22.2110    2.1790   24.6480 C.3   115  VAL115      0.1561
    169  C         21.8590    3.5900   25.1660 C.2   115  VAL115      0.2260
    170  O         20.7110    3.9910   25.0910 O.2   115  VAL115     -0.2867
    171  CB        20.9610    1.2450   24.6750 C.3   115  VAL115      0.0252
    172  CG1       21.2980   -0.1180   24.0930 C.3   115  VAL115      0.0019
    173  CG2       20.3740    1.0440   26.1270 C.3   115  VAL115      0.0019
    174  N         27.5000    6.8810   26.5340 N.3   121  TYR121     -0.1241
    175  CA        28.1720    6.7830   25.2400 C.3   121  TYR121      0.1605
    176  C         29.5740    7.3680   25.2970 C.2   121  TYR121      0.2264
    177  O         30.5040    6.8190   24.7290 O.2   121  TYR121     -0.2867
    178  CB        27.4080    7.5580   24.1530 C.3   121  TYR121      0.0534
    179  CG        26.0760    6.9940   23.7250 C.ar  121  TYR121     -0.0201
    180  CD1       24.9500    7.8220   23.6710 C.ar  121  TYR121     -0.0009
    181  CD2       25.9300    5.6680   23.3300 C.ar  121  TYR121     -0.0009
    182  CE1       23.7360    7.3330   23.2710 C.ar  121  TYR121      0.0417
    183  CE2       24.7220    5.1770   22.9090 C.ar  121  TYR121      0.0417
    184  CZ        23.6330    6.0190   22.8770 C.ar  121  TYR121      0.1957
    185  OH        22.4560    5.5220   22.4940 O.3   121  TYR121     -0.2866
    186  N         27.1300    1.6880   16.2770 N.3   134  PHE134     -0.1241
    187  CA        26.0780    1.6280   15.2660 C.3   134  PHE134      0.1605
    188  C         25.2990    2.9270   15.3630 C.2   134  PHE134      0.2264
    189  O         24.5960    3.1620   16.3360 O.2   134  PHE134     -0.2867
    190  CB        25.1850    0.4080   15.4900 C.3   134  PHE134      0.0534
    191  CG        25.8720   -0.8770   15.1840 C.ar  134  PHE134     -0.0203
    192  CD1       26.7410   -1.4330   16.1090 C.ar  134  PHE134     -0.0042
    193  CD2       25.6640   -1.5150   13.9590 C.ar  134  PHE134     -0.0042
    194  CE1       27.3900   -2.6680   15.8110 C.ar  134  PHE134     -0.0003
    195  CE2       26.3120   -2.7150   13.6550 C.ar  134  PHE134     -0.0003
    196  CZ        27.1710   -3.2800   14.6000 C.ar  134  PHE134     -0.0000
    197  N         22.6720    5.6440   13.7050 N.3   136  THR136     -0.1218
    198  CA        21.7200    5.9890   12.6530 C.3   136  THR136      0.1862
    199  C         21.7730    7.4970   12.4710 C.2   136  THR136      0.2287
    200  O         21.5570    8.2450   13.4320 O.2   136  THR136     -0.2866
    201  CB        20.3410    5.5590   13.0190 C.3   136  THR136      0.1770
    202  OG1       20.3440    4.1080   13.1740 O.3   136  THR136     -0.2211
    203  CG2       19.3300    5.8880   11.8840 C.3   136  THR136      0.0375
@<TRIPOS>BOND
     1    80    78   ar
     2    80    81   ar
     3    78    76   ar
     4   203   201    1
     5    82    81    1
     6    51    52    1
     7    81    79   ar
     8   199   198    1
     9   199   200    2
    10   198   201    1
    11   198   197    1
    12    76    75    1
    13    76    77   ar
    14    52    55    1
    15    52    53    1
    16    56    55    1
    17    56    57    1
    18    75    72    1
    19   201   202    1
    20    79    77   ar
    21   195   193   ar
    22   195   196   ar
    23    72    71    1
    24    72    73    1
    25   193   191   ar
    26    53    54    2
    27    53    60   am
    28    58    57   ar
    29    57    59   ar
    30   196   194   ar
    31    60    61    1
    32    41    42    1
    33    41    38    1
    34    73    74    2
    35    73    83   am
    36   191   190    1
    37   191   192   ar
    38   187   188    1
    39   187   190    1
    40   187   186    1
    41   188   189    2
    42    42    43   ar
    43    42    44   ar
    44    43    45   ar
    45   194   192   ar
    46    83    84    1
    47    62    61    1
    48    62    63    2
    49    44    47   ar
    50    44    46   ar
    51    61    64    1
    52    38    39    1
    53    38    37    1
    54    47    49   ar
    55    20    17    1
    56    45    46   ar
    57    17    18    1
    58    17    16    1
    59    39    40    2
    60    12    11    2
    61    46    48   ar
    62    18    19    2
    63    49    50   ar
    64    64    65    1
    65    48    50   ar
    66    84    85    1
    67    84    87    1
    68     8     6    1
    69    11    16   am
    70    11    10    1
    71    67    65   ar
    72    67    69   ar
    73    65    66   ar
    74     6     5    1
    75    94    85   am
    76    94    95    1
    77    96    95    1
    78    96    97    2
    79    85    86    2
    80    14    13    1
    81    87    88    1
    82    98    95    1
    83    98    99    1
    84    69    70   ar
    85     9    10    1
    86     9     3   am
    87    10    13    1
    88    66    68   ar
    89     5     2    1
    90     5     7    1
    91   102   100   am
    92    99   100    1
    93    13    15    1
    94     2     3    1
    95     2     1    1
    96    88    89   ar
    97    88    90   ar
    98    35    34    1
    99     3     4    2
   100    70    68   ar
   101   100   101    2
   102    89    91   ar
   103    33    34    1
   104    33    30    1
   105    90    92   ar
   106    31    32    2
   107    31    30    1
   108    34    36    1
   109    30    29    1
   110    91    93   ar
   111   155   154    1
   112    92    93   ar
   113   154   153    1
   114    29    23   am
   115   185   184    1
   116   165   164    1
   117   184   183   ar
   118   184   182   ar
   119   183   181   ar
   120    27    26   ar
   121   182   180   ar
   122   166   164    1
   123   181   179   ar
   124   164   163    2
   125   153   152    1
   126    23    24    2
   127    23    22    1
   128    26    28   ar
   129    26    25    1
   130   180   179   ar
   131   179   178    1
   132   163   162    1
   133   162   161    1
   134   172   171    1
   135   178   175    1
   136   152   151    1
   137    25    22    1
   138   138   136   am
   139   168   171    1
   140   168   169    1
   141   168   167    1
   142   161   160    1
   143   171   173    1
   144   150   149    2
   145   177   176    2
   146    22    21    1
   147   170   169    2
   148   136   137    2
   149   136   135    1
   150   175   176    1
   151   175   174    1
   152   129   130    1
   153   129   128    1
   154   149   148    1
   155   151   148    1
   156   145   144    1
   157   146   144    1
   158   130   124    1
   159   160   157    1
   160   135   132    1
   161   148   147    1
   162   147   141   am
   163   128   125    1
   164   156   157    1
   165   143   144    1
   166   143   140    1
   167   157   158    1
   168   113   112    2
   169   141   140    1
   170   141   142    2
   171   140   139    1
   172   115   114    1
   173   124   125    1
   174   124   118   am
   175   132   131    1
   176   132   133    1
   177   122   120    1
   178   121   123    1
   179   121   120    1
   180   109   107    1
   181   134   133    2
   182   125   126    1
   183   117   120    1
   184   117   118    1
   185   117   116    1
   186   114   111    1
   187   112   116   am
   188   112   111    1
   189   108   107    1
   190   158   159    2
   191   118   119    2
   192   127   126    2
   193   107   104    1
   194   111   110    1
   195   106   105    2
   196   104   105    1
   197   104   103    1
