@<TRIPOS>MOLECULE
tmp/4kfmA00.pdb
 119 114 0 0 0
SMALL
GASTEIGER

@<TRIPOS>ATOM
      1  N        -53.5070  -42.8690  -49.5790 N.3    10  LYS10      -0.1245
      2  CA       -52.1820  -43.2780  -50.0450 C.3    10  LYS10       0.1561
      3  C        -51.1430  -43.2060  -48.9340 C.2    10  LYS10       0.2260
      4  O        -51.2670  -42.4080  -48.0070 O.2    10  LYS10      -0.2867
      5  CB       -51.7370  -42.4400  -51.2400 C.3    10  LYS10       0.0271
      6  CG       -52.6070  -42.6570  -52.4690 C.3    10  LYS10       0.0035
      7  CD       -51.8510  -42.3890  -53.7580 C.3    10  LYS10       0.0206
      8  CE       -52.7620  -42.5460  -54.9650 C.3    10  LYS10       0.1093
      9  NZ       -51.9870  -42.5930  -56.2340 N.3    10  LYS10      -0.1314
     10  N        -50.8720  -55.2080  -63.6290 N.3    33  VAL33      -0.1231
     11  CA       -52.1000  -54.5450  -63.1750 C.3    33  VAL33       0.1692
     12  C        -51.8540  -53.4130  -62.1680 C.2    33  VAL33       0.2592
     13  O        -52.6960  -52.5210  -62.0080 O.2    33  VAL33      -0.2718
     14  CB       -53.1020  -55.5510  -62.5820 C.3    33  VAL33       0.0266
     15  CG1      -53.5670  -56.5080  -63.6600 C.3    33  VAL33       0.0020
     16  CG2      -52.5010  -56.3100  -61.4060 C.3    33  VAL33       0.0020
     17  N        -50.7040  -53.4590  -61.4940 N.am   34  ASP34      -0.1960
     18  CA       -50.2860  -52.3980  -60.5730 C.3    34  ASP34       0.1840
     19  C        -49.7180  -51.1720  -61.2930 C.2    34  ASP34       0.2622
     20  O        -49.5600  -50.1240  -60.6730 O.2    34  ASP34      -0.2715
     21  CB       -49.2400  -52.9210  -59.5730 C.3    34  ASP34       0.1450
     22  CG       -49.8580  -53.6780  -58.3910 C.2    34  ASP34       0.3671
     23  OD1      -51.0290  -54.1230  -58.4640 O.co2  34  ASP34      -0.2456
     24  OD2      -49.1490  -53.8300  -57.3750 O.co2  34  ASP34      -0.2456
     25  N        -49.4110  -51.3000  -62.5850 N.am   35  LEU35      -0.1963
     26  CA       -48.8530  -50.1860  -63.3710 C.3    35  LEU35       0.1728
     27  C        -49.8150  -49.0060  -63.5860 C.2    35  LEU35       0.2616
     28  O        -51.0280  -49.1130  -63.4040 O.2    35  LEU35      -0.2715
     29  CB       -48.3660  -50.6780  -64.7420 C.3    35  LEU35       0.0311
     30  CG       -46.9560  -51.2570  -64.7960 C.3    35  LEU35       0.0022
     31  CD1      -46.7440  -52.1230  -66.0300 C.3    35  LEU35       0.0001
     32  CD2      -45.9520  -50.1210  -64.7630 C.3    35  LEU35       0.0001
     33  N        -49.2520  -47.8780  -63.9950 N.am   36  LYS36      -0.1963
     34  CA       -50.0590  -46.7260  -64.3670 C.3    36  LYS36       0.1728
     35  C        -50.6880  -47.0540  -65.7130 C.2    36  LYS36       0.2616
     36  O        -50.1270  -47.8290  -66.4870 O.2    36  LYS36      -0.2715
     37  CB       -49.2090  -45.4530  -64.4650 C.3    36  LYS36       0.0311
     38  CG       -48.1330  -45.3150  -63.3930 C.3    36  LYS36       0.0038
     39  CD       -47.4200  -43.9750  -63.4690 C.3    36  LYS36       0.0206
     40  CE       -48.2720  -42.8420  -62.9220 C.3    36  LYS36       0.1093
     41  NZ       -47.4510  -41.6350  -62.6260 N.3    36  LYS36      -0.1314
     42  N        -51.8480  -46.4680  -65.9890 N.am   37  TRP37      -0.1960
     43  CA       -52.6070  -46.7700  -67.2140 C.3    37  TRP37       0.1771
     44  C        -51.8230  -46.5360  -68.5020 C.2    37  TRP37       0.2619
     45  O        -51.8520  -47.3620  -69.4150 O.2    37  TRP37      -0.2715
     46  CB       -53.9350  -45.9920  -67.2510 C.3    37  TRP37       0.0590
     47  CG       -55.0550  -46.7500  -66.6260 C.ar   37  TRP37       0.0006
     48  CD1      -55.6080  -46.5440  -65.3960 C.ar   37  TRP37       0.0946
     49  CD2      -55.7380  -47.8670  -67.1940 C.ar   37  TRP37       0.0152
     50  NE1      -56.6030  -47.4630  -65.1680 N.ar   37  TRP37      -0.2442
     51  CE2      -56.7050  -48.2860  -66.2590 C.ar   37  TRP37       0.0810
     52  CE3      -55.6250  -48.5560  -68.4030 C.ar   37  TRP37       0.0012
     53  CZ2      -57.5600  -49.3610  -66.5010 C.ar   37  TRP37       0.0191
     54  CZ3      -56.4700  -49.6170  -68.6400 C.ar   37  TRP37       0.0001
     55  CH2      -57.4290  -50.0110  -67.6950 C.ar   37  TRP37       0.0015
     56  N        -51.1220  -45.4150  -68.5720 N.am   38  ARG38      -0.1977
     57  CA       -50.2750  -45.1420  -69.7180 C.3    38  ARG38       0.1597
     58  C        -49.3900  -46.3480  -70.0400 C.2    38  ARG38       0.2287
     59  O        -49.1820  -46.6740  -71.2040 O.2    38  ARG38      -0.2864
     60  CB       -49.4140  -43.8920  -69.4790 C.3    38  ARG38       0.0334
     61  CG       -48.3580  -44.0250  -68.3860 C.3    38  ARG38       0.0492
     62  CD       -47.4900  -42.7790  -68.2820 C.3    38  ARG38       0.2205
     63  NE       -48.1360  -41.6960  -67.5440 N.pl3  38  ARG38      -0.0865
     64  CZ       -47.5800  -40.5110  -67.2990 C.cat  38  ARG38       0.5346
     65  NH1      -46.3510  -40.2270  -67.7310 N.pl3  38  ARG38       0.1354
     66  NH2      -48.2610  -39.5980  -66.6170 N.pl3  38  ARG38       0.1354
     67  N        -51.5420  -49.4410  -71.2980 N.3    41  LEU41      -0.1245
     68  CA       -51.9390  -49.1510  -72.6700 C.3    41  LEU41       0.1561
     69  C        -50.7490  -49.1760  -73.6260 C.2    41  LEU41       0.2260
     70  O        -50.9080  -49.4960  -74.8020 O.2    41  LEU41      -0.2867
     71  CB       -52.6620  -47.8070  -72.7480 C.3    41  LEU41       0.0270
     72  CG       -53.9900  -47.7560  -71.9860 C.3    41  LEU41       0.0019
     73  CD1      -54.4980  -46.3220  -71.8800 C.3    41  LEU41       0.0001
     74  CD2      -55.0290  -48.6660  -72.6350 C.3    41  LEU41       0.0001
     75  N        -57.9350  -54.7720  -64.1320 N.3   140  LYS140     -0.1245
     76  CA       -57.5680  -53.4030  -63.7910 C.3   140  LYS140      0.1561
     77  C        -58.7700  -52.4570  -63.7900 C.2   140  LYS140      0.2260
     78  O        -58.8530  -51.5420  -62.9670 O.2   140  LYS140     -0.2867
     79  CB       -56.5070  -52.9000  -64.7740 C.3   140  LYS140      0.0271
     80  CG       -55.6970  -51.7160  -64.2700 C.3   140  LYS140      0.0035
     81  CD       -54.4500  -51.4960  -65.1120 C.3   140  LYS140      0.0206
     82  CE       -53.8200  -50.1440  -64.8350 C.3   140  LYS140      0.1093
     83  NZ       -53.6350  -49.9060  -63.3780 N.3   140  LYS140     -0.1314
     84  N        -61.1070  -53.6560  -60.6100 N.3   143  GLN143     -0.1245
     85  CA       -60.4970  -53.7170  -59.2720 C.3   143  GLN143      0.1566
     86  C        -61.2350  -52.8720  -58.2370 C.2   143  GLN143      0.2260
     87  O        -61.6700  -51.7660  -58.5330 O.2   143  GLN143     -0.2867
     88  CB       -59.0160  -53.3150  -59.3030 C.3   143  GLN143      0.0367
     89  CG       -58.7330  -51.9110  -59.8190 C.3   143  GLN143      0.0905
     90  CD       -57.2490  -51.6280  -59.9260 C.2   143  GLN143      0.2608
     91  OE1      -56.4780  -52.0060  -59.0450 O.2   143  GLN143     -0.2717
     92  NE2      -56.8420  -50.9580  -61.0010 N.am  143  GLN143     -0.0878
     93  N        -60.3930  -51.3680  -55.1900 N.3   145  LYS145     -0.1231
     94  CA       -59.8530  -50.1530  -54.5620 C.3   145  LYS145      0.1693
     95  C        -60.5610  -48.9050  -55.0720 C.2   145  LYS145      0.2591
     96  O        -60.7200  -47.9470  -54.3300 O.2   145  LYS145     -0.2718
     97  CB       -58.3420  -50.0190  -54.7810 C.3   145  LYS145      0.0285
     98  CG       -57.9150  -50.0090  -56.2380 C.3   145  LYS145      0.0035
     99  CD       -56.4130  -49.8230  -56.4010 C.3   145  LYS145      0.0206
    100  CE       -56.0340  -48.3710  -56.6460 C.3   145  LYS145      0.1093
    101  NZ       -54.6450  -48.2760  -57.1690 N.3   145  LYS145     -0.1314
    102  N        -60.9920  -48.9370  -56.3310 N.am  146  LYS146     -0.1980
    103  CA       -61.7010  -47.8200  -56.9590 C.3   146  LYS146      0.1596
    104  C        -62.9520  -47.3660  -56.1990 C.2   146  LYS146      0.2287
    105  O        -63.2360  -46.1770  -56.1290 O.2   146  LYS146     -0.2864
    106  CB       -62.0770  -48.1820  -58.3990 C.3   146  LYS146      0.0298
    107  CG       -60.9010  -48.2980  -59.3490 C.3   146  LYS146      0.0038
    108  CD       -60.3290  -46.9340  -59.6940 C.3   146  LYS146      0.0206
    109  CE       -58.9540  -47.0780  -60.3240 C.3   146  LYS146      0.1093
    110  NZ       -58.2640  -45.7680  -60.4600 N.3   146  LYS146     -0.1314
    111  N        -63.1850  -44.4270  -53.7600 N.3   149  GLU149     -0.1245
    112  CA       -63.5460  -43.0840  -54.2390 C.3   149  GLU149      0.1567
    113  C        -64.9450  -42.6220  -53.8080 C.2   149  GLU149      0.2260
    114  O        -65.1700  -41.4360  -53.6060 O.2   149  GLU149     -0.2867
    115  CB       -63.4420  -43.0060  -55.7710 C.3   149  GLU149      0.0388
    116  CG       -62.0230  -43.0930  -56.3130 C.3   149  GLU149      0.1160
    117  CD       -61.2160  -41.8210  -56.0880 C.2   149  GLU149      0.3649
    118  OE1      -61.6890  -40.7200  -56.4700 O.co2 149  GLU149     -0.2457
    119  OE2      -60.0950  -41.9250  -55.5360 O.co2 149  GLU149     -0.2457
@<TRIPOS>BOND
     1    70    69    2
     2    69    68    1
     3    71    68    1
     4    71    72    1
     5    68    67    1
     6    74    72    1
     7    72    73    1
     8    59    58    2
     9    58    57    1
    10    57    60    1
    11    57    56    1
    12    60    61    1
    13    45    44    2
    14    54    52   ar
    15    54    55   ar
    16    56    44   am
    17    44    43    1
    18    52    49   ar
    19    61    62    1
    20    62    63    1
    21    65    64    1
    22    55    53   ar
    23    63    64    2
    24    64    66    1
    25    46    43    1
    26    46    47    1
    27    43    42    1
    28    49    47   ar
    29    49    51   ar
    30    47    48   ar
    31    53    51   ar
    32    36    35    2
    33    51    50   ar
    34    31    30    1
    35    42    35   am
    36    35    34    1
    37    48    50   ar
    38    81    82    1
    39    81    80    1
    40    82    83    1
    41    30    32    1
    42    30    29    1
    43    79    80    1
    44    79    76    1
    45    29    26    1
    46    37    34    1
    47    37    38    1
    48    34    33    1
    49    75    76    1
    50    33    27   am
    51    76    77    1
    52    77    78    2
    53    15    14    1
    54    10    11    1
    55    27    28    2
    56    27    26    1
    57    39    38    1
    58    39    40    1
    59    26    25    1
    60    11    14    1
    61    11    12    1
    62    40    41    1
    63    25    19   am
    64    14    16    1
    65    12    13    2
    66    12    17   am
    67    17    18    1
    68    19    20    2
    69    19    18    1
    70    92    90   am
    71    84    85    1
    72    18    21    1
    73   110   109    1
    74   109   108    1
    75    90    89    1
    76    90    91    2
    77    89    88    1
    78   108   107    1
    79    21    22    1
    80   107   106    1
    81    88    85    1
    82    85    86    1
    83    87    86    2
    84    23    22   ar
    85   106   103    1
    86    22    24   ar
    87   101   100    1
    88   103   102    1
    89   103   104    1
    90   100    99    1
    91   118   117   ar
    92    99    98    1
    93   102    95   am
    94   116   117    1
    95   116   115    1
    96    98    97    1
    97     9     8    1
    98   104   105    2
    99   117   119   ar
   100   115   112    1
   101    93    94    1
   102    95    94    1
   103    95    96    2
   104     8     7    1
   105    97    94    1
   106   112   113    1
   107   112   111    1
   108   113   114    2
   109     7     6    1
   110     6     5    1
   111     5     2    1
   112     2     1    1
   113     2     3    1
   114     3     4    2
