@<TRIPOS>MOLECULE
tmp/4kfnA00.pdb
 149 139 0 0 0
SMALL
GASTEIGER

@<TRIPOS>ATOM
      1  N         13.9190   -2.6660   -1.8230 N.3   172  TYR172     -0.1241
      2  CA        14.1390   -1.2370   -1.5630 C.3   172  TYR172      0.1605
      3  C         12.8440   -0.4890   -1.2620 C.2   172  TYR172      0.2264
      4  O         12.8180    0.7500   -1.2200 O.2   172  TYR172     -0.2867
      5  CB        14.8960   -0.5730   -2.7270 C.3   172  TYR172      0.0534
      6  CG        16.3210   -1.0550   -2.8210 C.ar  172  TYR172     -0.0201
      7  CD1       17.3140   -0.5150   -2.0070 C.ar  172  TYR172     -0.0009
      8  CD2       16.6710   -2.0750   -3.6950 C.ar  172  TYR172     -0.0009
      9  CE1       18.6110   -0.9670   -2.0780 C.ar  172  TYR172      0.0417
     10  CE2       17.9710   -2.5320   -3.7700 C.ar  172  TYR172      0.0417
     11  CZ        18.9320   -1.9750   -2.9600 C.ar  172  TYR172      0.1957
     12  OH        20.2290   -2.4340   -3.0310 O.3   172  TYR172     -0.2866
     13  N         12.1100    1.7310    3.6300 N.3   175  HIS175     -0.1241
     14  CA        13.3780    2.3210    4.0030 C.3   175  HIS175      0.1621
     15  C         13.3100    2.7060    5.4810 C.2   175  HIS175      0.2264
     16  O         12.3060    3.2350    5.9420 O.2   175  HIS175     -0.2867
     17  CB        13.6520    3.5650    3.1460 C.3   175  HIS175      0.0745
     18  CG        15.0900    3.9680    3.1260 C.ar  175  HIS175      0.0817
     19  ND1       15.9780    3.5040    2.1760 N.ar  175  HIS175     -0.2268
     20  CD2       15.8030    4.7760    3.9500 C.ar  175  HIS175      0.1154
     21  CE1       17.1750    4.0170    2.4100 C.ar  175  HIS175      0.1986
     22  NE2       17.0960    4.7870    3.4840 N.ar  175  HIS175     -0.2212
     23  N         13.8610    4.9560    8.4330 N.3   177  PHE177     -0.1241
     24  CA        14.0150    6.3700    8.7630 C.3   177  PHE177      0.1605
     25  C         14.1130    6.5440   10.2910 C.2   177  PHE177      0.2264
     26  O         13.9430    7.6470   10.8060 O.2   177  PHE177     -0.2867
     27  CB        12.7740    7.1770    8.3180 C.3   177  PHE177      0.0534
     28  CG        12.6940    7.4920    6.8430 C.ar  177  PHE177     -0.0203
     29  CD1       13.6570    7.0650    5.9280 C.ar  177  PHE177     -0.0042
     30  CD2       11.6190    8.2270    6.3730 C.ar  177  PHE177     -0.0042
     31  CE1       13.5420    7.4040    4.5620 C.ar  177  PHE177     -0.0003
     32  CE2       11.4980    8.5600    5.0130 C.ar  177  PHE177     -0.0003
     33  CZ        12.4540    8.1410    4.1150 C.ar  177  PHE177     -0.0000
     34  N         16.4500    8.7290   14.5800 N.3   180  ARG180     -0.1245
     35  CA        16.1380    9.7590   15.5750 C.3   180  ARG180      0.1563
     36  C         15.0460    9.3160   16.5370 C.2   180  ARG180      0.2260
     37  O         14.9590    9.8430   17.6590 O.2   180  ARG180     -0.2867
     38  CB        15.7200   11.0610   14.8890 C.3   180  ARG180      0.0307
     39  CG        14.2780   11.0500   14.3610 C.3   180  ARG180      0.0489
     40  CD        14.0390   12.2390   13.4400 C.3   180  ARG180      0.2205
     41  NE        14.9550   12.1750   12.2900 N.pl3 180  ARG180     -0.0865
     42  CZ        14.9290   13.0230   11.2690 C.cat 180  ARG180      0.5346
     43  NH1       14.0240   13.9920   11.2270 N.pl3 180  ARG180      0.1354
     44  NH2       15.8230   12.9060   10.3000 N.pl3 180  ARG180      0.1354
     45  N         18.6450    4.5300    6.3820 N.3   203  ASP203     -0.1239
     46  CA        19.3520    5.7430    6.7620 C.3   203  ASP203      0.1674
     47  C         19.9270    5.6130    8.1650 C.2   203  ASP203      0.2266
     48  O         20.5980    6.5280    8.6530 O.2   203  ASP203     -0.2867
     49  CB        18.4310    6.9630    6.6920 C.3   203  ASP203      0.1410
     50  CG        18.5110    7.6700    5.3480 C.2   203  ASP203      0.3668
     51  OD1       18.5870    6.9850    4.3070 O.co2 203  ASP203     -0.2456
     52  OD2       18.5020    8.9130    5.3400 O.co2 203  ASP203     -0.2456
     53  N         21.7370    3.9370    0.7270 N.3   225  SER225     -0.1202
     54  CA        20.8350    5.0680    0.6330 C.3   225  SER225      0.2020
     55  C         21.2160    5.9400   -0.5400 C.2   225  SER225      0.2618
     56  O         22.1200    5.5910   -1.3210 O.2   225  SER225     -0.2717
     57  CB        20.8640    5.8960    1.9180 C.3   225  SER225      0.2103
     58  OG        19.7170    6.7070    1.9680 O.3   225  SER225     -0.2182
     59  N         20.5010    7.0490   -0.6810 N.am  226  VAL226     -0.1979
     60  CA        20.7480    8.0090   -1.7670 C.3   226  VAL226      0.1595
     61  C         20.5990    9.4340   -1.2280 C.2   226  VAL226      0.2287
     62  O         20.0160    9.6510   -0.1570 O.2   226  VAL226     -0.2864
     63  CB        19.7790    7.7960   -2.9750 C.3   226  VAL226      0.0276
     64  CG1       19.9020    6.3920   -3.5350 C.3   226  VAL226      0.0022
     65  CG2       18.3340    8.1040   -2.5800 C.3   226  VAL226      0.0022
     66  N         19.2620   13.1680   -0.4530 N.3   228  ALA228     -0.1231
     67  CA        17.9100   13.6280   -0.2220 C.3   228  ALA228      0.1694
     68  C         17.9460   14.8860    0.6250 C.2   228  ALA228      0.2591
     69  O         18.8770   15.0970    1.4180 O.2   228  ALA228     -0.2718
     70  CB        17.0930   12.5560    0.4810 C.3   228  ALA228      0.0304
     71  N         16.9140   15.7010    0.4520 N.am  229  ALA229     -0.1980
     72  CA        16.7660   16.9240    1.2270 C.3   229  ALA229      0.1597
     73  C         16.0530   16.6290    2.5250 C.2   229  ALA229      0.2287
     74  O         15.4270   15.5840    2.6790 O.2   229  ALA229     -0.2864
     75  CB        15.9830   17.9710    0.4110 C.3   229  ALA229      0.0319
     76  N         19.9020    9.1420   -7.9600 N.3   257  PRO257     -0.2116
     77  CA        18.5430    9.3730   -7.4560 C.3   257  PRO257      0.1372
     78  C         18.5810   10.4400   -6.3780 C.2   257  PRO257      0.2244
     79  O         19.5600   10.5130   -5.6370 O.2   257  PRO257     -0.2868
     80  CB        18.1740    8.0320   -6.8120 C.3   257  PRO257      0.0268
     81  CG        19.0690    7.0260   -7.4840 C.3   257  PRO257      0.0207
     82  CD        20.3450    7.7510   -7.7350 C.3   257  PRO257      0.0892
     83  N         15.8670   12.3800   -3.4510 N.3   259  SER259     -0.1217
     84  CA        14.5300   12.5770   -2.9220 C.3   259  SER259      0.1889
     85  C         14.4150   13.9830   -2.3580 C.2   259  SER259      0.2288
     86  O         15.3350   14.4690   -1.6900 O.2   259  SER259     -0.2866
     87  CB        14.2240   11.5340   -1.8520 C.3   259  SER259      0.2089
     88  OG        12.9520   11.7650   -1.2880 O.3   259  SER259     -0.2183
     89  N         16.1710    8.9030  -10.8090 N.3   291  PRO291     -0.2116
     90  CA        14.8880    9.6080  -10.7470 C.3   291  PRO291      0.1372
     91  C         14.8430   10.6840   -9.6620 C.2   291  PRO291      0.2244
     92  O         15.6280   10.6340   -8.7180 O.2   291  PRO291     -0.2868
     93  CB        13.9100    8.5020  -10.3660 C.3   291  PRO291      0.0268
     94  CG        14.7580    7.5270   -9.5830 C.3   291  PRO291      0.0207
     95  CD        16.0660    7.5150  -10.3180 C.3   291  PRO291      0.0892
     96  N         12.6700   11.5660   -6.5880 N.3   293  ILE293     -0.1245
     97  CA        11.6700   10.9530   -5.7240 C.3   293  ILE293      0.1561
     98  C         11.0360   12.0630   -4.9000 C.2   293  ILE293      0.2260
     99  O         11.6970   12.6760   -4.0460 O.2   293  ILE293     -0.2867
    100  CB        12.2730    9.8770   -4.7940 C.3   293  ILE293      0.0252
    101  CG1       13.0200    8.8210   -5.6220 C.3   293  ILE293      0.0019
    102  CG2       11.1710    9.1930   -4.0080 C.3   293  ILE293      0.0019
    103  CD1       14.5130    8.9660   -5.5870 C.3   293  ILE293      0.0001
    104  N          8.8200   13.5800   -2.0230 N.3   295  ARG295     -0.1245
    105  CA         8.4150   13.1340   -0.6920 C.3   295  ARG295      0.1563
    106  C          7.3930   14.0540   -0.0350 C.2   295  ARG295      0.2260
    107  O          7.7230   15.1500    0.4200 O.2   295  ARG295     -0.2867
    108  CB         9.6250   12.9590    0.2480 C.3   295  ARG295      0.0307
    109  CG         9.1550   12.5720    1.6650 C.3   295  ARG295      0.0489
    110  CD        10.2050   11.9420    2.5590 C.3   295  ARG295      0.2205
    111  NE        11.2700   12.8540    2.9330 N.pl3 295  ARG295     -0.0865
    112  CZ        11.4520   13.4230    4.1320 C.cat 295  ARG295      0.5346
    113  NH1       10.6410   13.2480    5.1710 N.pl3 295  ARG295      0.1354
    114  NH2       12.4900   14.2090    4.2670 N.pl3 295  ARG295      0.1354
    115  N          9.3660    9.2380   -9.1040 N.3   333  ARG333     -0.1231
    116  CA         8.7840    8.3180   -8.1390 C.3   333  ARG333      0.1694
    117  C          8.3460    9.0940   -6.8990 C.2   333  ARG333      0.2592
    118  O          8.6050   10.2880   -6.7760 O.2   333  ARG333     -0.2718
    119  CB         9.7950    7.2380   -7.7610 C.3   333  ARG333      0.0321
    120  CG        10.1120    6.2730   -8.9030 C.3   333  ARG333      0.0489
    121  CD         8.9030    5.4010   -9.1760 C.3   333  ARG333      0.2205
    122  NE         9.1490    4.3490  -10.1740 N.pl3 333  ARG333     -0.0865
    123  CZ         8.8350    4.4480  -11.4660 C.cat 333  ARG333      0.5346
    124  NH1        8.3060    5.5720  -11.9580 N.pl3 333  ARG333      0.1354
    125  NH2        9.0640    3.4120  -12.2690 N.pl3 333  ARG333      0.1354
    126  N          7.6710    8.4070   -5.9860 N.am  334  VAL334     -0.1966
    127  CA         7.2110    9.0290   -4.7460 C.3   334  VAL334      0.1727
    128  C          7.7050    8.1970   -3.5520 C.2   334  VAL334      0.2616
    129  O          7.8080    6.9770   -3.6470 O.2   334  VAL334     -0.2715
    130  CB         5.6750    9.1000   -4.7320 C.3   334  VAL334      0.0290
    131  CG1        5.1340    9.6620   -3.4140 C.3   334  VAL334      0.0023
    132  CG2        5.1890    9.9590   -5.8950 C.3   334  VAL334      0.0023
    133  N          8.0270    8.8530   -2.4310 N.am  335  ILE335     -0.1977
    134  CA         8.2290    8.1120   -1.1710 C.3   335  ILE335      0.1596
    135  C          7.3540    8.7030   -0.0660 C.2   335  ILE335      0.2287
    136  O          7.3460    9.9080    0.1560 O.2   335  ILE335     -0.2864
    137  CB         9.7240    8.0360   -0.7250 C.3   335  ILE335      0.0276
    138  CG1        9.8660    7.2060    0.5680 C.3   335  ILE335      0.0022
    139  CG2       10.3220    9.4400   -0.5510 C.3   335  ILE335      0.0022
    140  CD1       11.3090    6.7530    0.8320 C.3   335  ILE335      0.0001
    141  N          6.9300    8.7920    3.7860 N.3   337  GLY337     -0.1225
    142  CA         7.6870    8.4590    4.9800 C.3   337  GLY337      0.1811
    143  C          7.1940    9.1400    6.2330 C.2   337  GLY337      0.2280
    144  O          7.9860    9.3620    7.1530 O.2   337  GLY337     -0.2866
    145  N          7.6360    4.1250   -2.7730 N.3   363  ALA363     -0.1245
    146  CA         8.3660    3.4370   -1.7280 C.3   363  ALA363      0.1562
    147  C          7.9040    4.0310   -0.4060 C.2   363  ALA363      0.2260
    148  O          7.2620    5.0890   -0.3680 O.2   363  ALA363     -0.2867
    149  CB         9.8500    3.6270   -1.8820 C.3   363  ALA363      0.0290
@<TRIPOS>BOND
     1   125   123    1
     2   124   123    1
     3   123   122    2
     4    89    90    1
     5    89    95    1
     6    90    93    1
     7    90    91    1
     8    93    94    1
     9    95    94    1
    10   122   121    1
    11    91    92    2
    12   121   120    1
    13   115   116    1
    14   120   119    1
    15   116   119    1
    16   116   117    1
    17    76    82    1
    18    76    77    1
    19    82    81    1
    20    81    80    1
    21    77    80    1
    22    77    78    1
    23   117   118    2
    24   117   126   am
    25    96    97    1
    26    78    79    2
    27   126   127    1
    28   132   130    1
    29    97    98    1
    30    97   100    1
    31   101   103    1
    32   101   100    1
    33    98    99    2
    34   100   102    1
    35   127   130    1
    36   127   128    1
    37   130   131    1
    38    10     8   ar
    39    10    11   ar
    40     8     6   ar
    41   129   128    2
    42   128   133   am
    43    64    63    1
    44    83    84    1
    45    12    11    1
    46    63    65    1
    47    63    60    1
    48    11     9   ar
    49    84    85    1
    50    84    87    1
    51     6     5    1
    52     6     7   ar
    53   145   146    1
    54     5     2    1
    55   133   134    1
    56    85    86    2
    57     9     7   ar
    58   104   105    1
    59   149   146    1
    60    87    88    1
    61     1     2    1
    62    60    61    1
    63    60    59    1
    64   146   147    1
    65     2     3    1
    66    56    55    2
    67     3     4    2
    68    61    62    2
    69   134   137    1
    70   134   135    1
    71   137   139    1
    72   137   138    1
    73   105   106    1
    74   105   108    1
    75    59    55   am
    76    55    54    1
    77    66    67    1
    78   147   148    2
    79    67    70    1
    80    67    68    1
    81   135   136    2
    82   106   107    2
    83   108   109    1
    84    75    72    1
    85    71    68   am
    86    71    72    1
    87   138   140    1
    88    68    69    2
    89    54    53    1
    90    54    57    1
    91    72    73    1
    92   109   110    1
    93    57    58    1
    94    19    21   ar
    95    19    18   ar
    96    21    22   ar
    97    73    74    2
    98   110   111    1
    99   111   112    2
   100    18    17    1
   101    18    20   ar
   102    17    14    1
   103    22    20   ar
   104    13    14    1
   105   141   142    1
   106    14    15    1
   107    33    31   ar
   108    33    32   ar
   109   112   114    1
   110   112   113    1
   111    51    50   ar
   112    31    29   ar
   113   142   143    1
   114    32    30   ar
   115    52    50   ar
   116    50    49    1
   117    15    16    2
   118    29    28   ar
   119   143   144    2
   120    30    28   ar
   121    45    46    1
   122    49    46    1
   123    46    47    1
   124    28    27    1
   125    47    48    2
   126    27    24    1
   127    23    24    1
   128    24    25    1
   129    25    26    2
   130    44    42    1
   131    43    42    1
   132    42    41    2
   133    41    40    1
   134    40    39    1
   135    39    38    1
   136    34    35    1
   137    38    35    1
   138    35    36    1
   139    36    37    2
