@<TRIPOS>MOLECULE
tmp/4kfoB00.pdb
 160 153 0 0 0
SMALL
GASTEIGER

@<TRIPOS>ATOM
      1  N          8.2610    5.1670   46.3630 N.3   172  TYR172     -0.1241
      2  CA         8.4740    3.7390   46.1420 C.3   172  TYR172      0.1605
      3  C          7.2400    3.0370   45.5680 C.2   172  TYR172      0.2264
      4  O          7.1500    1.8110   45.5880 O.2   172  TYR172     -0.2867
      5  CB         8.9570    3.0440   47.4250 C.3   172  TYR172      0.0534
      6  CG        10.3550    3.4400   47.8120 C.ar  172  TYR172     -0.0201
      7  CD1       11.4590    2.8630   47.1890 C.ar  172  TYR172     -0.0009
      8  CD2       10.5770    4.3990   48.7880 C.ar  172  TYR172     -0.0009
      9  CE1       12.7480    3.2320   47.5380 C.ar  172  TYR172      0.0417
     10  CE2       11.8580    4.7740   49.1450 C.ar  172  TYR172      0.0417
     11  CZ        12.9380    4.1850   48.5180 C.ar  172  TYR172      0.1957
     12  OH        14.2180    4.5600   48.8650 O.3   172  TYR172     -0.2866
     13  N          7.7770    0.8620   40.6400 N.3   175  HIS175     -0.1241
     14  CA         9.0870    0.2380   40.5260 C.3   175  HIS175      0.1621
     15  C          9.4050   -0.1170   39.0660 C.2   175  HIS175      0.2264
     16  O          8.5670   -0.6810   38.3550 O.2   175  HIS175     -0.2867
     17  CB         9.1230   -1.0220   41.4000 C.3   175  HIS175      0.0745
     18  CG        10.5000   -1.4340   41.8120 C.ar  175  HIS175      0.0817
     19  ND1       11.0720   -1.0200   42.9960 N.ar  175  HIS175     -0.2268
     20  CD2       11.4290   -2.1990   41.1880 C.ar  175  HIS175      0.1154
     21  CE1       12.2890   -1.5320   43.0930 C.ar  175  HIS175      0.1986
     22  NE2       12.5310   -2.2460   42.0060 N.ar  175  HIS175     -0.2212
     23  N         10.6010   -2.3060   36.3150 N.3   177  PHE177     -0.1241
     24  CA        10.8000   -3.7140   35.9770 C.3   177  PHE177      0.1605
     25  C         11.2450   -3.8610   34.5130 C.2   177  PHE177      0.2264
     26  O         11.1390   -4.9550   33.9410 O.2   177  PHE177     -0.2867
     27  CB         9.4820   -4.5030   36.0890 C.3   177  PHE177      0.0534
     28  CG         9.0270   -4.8130   37.5000 C.ar  177  PHE177     -0.0203
     29  CD1        9.6860   -4.3180   38.6130 C.ar  177  PHE177     -0.0042
     30  CD2        7.9150   -5.6300   37.6920 C.ar  177  PHE177     -0.0042
     31  CE1        9.2310   -4.6340   39.9020 C.ar  177  PHE177     -0.0003
     32  CE2        7.4600   -5.9540   38.9700 C.ar  177  PHE177     -0.0003
     33  CZ         8.1150   -5.4590   40.0730 C.ar  177  PHE177     -0.0000
     34  N         14.0240   -3.7850   32.5470 N.3   179  TYR179     -0.1227
     35  CA        15.3410   -4.0950   31.9940 C.3   179  TYR179      0.1736
     36  C         15.2480   -5.0850   30.8120 C.2   179  TYR179      0.2595
     37  O         15.8620   -4.8610   29.7700 O.2   179  TYR179     -0.2718
     38  CB        16.2540   -4.6250   33.1190 C.3   179  TYR179      0.0548
     39  CG        17.7560   -4.4740   32.9170 C.ar  179  TYR179     -0.0200
     40  CD1       18.6340   -4.7270   33.9750 C.ar  179  TYR179     -0.0009
     41  CD2       18.3050   -4.1100   31.6890 C.ar  179  TYR179     -0.0009
     42  CE1       20.0020   -4.6050   33.8240 C.ar  179  TYR179      0.0417
     43  CE2       19.6950   -3.9910   31.5310 C.ar  179  TYR179      0.0417
     44  CZ        20.5260   -4.2300   32.6130 C.ar  179  TYR179      0.1957
     45  OH        21.8930   -4.1170   32.4940 O.3   179  TYR179     -0.2866
     46  N         14.4780   -6.1610   30.9670 N.am  180  ARG180     -0.1980
     47  CA        14.3920   -7.1910   29.9290 C.3   180  ARG180      0.1597
     48  C         13.5380   -6.7370   28.7610 C.2   180  ARG180      0.2287
     49  O         13.6520   -7.2760   27.6570 O.2   180  ARG180     -0.2864
     50  CB        13.8000   -8.4820   30.4970 C.3   180  ARG180      0.0334
     51  CG        12.2940   -8.4230   30.7180 C.3   180  ARG180      0.0492
     52  CD        11.7810   -9.5920   31.5290 C.3   180  ARG180      0.2205
     53  NE        12.4020   -9.6170   32.8470 N.pl3 180  ARG180     -0.0865
     54  CZ        12.0880  -10.4770   33.8110 C.cat 180  ARG180      0.5346
     55  NH1       11.1520  -11.4090   33.6190 N.pl3 180  ARG180      0.1354
     56  NH2       12.7280  -10.4090   34.9740 N.pl3 180  ARG180      0.1354
     57  N         14.7210   -2.0470   39.4800 N.3   203  ASP203     -0.1239
     58  CA        15.4780   -3.2860   39.2760 C.3   203  ASP203      0.1674
     59  C         16.3540   -3.1810   38.0320 C.2   203  ASP203      0.2266
     60  O         17.0780   -4.1170   37.6900 O.2   203  ASP203     -0.2867
     61  CB        14.5500   -4.5030   39.1670 C.3   203  ASP203      0.1410
     62  CG        14.3030   -5.1690   40.5200 C.2   203  ASP203      0.3668
     63  OD1       14.1840   -4.4390   41.5310 O.co2 203  ASP203     -0.2456
     64  OD2       14.2630   -6.4170   40.5700 O.co2 203  ASP203     -0.2456
     65  N         16.9010    1.8530   44.6480 N.3   224  TYR224     -0.1227
     66  CA        16.9580    0.7680   45.6130 C.3   224  TYR224      0.1736
     67  C         16.0560   -0.4000   45.2200 C.2   224  TYR224      0.2596
     68  O         15.1260   -0.2300   44.4390 O.2   224  TYR224     -0.2718
     69  CB        16.5170    1.3130   46.9680 C.3   224  TYR224      0.0548
     70  CG        17.4070    2.4310   47.4500 C.ar  224  TYR224     -0.0200
     71  CD1       18.5970    2.1590   48.1010 C.ar  224  TYR224     -0.0009
     72  CD2       17.0670    3.7570   47.2240 C.ar  224  TYR224     -0.0009
     73  CE1       19.4160    3.1790   48.5310 C.ar  224  TYR224      0.0417
     74  CE2       17.8860    4.7860   47.6580 C.ar  224  TYR224      0.0417
     75  CZ        19.0560    4.4860   48.3070 C.ar  224  TYR224      0.1957
     76  OH        19.8860    5.5040   48.7420 O.3   224  TYR224     -0.2866
     77  N         16.3470   -1.5840   45.7520 N.am  225  SER225     -0.1938
     78  CA        15.4540   -2.7240   45.5900 C.3   225  SER225      0.2055
     79  C         15.5130   -3.5890   46.8440 C.2   225  SER225      0.2642
     80  O         16.2320   -3.2610   47.7910 O.2   225  SER225     -0.2714
     81  CB        15.8010   -3.5260   44.3350 C.3   225  SER225      0.2130
     82  OG        14.7550   -4.4440   44.0350 O.3   225  SER225     -0.2179
     83  N         14.7240   -4.6590   46.8700 N.am  226  VAL226     -0.1977
     84  CA        14.6980   -5.5880   48.0070 C.3   226  VAL226      0.1596
     85  C         14.5380   -6.9870   47.4200 C.2   226  VAL226      0.2287
     86  O         14.1790   -7.1240   46.2490 O.2   226  VAL226     -0.2864
     87  CB        13.5320   -5.2750   48.9950 C.3   226  VAL226      0.0276
     88  CG1       13.6930   -3.8850   49.6330 C.3   226  VAL226      0.0022
     89  CG2       12.1900   -5.4250   48.3140 C.3   226  VAL226      0.0022
     90  N         13.3410  -10.6790   46.1940 N.3   228  ALA228     -0.1231
     91  CA        12.0790  -11.1940   45.6960 C.3   228  ALA228      0.1694
     92  C         12.2930  -12.4480   44.8970 C.2   228  ALA228      0.2592
     93  O         13.3630  -12.6550   44.3270 O.2   228  ALA228     -0.2718
     94  CB        11.3870  -10.1530   44.8320 C.3   228  ALA228      0.0304
     95  N         11.2500  -13.2680   44.8370 N.am  229  ALA229     -0.1966
     96  CA        11.2430  -14.4650   44.0140 C.3   229  ALA229      0.1728
     97  C         10.9440  -14.1530   42.5590 C.2   229  ALA229      0.2616
     98  O         10.4590  -13.0680   42.2310 O.2   229  ALA229     -0.2715
     99  CB        10.2020  -15.4560   44.5550 C.3   229  ALA229      0.0334
    100  N         11.2290  -15.1170   41.6880 N.am  230  GLU230     -0.1977
    101  CA        10.6470  -15.1060   40.3540 C.3   230  GLU230      0.1602
    102  C          9.9630  -16.4500   40.1840 C.2   230  GLU230      0.2287
    103  O         10.0690  -17.3180   41.0600 O.2   230  GLU230     -0.2864
    104  CB        11.7060  -14.8820   39.2740 C.3   230  GLU230      0.0415
    105  CG        12.7450  -15.9910   39.1770 C.3   230  GLU230      0.1163
    106  CD        13.7440  -15.7310   38.0570 C.2   230  GLU230      0.3649
    107  OE1       14.0230  -14.5450   37.7740 O.co2 230  GLU230     -0.2457
    108  OE2       14.2340  -16.7150   37.4560 O.co2 230  GLU230     -0.2457
    109  N         12.3480   -6.7560   53.7790 N.3   257  PRO257     -0.2116
    110  CA        11.1320   -6.9510   52.9810 C.3   257  PRO257      0.1372
    111  C         11.4010   -8.0090   51.9140 C.2   257  PRO257      0.2244
    112  O         12.5300   -8.1080   51.4360 O.2   257  PRO257     -0.2868
    113  CB        10.9160   -5.5800   52.3240 C.3   257  PRO257      0.0268
    114  CG        11.7460   -4.6040   53.1520 C.3   257  PRO257      0.0207
    115  CD        12.9070   -5.4030   53.6200 C.3   257  PRO257      0.0892
    116  N          9.4420   -9.9210   48.3740 N.3   259  SER259     -0.1217
    117  CA         8.2620  -10.0420   47.5390 C.3   259  SER259      0.1889
    118  C          8.2220  -11.4320   46.9380 C.2   259  SER259      0.2288
    119  O          9.2540  -11.9690   46.5280 O.2   259  SER259     -0.2866
    120  CB         8.2540   -8.9590   46.4700 C.3   259  SER259      0.2089
    121  OG         7.0590   -9.0280   45.7150 O.3   259  SER259     -0.2183
    122  N          8.0190   -6.4970   55.5790 N.3   291  PRO291     -0.2116
    123  CA         6.7690   -7.1560   55.1980 C.3   291  PRO291      0.1372
    124  C          6.9630   -8.2130   54.1280 C.2   291  PRO291      0.2244
    125  O          7.9540   -8.2000   53.3960 O.2   291  PRO291     -0.2868
    126  CB         5.9510   -6.0080   54.5970 C.3   291  PRO291      0.0268
    127  CG         7.0000   -5.0780   54.0420 C.3   291  PRO291      0.0207
    128  CD         8.0630   -5.0970   55.1110 C.3   291  PRO291      0.0892
    129  N          5.5130   -9.0730   50.6440 N.3   293  ILE293     -0.1245
    130  CA         4.8130   -8.3220   49.6090 C.3   293  ILE293      0.1561
    131  C          4.3620   -9.3510   48.5840 C.2   293  ILE293      0.2260
    132  O          5.1750   -9.8980   47.8480 O.2   293  ILE293     -0.2867
    133  CB         5.7200   -7.2550   48.9660 C.3   293  ILE293      0.0252
    134  CG1        6.2980   -6.3290   50.0470 C.3   293  ILE293      0.0019
    135  CG2        4.9190   -6.4500   47.9250 C.3   293  ILE293      0.0019
    136  CD1        7.6200   -5.6780   49.6770 C.3   293  ILE293      0.0001
    137  N          2.8450  -10.8490   45.2840 N.3   295  ARG295     -0.1245
    138  CA         2.7740  -10.3980   43.8930 C.3   295  ARG295      0.1563
    139  C          1.9190  -11.3190   43.0210 C.2   295  ARG295      0.2260
    140  O          2.3440  -12.4140   42.6600 O.2   295  ARG295     -0.2867
    141  CB         4.1880  -10.3010   43.3070 C.3   295  ARG295      0.0307
    142  CG         4.2460   -9.9280   41.8300 C.3   295  ARG295      0.0489
    143  CD         5.7110   -9.8580   41.3540 C.3   295  ARG295      0.2205
    144  NE         5.7900  -10.1310   39.9290 N.pl3 295  ARG295     -0.0865
    145  CZ         6.6400  -10.9720   39.3570 C.cat 295  ARG295      0.5346
    146  NH1        6.5840  -11.1240   38.0520 N.pl3 295  ARG295      0.1354
    147  NH2        7.5500  -11.6510   40.0670 N.pl3 295  ARG295      0.1354
    148  N          2.0630   -6.1440   45.5200 N.3   335  ILE335     -0.1245
    149  CA         2.6060   -5.4310   44.3750 C.3   335  ILE335      0.1561
    150  C          2.0190   -6.0020   43.0890 C.2   335  ILE335      0.2260
    151  O          1.9920   -7.2150   42.8940 O.2   335  ILE335     -0.2867
    152  CB         4.1550   -5.4210   44.3440 C.3   335  ILE335      0.0252
    153  CG1        4.6470   -4.5970   43.1530 C.3   335  ILE335      0.0019
    154  CG2        4.7300   -6.8400   44.3160 C.3   335  ILE335      0.0019
    155  CD1        6.1500   -4.3190   43.1470 C.3   335  ILE335      0.0001
    156  N          1.8860   -1.4060   45.8140 N.3   363  ALA363     -0.1245
    157  CA         2.8890   -0.7650   44.9800 C.3   363  ALA363      0.1562
    158  C          2.7240   -1.3350   43.5800 C.2   363  ALA363      0.2260
    159  O          2.0660   -2.3700   43.3920 O.2   363  ALA363     -0.2867
    160  CB         4.2870   -1.0320   45.5090 C.3   363  ALA363      0.0290
@<TRIPOS>BOND
     1    49    48    2
     2    48    47    1
     3    37    36    2
     4    47    50    1
     5    47    46    1
     6    50    51    1
     7    51    52    1
     8    36    46   am
     9    36    35    1
    10    52    53    1
    11    43    41   ar
    12    43    44   ar
    13    41    39   ar
    14    35    34    1
    15    35    38    1
    16    45    44    1
    17    44    42   ar
    18    53    54    2
    19    39    38    1
    20    39    40   ar
    21    55    54    1
    22    54    56    1
    23    42    40   ar
    24    26    25    2
    25    25    24    1
    26    24    27    1
    27    24    23    1
    28    27    28    1
    29   108   106   ar
    30    28    30   ar
    31    28    29   ar
    32    60    59    2
    33    30    32   ar
    34   107   106   ar
    35    59    58    1
    36   146   145    1
    37   106   105    1
    38    16    15    2
    39    29    31   ar
    40    32    33   ar
    41    15    14    1
    42    61    58    1
    43    61    62    1
    44   105   104    1
    45   104   101    1
    46    58    57    1
    47   145   144    2
    48   145   147    1
    49    31    33   ar
    50   144   143    1
    51   102   101    1
    52   102   103    2
    53   101   100    1
    54    62    64   ar
    55    62    63   ar
    56    14    13    1
    57    14    17    1
    58    20    18   ar
    59    20    22   ar
    60   143   142    1
    61    17    18    1
    62   100    97   am
    63    18    19   ar
    64   142   141    1
    65    22    21   ar
    66    98    97    2
    67    97    96    1
    68   140   139    2
    69   151   150    2
    70    19    21   ar
    71   139   138    1
    72   150   149    1
    73   155   153    1
    74   153   152    1
    75   141   138    1
    76   159   158    2
    77   158   157    1
    78   138   137    1
    79    96    99    1
    80    96    95    1
    81    82    81    1
    82   154   152    1
    83    93    92    2
    84    81    78    1
    85   152   149    1
    86   149   148    1
    87    68    67    2
    88    65    66    1
    89    94    91    1
    90    95    92   am
    91    92    91    1
    92   157   160    1
    93   157   156    1
    94    67    66    1
    95    67    77   am
    96     3     4    2
    97     3     2    1
    98    78    77    1
    99    78    79    1
   100    66    69    1
   101    91    90    1
   102   121   120    1
   103     2     1    1
   104     2     5    1
   105    86    85    2
   106   120   117    1
   107   119   118    2
   108    79    83   am
   109    79    80    2
   110    83    84    1
   111   118   117    1
   112    69    70    1
   113     7     9   ar
   114     7     6   ar
   115    72    70   ar
   116    72    74   ar
   117    85    84    1
   118     5     6    1
   119    70    71   ar
   120     9    11   ar
   121   117   116    1
   122    74    75   ar
   123     6     8   ar
   124   132   131    2
   125   135   133    1
   126    84    87    1
   127    71    73   ar
   128    75    73   ar
   129    75    76    1
   130    89    87    1
   131    11    12    1
   132    11    10   ar
   133   131   130    1
   134     8    10   ar
   135   133   130    1
   136   133   134    1
   137    87    88    1
   138   130   129    1
   139   136   134    1
   140   112   111    2
   141   111   110    1
   142   113   110    1
   143   113   114    1
   144   110   109    1
   145   114   115    1
   146   125   124    2
   147   115   109    1
   148   127   126    1
   149   127   128    1
   150   124   123    1
   151   126   123    1
   152   128   122    1
   153   123   122    1
