@<TRIPOS>MOLECULE
tmp/4kfpB00.pdb
 179 168 0 0 0
SMALL
GASTEIGER

@<TRIPOS>ATOM
      1  N          8.1860    4.2100   46.3520 N.3   171  TYR171     -0.1241
      2  CA         8.4360    2.7790   46.1730 C.3   171  TYR171      0.1605
      3  C          7.2420    2.0350   45.5770 C.2   171  TYR171      0.2264
      4  O          7.2260    0.8050   45.5580 O.2   171  TYR171     -0.2867
      5  CB         8.8460    2.1340   47.5070 C.3   171  TYR171      0.0534
      6  CG        10.1760    2.6470   48.0050 C.ar  171  TYR171     -0.0201
      7  CD1       11.3670    2.1950   47.4470 C.ar  171  TYR171     -0.0009
      8  CD2       10.2450    3.6000   49.0120 C.ar  171  TYR171     -0.0009
      9  CE1       12.5900    2.6730   47.8930 C.ar  171  TYR171      0.0417
     10  CE2       11.4620    4.0840   49.4620 C.ar  171  TYR171      0.0417
     11  CZ        12.6300    3.6200   48.8950 C.ar  171  TYR171      0.1957
     12  OH        13.8410    4.0960   49.3390 O.3   171  TYR171     -0.2866
     13  N          7.6390   -0.1460   40.6440 N.3   174  HIS174     -0.1241
     14  CA         8.9500   -0.7750   40.5720 C.3   174  HIS174      0.1621
     15  C          9.2520   -1.1970   39.1270 C.2   174  HIS174      0.2264
     16  O          8.4050   -1.7570   38.4440 O.2   174  HIS174     -0.2867
     17  CB         8.9790   -2.0010   41.5080 C.3   174  HIS174      0.0745
     18  CG        10.3580   -2.4700   41.8510 C.ar  174  HIS174      0.0817
     19  ND1       11.0120   -2.0700   42.9940 N.ar  174  HIS174     -0.2268
     20  CD2       11.2090   -3.3030   41.2000 C.ar  174  HIS174      0.1154
     21  CE1       12.2100   -2.6310   43.0330 C.ar  174  HIS174      0.1986
     22  NE2       12.3550   -3.3800   41.9540 N.ar  174  HIS174     -0.2212
     23  N         10.3710   -3.4270   36.3780 N.3   176  PHE176     -0.1241
     24  CA        10.5360   -4.8500   36.0530 C.3   176  PHE176      0.1605
     25  C         11.0030   -5.0220   34.5950 C.2   176  PHE176      0.2264
     26  O         10.9550   -6.1220   34.0530 O.2   176  PHE176     -0.2867
     27  CB         9.1870   -5.5970   36.1620 C.3   176  PHE176      0.0534
     28  CG         8.7580   -5.9560   37.5760 C.ar  176  PHE176     -0.0203
     29  CD1        9.3720   -5.4060   38.6860 C.ar  176  PHE176     -0.0042
     30  CD2        7.7140   -6.8570   37.7730 C.ar  176  PHE176     -0.0042
     31  CE1        8.9550   -5.7470   39.9790 C.ar  176  PHE176     -0.0003
     32  CE2        7.3030   -7.2140   39.0550 C.ar  176  PHE176     -0.0003
     33  CZ         7.9210   -6.6560   40.1550 C.ar  176  PHE176     -0.0000
     34  N         13.8290   -4.8780   32.6170 N.3   178  TYR178     -0.1227
     35  CA        15.1380   -5.2370   32.0780 C.3   178  TYR178      0.1736
     36  C         15.0620   -6.2240   30.8840 C.2   178  TYR178      0.2595
     37  O         15.6700   -5.9800   29.8360 O.2   178  TYR178     -0.2718
     38  CB        16.0330   -5.7820   33.2060 C.3   178  TYR178      0.0548
     39  CG        17.5360   -5.6210   32.9870 C.ar  178  TYR178     -0.0200
     40  CD1       18.4330   -5.8070   34.0440 C.ar  178  TYR178     -0.0009
     41  CD2       18.0590   -5.2950   31.7330 C.ar  178  TYR178     -0.0009
     42  CE1       19.8070   -5.6740   33.8640 C.ar  178  TYR178      0.0417
     43  CE2       19.4400   -5.1610   31.5410 C.ar  178  TYR178      0.0417
     44  CZ        20.3030   -5.3460   32.6170 C.ar  178  TYR178      0.1957
     45  OH        21.6710   -5.2200   32.4510 O.3   178  TYR178     -0.2866
     46  N         14.3240   -7.3220   31.0390 N.am  179  ARG179     -0.1980
     47  CA        14.2300   -8.3350   29.9870 C.3   179  ARG179      0.1597
     48  C         13.3690   -7.8850   28.8210 C.2   179  ARG179      0.2287
     49  O         13.4860   -8.4210   27.7130 O.2   179  ARG179     -0.2864
     50  CB        13.6450   -9.6460   30.5310 C.3   179  ARG179      0.0334
     51  CG        12.1240   -9.6130   30.7140 C.3   179  ARG179      0.0492
     52  CD        11.6370  -10.8040   31.5350 C.3   179  ARG179      0.2205
     53  NE        12.2340  -10.7900   32.8660 N.pl3 179  ARG179     -0.0865
     54  CZ        11.9100  -11.6450   33.8250 C.cat 179  ARG179      0.5346
     55  NH1       10.9980  -12.5790   33.5820 N.pl3 179  ARG179      0.1354
     56  NH2       12.4940  -11.5690   35.0150 N.pl3 179  ARG179      0.1354
     57  N         14.5990   -3.1520   39.5060 N.3   202  ASP202     -0.1239
     58  CA        15.3520   -4.3870   39.3320 C.3   202  ASP202      0.1674
     59  C         16.2480   -4.2940   38.1010 C.2   202  ASP202      0.2266
     60  O         17.0160   -5.2150   37.7940 O.2   202  ASP202     -0.2867
     61  CB        14.4210   -5.6070   39.2210 C.3   202  ASP202      0.1410
     62  CG        14.1820   -6.2800   40.5650 C.2   202  ASP202      0.3668
     63  OD1       13.8950   -5.5640   41.5550 O.co2 202  ASP202     -0.2456
     64  OD2       14.2930   -7.5270   40.6360 O.co2 202  ASP202     -0.2456
     65  N         16.1260   -2.6900   45.7970 N.3   224  SER224     -0.1202
     66  CA        15.2330   -3.8200   45.5990 C.3   224  SER224      0.2020
     67  C         15.2010   -4.7090   46.8400 C.2   224  SER224      0.2618
     68  O         15.8260   -4.3930   47.8590 O.2   224  SER224     -0.2717
     69  CB        15.6330   -4.6230   44.3540 C.3   224  SER224      0.2103
     70  OG        14.5820   -5.4980   43.9740 O.3   224  SER224     -0.2182
     71  N         14.4490   -5.8010   46.7600 N.am  225  VAL225     -0.1979
     72  CA        14.3600   -6.7650   47.8620 C.3   225  VAL225      0.1595
     73  C         14.4050   -8.1710   47.2780 C.2   225  VAL225      0.2287
     74  O         14.1210   -8.3600   46.0890 O.2   225  VAL225     -0.2864
     75  CB        13.0540   -6.6020   48.6850 C.3   225  VAL225      0.0276
     76  CG1       12.9680   -5.2050   49.3270 C.3   225  VAL225      0.0022
     77  CG2       11.8320   -6.9090   47.8340 C.3   225  VAL225      0.0022
     78  N         13.3130  -11.8460   46.1630 N.3   227  ALA227     -0.1231
     79  CA        12.0270  -12.2750   45.6440 C.3   227  ALA227      0.1694
     80  C         12.2100  -13.5290   44.8290 C.2   227  ALA227      0.2592
     81  O         13.2760  -13.7420   44.2620 O.2   227  ALA227     -0.2718
     82  CB        11.4110  -11.1800   44.7900 C.3   227  ALA227      0.0304
     83  N         11.1580  -14.3370   44.7650 N.am  228  ALA228     -0.1966
     84  CA        11.1400  -15.5500   43.9570 C.3   228  ALA228      0.1728
     85  C         10.7860  -15.2600   42.5050 C.2   228  ALA228      0.2616
     86  O         10.2570  -14.1980   42.1860 O.2   228  ALA228     -0.2715
     87  CB        10.1390  -16.5550   44.5570 C.3   228  ALA228      0.0334
     88  N         11.1120  -16.1950   41.6180 N.am  229  GLU229     -0.1977
     89  CA        10.5480  -16.1920   40.2740 C.3   229  GLU229      0.1602
     90  C          9.8450  -17.5250   40.1130 C.2   229  GLU229      0.2287
     91  O          9.9300  -18.3770   40.9960 O.2   229  GLU229     -0.2864
     92  CB        11.6290  -16.0070   39.2030 C.3   229  GLU229      0.0415
     93  CG        12.6600  -17.1340   39.1250 C.3   229  GLU229      0.1163
     94  CD        13.6850  -16.8830   38.0230 C.2   229  GLU229      0.3649
     95  OE1       13.9690  -15.6980   37.7460 O.co2 229  GLU229     -0.2457
     96  OE2       14.1900  -17.8610   37.4280 O.co2 229  GLU229     -0.2457
     97  N         12.3810   -7.9980   53.7570 N.3   256  PRO256     -0.2116
     98  CA        11.1560   -8.1840   52.9730 C.3   256  PRO256      0.1372
     99  C         11.3950   -9.2420   51.8940 C.2   256  PRO256      0.2244
    100  O         12.5170   -9.3620   51.3980 O.2   256  PRO256     -0.2868
    101  CB        10.9470   -6.8160   52.3130 C.3   256  PRO256      0.0268
    102  CG        11.7240   -5.8540   53.1490 C.3   256  PRO256      0.0207
    103  CD        12.9030   -6.6240   53.6520 C.3   256  PRO256      0.0892
    104  N          9.3540  -11.0770   48.3560 N.3   258  SER258     -0.1217
    105  CA         8.1870  -11.2120   47.5120 C.3   258  SER258      0.1889
    106  C          8.1480  -12.6180   46.9390 C.2   258  SER258      0.2288
    107  O          9.1650  -13.1370   46.4970 O.2   258  SER258     -0.2866
    108  CB         8.2220  -10.1980   46.3820 C.3   258  SER258      0.2089
    109  OG         7.0550  -10.3260   45.5920 O.3   258  SER258     -0.2183
    110  N          7.4240   -5.7000   60.6700 N.3   287  THR287     -0.1203
    111  CA         6.8850   -4.6700   59.7840 C.3   287  THR287      0.1994
    112  C          7.9320   -4.2410   58.7530 C.2   287  THR287      0.2617
    113  O          7.6090   -3.7800   57.6550 O.2   287  THR287     -0.2717
    114  CB         6.4100   -3.4610   60.6210 C.3   287  THR287      0.1784
    115  OG1        5.3690   -3.8970   61.4980 O.3   287  THR287     -0.2211
    116  CG2        5.8920   -2.3360   59.7360 C.3   287  THR287      0.0376
    117  N          9.1950   -4.4210   59.1190 N.am  288  GLN288     -0.1979
    118  CA        10.3080   -4.1100   58.2430 C.3   288  GLN288      0.1601
    119  C         10.6170   -5.2860   57.3160 C.2   288  GLN288      0.2287
    120  O         11.4530   -5.1730   56.4280 O.2   288  GLN288     -0.2864
    121  CB        11.5480   -3.7370   59.0660 C.3   288  GLN288      0.0394
    122  CG        11.4330   -2.4060   59.8200 C.3   288  GLN288      0.0908
    123  CD        10.4780   -2.4670   61.0030 C.2   288  GLN288      0.2608
    124  OE1       10.5400   -3.3860   61.8220 O.2   288  GLN288     -0.2717
    125  NE2        9.5810   -1.4900   61.0910 N.am  288  GLN288     -0.0878
    126  N          8.0300   -7.6150   55.5870 N.3   290  PRO290     -0.2116
    127  CA         6.7750   -8.2550   55.2050 C.3   290  PRO290      0.1372
    128  C          6.9740   -9.3020   54.1230 C.2   290  PRO290      0.2244
    129  O          7.9650   -9.2730   53.3810 O.2   290  PRO290     -0.2868
    130  CB         5.9670   -7.0950   54.6070 C.3   290  PRO290      0.0268
    131  CG         7.0020   -6.1730   54.0610 C.3   290  PRO290      0.0207
    132  CD         8.1160   -6.2320   55.0830 C.3   290  PRO290      0.0892
    133  N          5.5510  -10.1700   50.6250 N.3   292  ILE292     -0.1245
    134  CA         4.7800   -9.5240   49.5810 C.3   292  ILE292      0.1561
    135  C          4.3140  -10.6030   48.6050 C.2   292  ILE292      0.2260
    136  O          5.1200  -11.2300   47.9200 O.2   292  ILE292     -0.2867
    137  CB         5.5890   -8.4310   48.8570 C.3   292  ILE292      0.0252
    138  CG1        6.0940   -7.3830   49.8630 C.3   292  ILE292      0.0019
    139  CG2        4.7200   -7.7310   47.8110 C.3   292  ILE292      0.0019
    140  CD1        7.5650   -7.4810   50.1640 C.3   292  ILE292      0.0001
    141  N          2.7380  -11.9900   45.2770 N.3   294  ARG294     -0.1245
    142  CA         2.7240  -11.4940   43.9150 C.3   294  ARG294      0.1563
    143  C          1.8680  -12.3820   43.0160 C.2   294  ARG294      0.2260
    144  O          2.2890  -13.4730   42.6340 O.2   294  ARG294     -0.2867
    145  CB         4.1530  -11.4120   43.3710 C.3   294  ARG294      0.0307
    146  CG         4.2470  -10.9240   41.9460 C.3   294  ARG294      0.0489
    147  CD         5.6900  -10.9970   41.4400 C.3   294  ARG294      0.2205
    148  NE         5.6970  -11.2130   40.0030 N.pl3 294  ARG294     -0.0865
    149  CZ         6.5740  -11.9680   39.3570 C.cat 294  ARG294      0.5346
    150  NH1        6.4660  -12.1010   38.0500 N.pl3 294  ARG294      0.1354
    151  NH2        7.5580  -12.5840   40.0090 N.pl3 294  ARG294      0.1354
    152  N          1.8280   -7.6520   52.2980 N.3   332  ARG332     -0.1245
    153  CA         1.5250   -6.6950   51.2240 C.3   332  ARG332      0.1563
    154  C          1.3480   -7.4650   49.9190 C.2   332  ARG332      0.2260
    155  O          1.5610   -8.6720   49.8800 O.2   332  ARG332     -0.2867
    156  CB         2.6480   -5.6630   51.0650 C.3   332  ARG332      0.0307
    157  CG         2.7420   -4.6550   52.2320 C.3   332  ARG332      0.0489
    158  CD         1.4920   -3.7810   52.2960 C.3   332  ARG332      0.2205
    159  NE         1.5280   -2.7510   53.3440 N.pl3 332  ARG332     -0.0865
    160  CZ         0.9110   -2.8560   54.5160 C.cat 332  ARG332      0.5346
    161  NH1        0.2310   -3.9570   54.8120 N.pl3 332  ARG332      0.1354
    162  NH2        0.9780   -1.8580   55.4000 N.pl3 332  ARG332      0.1354
    163  N          2.0660   -7.2050   45.4800 N.3   334  ILE334     -0.1245
    164  CA         2.5610   -6.4700   44.3200 C.3   334  ILE334      0.1561
    165  C          1.9550   -7.0780   43.0550 C.2   334  ILE334      0.2260
    166  O          1.9540   -8.2950   42.8790 O.2   334  ILE334     -0.2867
    167  CB         4.1090   -6.4260   44.2540 C.3   334  ILE334      0.0252
    168  CG1        4.5670   -5.6420   43.0240 C.3   334  ILE334      0.0019
    169  CG2        4.6930   -7.8510   44.2300 C.3   334  ILE334      0.0019
    170  CD1        6.0360   -5.2580   43.0390 C.3   334  ILE334      0.0001
    171  N          2.4660   -7.2250   39.2340 N.3   336  GLY336     -0.1225
    172  CA         3.5380   -6.9520   38.2930 C.3   336  GLY336      0.1811
    173  C          3.3030   -7.5600   36.9270 C.2   336  GLY336      0.2280
    174  O          4.2510   -7.8170   36.1860 O.2   336  GLY336     -0.2866
    175  N          1.8030   -2.4790   45.7800 N.3   362  ALA362     -0.1245
    176  CA         2.7800   -1.8330   44.9160 C.3   362  ALA362      0.1562
    177  C          2.6190   -2.4080   43.5120 C.2   362  ALA362      0.2260
    178  O          1.9540   -3.4280   43.3140 O.2   362  ALA362     -0.2867
    179  CB         4.1900   -2.0660   45.4290 C.3   362  ALA362      0.0290
@<TRIPOS>BOND
     1    49    48    2
     2    48    47    1
     3    37    36    2
     4    47    50    1
     5    47    46    1
     6    50    51    1
     7    51    52    1
     8    36    46   am
     9    36    35    1
    10    52    53    1
    11    43    41   ar
    12    43    44   ar
    13    41    39   ar
    14    35    34    1
    15    35    38    1
    16    45    44    1
    17    44    42   ar
    18    53    54    2
    19    39    38    1
    20    39    40   ar
    21    55    54    1
    22    54    56    1
    23    42    40   ar
    24    26    25    2
    25    25    24    1
    26    24    27    1
    27    24    23    1
    28    27    28    1
    29   174   173    2
    30   173   172    1
    31    96    94   ar
    32    28    30   ar
    33    28    29   ar
    34    95    94   ar
    35    30    32   ar
    36    60    59    2
    37    94    93    1
    38   150   149    1
    39    59    58    1
    40   172   171    1
    41    16    15    2
    42    29    31   ar
    43    32    33   ar
    44    93    92    1
    45    15    14    1
    46    92    89    1
    47    61    58    1
    48    61    62    1
    49    58    57    1
    50   149   148    2
    51   149   151    1
    52    31    33   ar
    53   148   147    1
    54    90    89    1
    55    90    91    2
    56    89    88    1
    57    62    64   ar
    58    62    63   ar
    59    14    13    1
    60    14    17    1
    61    20    18   ar
    62    20    22   ar
    63   147   146    1
    64    17    18    1
    65    88    85   am
    66    18    19   ar
    67   146   145    1
    68    22    21   ar
    69    86    85    2
    70    85    84    1
    71   144   143    2
    72   166   165    2
    73    19    21   ar
    74   143   142    1
    75   168   170    1
    76   168   167    1
    77   165   164    1
    78   178   177    2
    79   145   142    1
    80   177   176    1
    81   142   141    1
    82    84    87    1
    83    84    83    1
    84    70    69    1
    85   169   167    1
    86   167   164    1
    87    81    80    2
    88   164   163    1
    89    69    66    1
    90    83    80   am
    91    82    79    1
    92    80    79    1
    93   176   179    1
    94   176   175    1
    95     4     3    2
    96     3     2    1
    97   109   108    1
    98    66    65    1
    99    66    67    1
   100    79    78    1
   101    74    73    2
   102     2     1    1
   103     2     5    1
   104   108   105    1
   105   107   106    2
   106    71    67   am
   107    71    72    1
   108    67    68    2
   109   106   105    1
   110    73    72    1
   111     7     9   ar
   112     7     6   ar
   113     5     6    1
   114   105   104    1
   115   139   137    1
   116    77    75    1
   117    72    75    1
   118     9    11   ar
   119   136   135    2
   120     6     8   ar
   121   135   134    1
   122    75    76    1
   123   137   134    1
   124   137   138    1
   125    11    12    1
   126    11    10   ar
   127     8    10   ar
   128   134   133    1
   129   138   140    1
   130   155   154    2
   131   154   153    1
   132   156   153    1
   133   156   157    1
   134   153   152    1
   135   100    99    2
   136    99    98    1
   137   157   158    1
   138   158   159    1
   139   101    98    1
   140   101   102    1
   141    98    97    1
   142   102   103    1
   143   159   160    2
   144   129   128    2
   145   103    97    1
   146   131   130    1
   147   131   132    1
   148   128   127    1
   149   160   161    1
   150   160   162    1
   151   130   127    1
   152   132   126    1
   153   127   126    1
   154   120   119    2
   155   119   118    1
   156   113   112    2
   157   118   121    1
   158   118   117    1
   159   112   117   am
   160   112   111    1
   161   121   122    1
   162   116   114    1
   163   111   114    1
   164   111   110    1
   165   122   123    1
   166   114   115    1
   167   123   125   am
   168   123   124    2
