@<TRIPOS>MOLECULE
tmp/4kfqA00.pdb
 127 124 0 0 0
SMALL
GASTEIGER

@<TRIPOS>ATOM
      1  N         35.0880   38.7570   43.9900 N.3    10  GLN10      -0.1245
      2  CA        33.8880   38.6380   43.1680 C.3    10  GLN10       0.1566
      3  C         33.6450   39.9110   42.3630 C.2    10  GLN10       0.2260
      4  O         33.0650   40.8680   42.8860 O.2    10  GLN10      -0.2867
      5  CB        32.6630   38.3610   44.0570 C.3    10  GLN10       0.0367
      6  CG        31.3570   38.1710   43.2760 C.3    10  GLN10       0.0905
      7  CD        31.3790   36.9130   42.4360 C.2    10  GLN10       0.2608
      8  OE1       31.2040   35.8110   42.9550 O.2    10  GLN10      -0.2717
      9  NE2       31.6220   37.0680   41.1360 N.am   10  GLN10      -0.0878
     10  N         32.2090   43.5440   42.3540 N.3    13  PHE13      -0.1241
     11  CA        32.1750   44.0520   43.7200 C.3    13  PHE13       0.1605
     12  C         33.5750   44.1500   44.3160 C.2    13  PHE13       0.2264
     13  O         33.9250   45.1470   44.9620 O.2    13  PHE13      -0.2867
     14  CB        31.2920   43.1670   44.6010 C.3    13  PHE13       0.0534
     15  CG        29.8450   43.1800   44.2000 C.ar   13  PHE13      -0.0203
     16  CD1       28.9760   44.1510   44.7020 C.ar   13  PHE13      -0.0042
     17  CD2       29.3530   42.2310   43.3150 C.ar   13  PHE13      -0.0042
     18  CE1       27.6260   44.1670   44.3270 C.ar   13  PHE13      -0.0003
     19  CE2       28.0030   42.2310   42.9360 C.ar   13  PHE13      -0.0003
     20  CZ        27.1420   43.1970   43.4410 C.ar   13  PHE13      -0.0000
     21  N         31.5640   32.2400   50.8960 N.3    89  PHE89      -0.1227
     22  CA        30.6670   33.2260   51.5140 C.3    89  PHE89       0.1736
     23  C         30.2230   32.7280   52.8670 C.2    89  PHE89       0.2596
     24  O         30.2590   33.4670   53.8520 O.2    89  PHE89      -0.2718
     25  CB        29.4340   33.4950   50.6490 C.3    89  PHE89       0.0547
     26  CG        29.7080   34.3750   49.4680 C.ar   89  PHE89      -0.0202
     27  CD1       29.6410   35.7570   49.5830 C.ar   89  PHE89      -0.0042
     28  CD2       30.0150   33.8220   48.2340 C.ar   89  PHE89      -0.0042
     29  CE1       29.8910   36.5780   48.4770 C.ar   89  PHE89      -0.0003
     30  CE2       30.2650   34.6320   47.1220 C.ar   89  PHE89      -0.0003
     31  CZ        30.2090   35.9990   47.2400 C.ar   89  PHE89      -0.0000
     32  N         29.8030   31.4670   52.9260 N.am   90  GLY90      -0.1957
     33  CA        29.5310   30.8530   54.2150 C.3    90  GLY90       0.1869
     34  C         28.2560   30.0350   54.2380 C.2    90  GLY90       0.2309
     35  O         27.1820   30.5360   53.9100 O.2    90  GLY90      -0.2863
     36  N         29.4380   41.2640   48.6110 N.3   121  PRO121     -0.2102
     37  CA        28.0390   41.0420   48.2140 C.3   121  PRO121      0.1504
     38  C         27.4700   39.8480   48.9840 C.2   121  PRO121      0.2576
     39  O         27.2210   38.7900   48.3820 O.2   121  PRO121     -0.2718
     40  CB        28.1390   40.7310   46.7120 C.3   121  PRO121      0.0282
     41  CG        29.5410   40.2190   46.5160 C.3   121  PRO121      0.0208
     42  CD        30.3990   40.9170   47.5450 C.3   121  PRO121      0.0893
     43  N         27.2690   40.0230   50.2930 N.am  122  LEU122     -0.1966
     44  CA        26.7890   38.9610   51.1770 C.3   122  LEU122      0.1728
     45  C         25.2610   38.9400   51.2040 C.2   122  LEU122      0.2616
     46  O         24.6190   39.8980   51.6630 O.2   122  LEU122     -0.2715
     47  CB        27.3290   39.1670   52.6000 C.3   122  LEU122      0.0311
     48  CG        27.0250   38.0690   53.6340 C.3   122  LEU122      0.0022
     49  CD1       27.7880   36.7740   53.3580 C.3   122  LEU122      0.0001
     50  CD2       27.2990   38.5580   55.0800 C.3   122  LEU122      0.0001
     51  N         24.6850   37.8410   50.7240 N.am  123  THR123     -0.1951
     52  CA        23.2460   37.7250   50.6110 C.3   123  THR123      0.1897
     53  C         22.5740   37.5560   51.9770 C.2   123  THR123      0.2313
     54  O         22.9290   36.6720   52.7640 O.2   123  THR123     -0.2863
     55  CB        22.8560   36.5690   49.6920 C.3   123  THR123      0.1794
     56  OG1       23.4610   36.7640   48.4100 O.3   123  THR123     -0.2208
     57  CG2       21.3300   36.4980   49.5160 C.3   123  THR123      0.0378
     58  N         21.3530   32.8550   58.0090 N.3   128  ARG128     -0.1245
     59  CA        22.4990   33.6960   58.3850 C.3   128  ARG128      0.1563
     60  C         22.1310   34.7110   59.4660 C.2   128  ARG128      0.2260
     61  O         22.9280   34.9930   60.3710 O.2   128  ARG128     -0.2867
     62  CB        23.0540   34.4390   57.1560 C.3   128  ARG128      0.0307
     63  CG        23.7790   33.5350   56.1780 C.3   128  ARG128      0.0489
     64  CD        24.2020   34.2620   54.9290 C.3   128  ARG128      0.2205
     65  NE        24.9920   33.3760   54.0850 N.pl3 128  ARG128     -0.0865
     66  CZ        25.3030   33.6200   52.8190 C.cat 128  ARG128      0.5346
     67  NH1       24.8870   34.7420   52.2260 N.pl3 128  ARG128      0.1354
     68  NH2       26.0230   32.7260   52.1460 N.pl3 128  ARG128      0.1354
     69  N         27.6720   25.6260   45.0120 N.3   176  SER176     -0.1202
     70  CA        27.3200   27.0030   45.3230 C.3   176  SER176      0.2020
     71  C         26.0640   26.9720   46.1770 C.2   176  SER176      0.2619
     72  O         25.3890   25.9450   46.2650 O.2   176  SER176     -0.2717
     73  CB        27.0450   27.7750   44.0460 C.3   176  SER176      0.2103
     74  OG        25.9350   27.2170   43.3530 O.3   176  SER176     -0.2182
     75  N         25.7380   28.0910   46.8060 N.am  177  SER177     -0.1937
     76  CA        24.4720   28.1910   47.5280 C.3   177  SER177      0.2055
     77  C         23.2580   27.9370   46.6300 C.2   177  SER177      0.2642
     78  O         22.2460   27.3980   47.0950 O.2   177  SER177     -0.2714
     79  CB        24.3550   29.5440   48.2430 C.3   177  SER177      0.2130
     80  OG        25.3470   29.6340   49.2640 O.3   177  SER177     -0.2179
     81  N         23.3550   28.3030   45.3550 N.am  178  VAL178     -0.1977
     82  CA        22.2800   28.0160   44.4010 C.3   178  VAL178      0.1596
     83  C         22.0950   26.5040   44.2720 C.2   178  VAL178      0.2287
     84  O         20.9780   25.9810   44.3230 O.2   178  VAL178     -0.2864
     85  CB        22.6100   28.5840   42.9990 C.3   178  VAL178      0.0276
     86  CG1       21.4280   28.4080   42.0650 C.3   178  VAL178      0.0022
     87  CG2       22.9940   30.0650   43.1030 C.3   178  VAL178      0.0022
     88  N         22.3320   32.0100   37.9360 N.3   220  TRP220     -0.1227
     89  CA        23.3450   32.5410   38.8380 C.3   220  TRP220      0.1737
     90  C         22.9190   33.9170   39.3410 C.2   220  TRP220      0.2595
     91  O         21.8350   34.4010   39.0030 O.2   220  TRP220     -0.2718
     92  CB        24.6920   32.6130   38.0950 C.3   220  TRP220      0.0564
     93  CG        25.9240   32.7400   38.9740 C.ar  220  TRP220      0.0003
     94  CD1       26.8850   33.7170   38.9050 C.ar  220  TRP220      0.0946
     95  CD2       26.3270   31.8600   40.0360 C.ar  220  TRP220      0.0152
     96  NE1       27.8590   33.4940   39.8550 N.ar  220  TRP220     -0.2442
     97  CE2       27.5430   32.3640   40.5590 C.ar  220  TRP220      0.0810
     98  CE3       25.7810   30.6930   40.5900 C.ar  220  TRP220      0.0012
     99  CZ2       28.2200   31.7390   41.6230 C.ar  220  TRP220      0.0191
    100  CZ3       26.4460   30.0760   41.6450 C.ar  220  TRP220      0.0001
    101  CH2       27.6570   30.5990   42.1490 C.ar  220  TRP220      0.0015
    102  N         23.7700   34.5360   40.1510 N.am  221  ASP221     -0.1974
    103  CA        23.4910   35.8610   40.7150 C.3   221  ASP221      0.1709
    104  C         23.2710   36.9010   39.6180 C.2   221  ASP221      0.2293
    105  O         24.0190   36.9320   38.6340 O.2   221  ASP221     -0.2864
    106  CB        24.6450   36.3060   41.6180 C.3   221  ASP221      0.1436
    107  CG        24.4510   37.7140   42.1380 C.2   221  ASP221      0.3671
    108  OD1       23.6300   37.8970   43.0710 O.co2 221  ASP221     -0.2456
    109  OD2       25.0910   38.6410   41.5880 O.co2 221  ASP221     -0.2456
    110  N         26.1930   39.6050   39.1120 N.3   224  VAL224     -0.1245
    111  CA        27.2940   38.9710   38.3870 C.3   224  VAL224      0.1561
    112  C         26.9310   38.7500   36.9200 C.2   224  VAL224      0.2260
    113  O         27.6960   39.1250   36.0280 O.2   224  VAL224     -0.2867
    114  CB        27.7040   37.6380   39.0460 C.3   224  VAL224      0.0252
    115  CG1       28.7430   36.8810   38.2120 C.3   224  VAL224      0.0019
    116  CG2       28.2370   37.8980   40.4400 C.3   224  VAL224      0.0019
    117  N         21.7960   42.4160   49.4590 N.3   247  PHE247     -0.1241
    118  CA        23.1470   42.2720   49.9860 C.3   247  PHE247      0.1605
    119  C         23.3150   43.2080   51.1780 C.2   247  PHE247      0.2264
    120  O         22.8900   44.3490   51.1250 O.2   247  PHE247     -0.2867
    121  CB        24.1700   42.6650   48.9250 C.3   247  PHE247      0.0534
    122  CG        24.2010   41.7470   47.7380 C.ar  247  PHE247     -0.0203
    123  CD1       24.3690   40.3750   47.9040 C.ar  247  PHE247     -0.0042
    124  CD2       24.1040   42.2580   46.4540 C.ar  247  PHE247     -0.0042
    125  CE1       24.4250   39.5370   46.8090 C.ar  247  PHE247     -0.0003
    126  CE2       24.1570   41.4110   45.3430 C.ar  247  PHE247     -0.0003
    127  CZ        24.3130   40.0530   45.5260 C.ar  247  PHE247     -0.0000
@<TRIPOS>BOND
     1   113   112    2
     2   112   111    1
     3    88    89    1
     4    92    89    1
     5    92    93    1
     6   115   114    1
     7   111   114    1
     8   111   110    1
     9   105   104    2
    10    89    90    1
    11    94    93   ar
    12    94    96   ar
    13    93    95   ar
    14    91    90    2
    15   114   116    1
    16    90   102   am
    17   104   103    1
    18    96    97   ar
    19    95    97   ar
    20    95    98   ar
    21   102   103    1
    22    97    99   ar
    23    98   100   ar
    24   103   106    1
    25     9     7   am
    26   109   107   ar
    27   106   107    1
    28    99   101   ar
    29   100   101   ar
    30    86    85    1
    31   107   108   ar
    32    10    11    1
    33     3     4    2
    34     3     2    1
    35     7     8    2
    36     7     6    1
    37    19    17   ar
    38    19    20   ar
    39    85    87    1
    40    85    82    1
    41     2     1    1
    42     2     5    1
    43     6     5    1
    44    17    15   ar
    45    74    73    1
    46    20    18   ar
    47    11    12    1
    48    11    14    1
    49    73    70    1
    50    15    14    1
    51    15    16   ar
    52    83    84    2
    53    83    82    1
    54    12    13    2
    55    18    16   ar
    56    82    81    1
    57    69    70    1
    58    70    71    1
    59   126   127   ar
    60   126   124   ar
    61    81    77   am
    62   127   125   ar
    63    71    72    2
    64    71    75   am
    65   124   122   ar
    66    41    40    1
    67    41    42    1
    68    77    78    2
    69    77    76    1
    70    40    37    1
    71    75    76    1
    72   125   123   ar
    73    30    31   ar
    74    30    28   ar
    75    31    29   ar
    76    76    79    1
    77    42    36    1
    78   122   123   ar
    79   122   121    1
    80    37    36    1
    81    37    38    1
    82    28    26   ar
    83    79    80    1
    84    39    38    2
    85    56    55    1
    86    29    27   ar
    87   121   118    1
    88    38    43   am
    89   117   118    1
    90    26    27   ar
    91    26    25    1
    92    57    55    1
    93    55    52    1
    94   118   119    1
    95    43    44    1
    96    52    51    1
    97    52    53    1
    98    25    22    1
    99    51    45   am
   100    21    22    1
   101   120   119    2
   102    44    45    1
   103    44    47    1
   104    45    46    2
   105    22    23    1
   106    53    54    2
   107    68    66    1
   108    67    66    1
   109    47    48    1
   110    66    65    2
   111    23    32   am
   112    23    24    2
   113    32    33    1
   114    49    48    1
   115    48    50    1
   116    35    34    2
   117    65    64    1
   118    33    34    1
   119    64    63    1
   120    63    62    1
   121    62    59    1
   122    58    59    1
   123    59    60    1
   124    60    61    2
