@<TRIPOS>MOLECULE
tmp/4kfsA00.pdb
 112 112 0 0 0
SMALL
GASTEIGER

@<TRIPOS>ATOM
      1  N         28.9210   30.9630   47.5280 N.3    12  ARG12      -0.1231
      2  CA        29.6430   32.2290   47.5610 C.3    12  ARG12       0.1694
      3  C         30.9820   32.1430   48.2940 C.2    12  ARG12       0.2592
      4  O         31.3480   31.1060   48.8580 O.2    12  ARG12      -0.2718
      5  CB        28.7600   33.3170   48.1740 C.3    12  ARG12       0.0321
      6  CG        27.5200   33.6650   47.3410 C.3    12  ARG12       0.0489
      7  CD        26.4200   34.2200   48.2300 C.3    12  ARG12       0.2205
      8  NE        25.5280   35.1600   47.5440 N.pl3  12  ARG12      -0.0865
      9  CZ        24.5050   34.8000   46.7710 C.cat  12  ARG12       0.5346
     10  NH1       24.2530   33.5130   46.5610 N.pl3  12  ARG12       0.1354
     11  NH2       23.7410   35.7220   46.1960 N.pl3  12  ARG12       0.1354
     12  N         31.7190   33.2460   48.2720 N.am   13  LYS13      -0.1966
     13  CA        32.9840   33.3200   48.9790 C.3    13  LYS13       0.1728
     14  C         32.7300   33.0990   50.4630 C.2    13  LYS13       0.2616
     15  O         31.7910   33.6670   51.0260 O.2    13  LYS13      -0.2715
     16  CB        33.6510   34.6780   48.7290 C.3    13  LYS13       0.0311
     17  CG        35.1590   34.6350   48.7280 C.3    13  LYS13       0.0038
     18  CD        35.7340   35.8400   47.9990 C.3    13  LYS13       0.0206
     19  CE        37.1920   35.6100   47.6360 C.3    13  LYS13       0.1093
     20  NZ        37.3530   34.3920   46.7880 N.3    13  LYS13      -0.1314
     21  N         33.5480   32.2400   51.0650 N.am   14  LYS14      -0.1963
     22  CA        33.4630   31.8830   52.4810 C.3    14  LYS14       0.1728
     23  C         32.2710   30.9810   52.8240 C.2    14  LYS14       0.2617
     24  O         32.0400   30.6880   53.9900 O.2    14  LYS14      -0.2715
     25  CB        33.5150   33.1180   53.3910 C.3    14  LYS14       0.0311
     26  CG        34.7830   33.8740   53.4760 C.3    14  LYS14       0.0038
     27  CD        36.0100   33.0930   53.8640 C.3    14  LYS14       0.0206
     28  CE        37.2840   33.9510   53.6460 C.3    14  LYS14       0.1093
     29  NZ        37.1330   34.8800   52.4190 N.3    14  LYS14      -0.1314
     30  N         31.5500   30.5110   51.8070 N.am   15  SER15      -0.1936
     31  CA        30.4160   29.6160   52.0290 C.3    15  SER15       0.2055
     32  C         30.8750   28.2450   52.4980 C.2    15  SER15       0.2644
     33  O         30.1360   27.5500   53.1860 O.2    15  SER15      -0.2714
     34  CB        29.5930   29.4420   50.7580 C.3    15  SER15       0.2130
     35  OG        30.3390   28.6860   49.8230 O.3    15  SER15      -0.2179
     36  N         32.0930   27.8540   52.1290 N.am   16  GLY16      -0.1939
     37  CA        32.6260   26.5660   52.5430 C.3    16  GLY16       0.2014
     38  C         32.9650   25.7030   51.3450 C.2    16  GLY16       0.2639
     39  O         33.3070   24.5220   51.4710 O.2    16  GLY16      -0.2714
     40  N         32.8620   26.3150   50.1720 N.am   17  LYS17      -0.1963
     41  CA        33.1350   25.6530   48.9080 C.3    17  LYS17       0.1728
     42  C         34.5740   25.1350   48.8130 C.2    17  LYS17       0.2617
     43  O         34.8070   23.9430   48.6220 O.2    17  LYS17      -0.2715
     44  CB        32.8710   26.6460   47.7850 C.3    17  LYS17       0.0311
     45  CG        32.7390   26.0510   46.4260 C.3    17  LYS17       0.0038
     46  CD        32.3400   27.1410   45.4560 C.3    17  LYS17       0.0206
     47  CE        33.2610   28.3400   45.5910 C.3    17  LYS17       0.1093
     48  NZ        32.9200   29.3910   44.6100 N.3    17  LYS17      -0.1314
     49  N         35.5320   26.0420   48.9490 N.am   18  SER18      -0.1936
     50  CA        36.9500   25.6910   48.8980 C.3    18  SER18       0.2055
     51  C         37.3440   24.7480   50.0340 C.2    18  SER18       0.2643
     52  O         38.1510   23.8360   49.8470 O.2    18  SER18      -0.2714
     53  CB        37.7950   26.9620   48.9650 C.3    18  SER18       0.2130
     54  OG        37.3830   27.8930   47.9750 O.3    18  SER18      -0.2179
     55  N         36.7680   24.9800   51.2100 N.am   19  TYR19      -0.1973
     56  CA        37.0360   24.1500   52.3760 C.3    19  TYR19       0.1639
     57  C         36.6420   22.7070   52.0990 C.2    19  TYR19       0.2290
     58  O         37.3430   21.7800   52.4840 O.2    19  TYR19      -0.2864
     59  CB        36.2860   24.6880   53.5990 C.3    19  TYR19       0.0560
     60  CG        36.7320   24.0880   54.9180 C.ar   19  TYR19      -0.0198
     61  CD1       37.7630   24.6670   55.6560 C.ar   19  TYR19      -0.0009
     62  CD2       36.1220   22.9430   55.4260 C.ar   19  TYR19      -0.0009
     63  CE1       38.1770   24.1210   56.8650 C.ar   19  TYR19       0.0417
     64  CE2       36.5250   22.3890   56.6310 C.ar   19  TYR19       0.0417
     65  CZ        37.5560   22.9810   57.3460 C.ar   19  TYR19       0.1957
     66  OH        37.9540   22.4360   58.5480 O.3    19  TYR19      -0.2866
     67  N         25.5100   25.4600   48.4550 N.3   154  PHE154     -0.1241
     68  CA        25.4300   26.0840   49.7710 C.3   154  PHE154      0.1605
     69  C         24.2560   27.0740   49.8060 C.2   154  PHE154      0.2264
     70  O         23.5710   27.2650   48.8040 O.2   154  PHE154     -0.2867
     71  CB        26.7680   26.7620   50.0930 C.3   154  PHE154      0.0534
     72  CG        27.8880   25.7860   50.3400 C.ar  154  PHE154     -0.0203
     73  CD1       28.2410   25.4270   51.6310 C.ar  154  PHE154     -0.0042
     74  CD2       28.5750   25.2080   49.2780 C.ar  154  PHE154     -0.0042
     75  CE1       29.2580   24.5150   51.8660 C.ar  154  PHE154     -0.0003
     76  CE2       29.6040   24.3000   49.5100 C.ar  154  PHE154     -0.0003
     77  CZ        29.9390   23.9530   50.8000 C.ar  154  PHE154     -0.0000
     78  N         27.6940   26.5230   56.4020 N.3   183  TYR183     -0.1241
     79  CA        28.5460   25.3840   56.0380 C.3   183  TYR183      0.1605
     80  C         27.7930   24.0970   55.7540 C.2   183  TYR183      0.2264
     81  O         28.4110   23.0930   55.4130 O.2   183  TYR183     -0.2867
     82  CB        29.6580   25.1130   57.0610 C.3   183  TYR183      0.0534
     83  CG        30.4690   26.3220   57.4310 C.ar  183  TYR183     -0.0201
     84  CD1       30.8660   27.2370   56.4680 C.ar  183  TYR183     -0.0009
     85  CD2       30.8320   26.5550   58.7540 C.ar  183  TYR183     -0.0009
     86  CE1       31.6150   28.3520   56.8120 C.ar  183  TYR183      0.0417
     87  CE2       31.5710   27.6700   59.1100 C.ar  183  TYR183      0.0417
     88  CZ        31.9650   28.5620   58.1350 C.ar  183  TYR183      0.1957
     89  OH        32.6930   29.6720   58.4800 O.3   183  TYR183     -0.2866
     90  N         28.0090   20.2600   57.9530 N.3   200  PRO200     -0.2102
     91  CA        29.3550   20.7730   57.6840 C.3   200  PRO200      0.1504
     92  C         30.3790   19.6620   57.8450 C.2   200  PRO200      0.2576
     93  O         30.2510   18.8580   58.7670 O.2   200  PRO200     -0.2718
     94  CB        29.5450   21.8250   58.7850 C.3   200  PRO200      0.0282
     95  CG        28.1640   22.3200   59.0580 C.3   200  PRO200      0.0208
     96  CD        27.2800   21.1050   58.9200 C.3   200  PRO200      0.0893
     97  N         31.3620   19.5970   56.9560 N.am  201  ILE201     -0.1966
     98  CA        32.4310   18.6170   57.1170 C.3   201  ILE201      0.1727
     99  C         33.2870   18.9220   58.3500 C.2   201  ILE201      0.2616
    100  O         33.3750   20.0690   58.7910 O.2   201  ILE201     -0.2715
    101  CB        33.3310   18.5380   55.8700 C.3   201  ILE201      0.0290
    102  CG1       33.8960   19.9080   55.5210 C.3   201  ILE201      0.0022
    103  CG2       32.5580   17.9900   54.6800 C.3   201  ILE201      0.0023
    104  CD1       34.9720   19.8290   54.4700 C.3   201  ILE201      0.0001
    105  N         33.9070   17.8930   58.9170 N.am  202  LEU202     -0.1977
    106  CA        34.8030   18.0970   60.0500 C.3   202  LEU202      0.1596
    107  C         36.2220   18.3980   59.5780 C.2   202  LEU202      0.2287
    108  O         36.7030   19.5240   59.7180 O.2   202  LEU202     -0.2864
    109  CB        34.8000   16.8780   60.9770 C.3   202  LEU202      0.0297
    110  CG        33.5280   16.6470   61.7920 C.3   202  LEU202      0.0022
    111  CD1       33.6570   15.3330   62.5260 C.3   202  LEU202      0.0001
    112  CD2       33.2880   17.7500   62.7900 C.3   202  LEU202      0.0001
@<TRIPOS>BOND
     1    48    47    1
     2    46    47    1
     3    46    45    1
     4    11     9    1
     5    45    44    1
     6    10     9    1
     7     9     8    2
     8    20    19    1
     9     6     5    1
    10     6     7    1
    11     1     2    1
    12     8     7    1
    13     2     5    1
    14     2     3    1
    15    19    18    1
    16    44    41    1
    17    54    53    1
    18    18    17    1
    19    12     3   am
    20    12    13    1
    21     3     4    2
    22    67    68    1
    23    43    42    2
    24    17    16    1
    25    16    13    1
    26    70    69    2
    27    42    41    1
    28    42    49   am
    29    50    49    1
    30    50    53    1
    31    50    51    1
    32    41    40    1
    33    13    14    1
    34    74    76   ar
    35    74    72   ar
    36    76    77   ar
    37    68    69    1
    38    68    71    1
    39    35    34    1
    40    52    51    2
    41    51    55   am
    42    71    72    1
    43    40    38   am
    44    72    73   ar
    45    14    15    2
    46    14    21   am
    47    34    31    1
    48    77    75   ar
    49    21    22    1
    50    55    56    1
    51    38    39    2
    52    38    37    1
    53    73    75   ar
    54    30    31    1
    55    30    23   am
    56    31    32    1
    57    57    56    1
    58    57    58    2
    59    36    32   am
    60    36    37    1
    61    56    59    1
    62    29    28    1
    63    22    23    1
    64    22    25    1
    65    32    33    2
    66    23    24    2
    67    25    26    1
    68    26    27    1
    69    59    60    1
    70    28    27    1
    71   104   102    1
    72   103   101    1
    73    60    62   ar
    74    60    61   ar
    75    81    80    2
    76    62    64   ar
    77   102   101    1
    78    61    63   ar
    79    80    79    1
    80   101    98    1
    81    79    78    1
    82    79    82    1
    83    84    86   ar
    84    84    83   ar
    85    64    65   ar
    86    86    88   ar
    87    63    65   ar
    88    97    98    1
    89    97    92   am
    90    82    83    1
    91    98    99    1
    92    65    66    1
    93    83    85   ar
    94    91    92    1
    95    91    90    1
    96    91    94    1
    97    92    93    2
    98    90    96    1
    99    88    89    1
   100    88    87   ar
   101    99   100    2
   102    99   105   am
   103    85    87   ar
   104    94    95    1
   105   105   106    1
   106    96    95    1
   107   107   108    2
   108   107   106    1
   109   106   109    1
   110   109   110    1
   111   110   111    1
   112   110   112    1
