@<TRIPOS>MOLECULE
tmp/4kftC01.pdb
 136 133 0 0 0
SMALL
GASTEIGER

@<TRIPOS>ATOM
      1  N         32.4250    1.5830   53.3230 N.3    13  LYS13      -0.1231
      2  CA        33.7540    1.6190   53.9340 C.3    13  LYS13       0.1693
      3  C         33.6250    1.4840   55.4500 C.2    13  LYS13       0.2592
      4  O         32.7490    2.0960   56.0620 O.2    13  LYS13      -0.2718
      5  CB        34.4780    2.9210   53.5720 C.3    13  LYS13       0.0285
      6  CG        36.0050    2.8430   53.6330 C.3    13  LYS13       0.0035
      7  CD        36.6250    4.1910   53.2870 C.3    13  LYS13       0.0206
      8  CE        38.1220    4.0790   52.9880 C.3    13  LYS13       0.1093
      9  NZ        38.9250    3.5650   54.1390 N.3    13  LYS13      -0.1314
     10  N         34.4720    0.6330   56.0130 N.am   14  LYS14      -0.1966
     11  CA        34.5510    0.3560   57.4390 C.3    14  LYS14       0.1728
     12  C         33.5330   -0.6820   57.9130 C.2    14  LYS14       0.2617
     13  O         33.4880   -0.9910   59.1110 O.2    14  LYS14      -0.2715
     14  CB        34.4700    1.6370   58.2780 C.3    14  LYS14       0.0311
     15  CG        35.4920    2.6940   57.8990 C.3    14  LYS14       0.0038
     16  CD        36.9030    2.1800   58.0900 C.3    14  LYS14       0.0206
     17  CE        37.9460    3.2350   57.7240 C.3    14  LYS14       0.1093
     18  NZ        39.3410    2.7430   57.9600 N.3    14  LYS14      -0.1314
     19  N         32.7340   -1.2220   56.9870 N.am   15  SER15      -0.1936
     20  CA        31.7360   -2.2630   57.3310 C.3    15  SER15       0.2055
     21  C         32.3800   -3.5040   57.9610 C.2    15  SER15       0.2644
     22  O         31.8420   -4.0840   58.9070 O.2    15  SER15      -0.2714
     23  CB        30.9320   -2.7100   56.0960 C.3    15  SER15       0.2130
     24  OG        30.1260   -1.6710   55.5500 O.3    15  SER15      -0.2179
     25  N         33.5250   -3.9090   57.4110 N.am   16  GLY16      -0.1939
     26  CA        34.2380   -5.0950   57.8490 C.3    16  GLY16       0.2014
     27  C         34.5400   -6.0770   56.7230 C.2    16  GLY16       0.2639
     28  O         34.7870   -7.2520   56.9770 O.2    16  GLY16      -0.2714
     29  N         34.5230   -5.6060   55.4780 N.am   17  LYS17      -0.1963
     30  CA        34.7050   -6.4910   54.3190 C.3    17  LYS17       0.1728
     31  C         36.1030   -7.1060   54.2740 C.2    17  LYS17       0.2617
     32  O         36.2590   -8.3300   54.2320 O.2    17  LYS17      -0.2715
     33  CB        34.4620   -5.7310   53.0060 C.3    17  LYS17       0.0311
     34  CG        33.0670   -5.1430   52.8290 C.3    17  LYS17       0.0038
     35  CD        32.9210   -4.4800   51.4660 C.3    17  LYS17       0.0206
     36  CE        33.9230   -3.3380   51.2670 C.3    17  LYS17       0.1093
     37  NZ        33.7560   -2.1730   52.1970 N.3    17  LYS17      -0.1314
     38  N         37.1190   -6.2420   54.2650 N.am   18  SER18      -0.1936
     39  CA        38.5040   -6.7040   54.2220 C.3    18  SER18       0.2055
     40  C         38.8130   -7.5660   55.4410 C.2    18  SER18       0.2643
     41  O         39.5070   -8.5720   55.3350 O.2    18  SER18      -0.2714
     42  CB        39.4720   -5.5260   54.1290 C.3    18  SER18       0.2130
     43  OG        39.2440   -4.7850   52.9530 O.3    18  SER18      -0.2179
     44  N         38.2650   -7.1810   56.5850 N.am   19  TYR19      -0.1959
     45  CA        38.4590   -7.9130   57.8360 C.3    19  TYR19       0.1771
     46  C         37.9800   -9.3520   57.7110 C.2    19  TYR19       0.2619
     47  O         38.5590  -10.2740   58.2920 O.2    19  TYR19      -0.2715
     48  CB        37.6970   -7.2170   58.9680 C.3    19  TYR19       0.0574
     49  CG        38.1000   -7.6640   60.3590 C.ar   19  TYR19      -0.0198
     50  CD1       39.1290   -7.0210   61.0540 C.ar   19  TYR19      -0.0009
     51  CD2       37.4550   -8.7210   60.9820 C.ar   19  TYR19      -0.0009
     52  CE1       39.4990   -7.4300   62.3280 C.ar   19  TYR19       0.0417
     53  CE2       37.8120   -9.1290   62.2530 C.ar   19  TYR19       0.0417
     54  CZ        38.8340   -8.4880   62.9170 C.ar   19  TYR19       0.1957
     55  OH        39.1810   -8.9120   64.1770 O.3    19  TYR19      -0.2866
     56  N         36.8990   -9.5230   56.9580 N.am   20  LEU20      -0.1977
     57  CA        36.3130  -10.8280   56.6890 C.3    20  LEU20       0.1596
     58  C         37.2550  -11.6740   55.8430 C.2    20  LEU20       0.2287
     59  O         37.3870  -12.8780   56.0310 O.2    20  LEU20      -0.2864
     60  CB        35.0010  -10.6360   55.9100 C.3    20  LEU20       0.0297
     61  CG        33.8350  -11.4830   56.3540 C.3    20  LEU20       0.0022
     62  CD1       33.5890  -11.1700   57.8120 C.3    20  LEU20       0.0001
     63  CD2       32.6210  -11.1430   55.5230 C.3    20  LEU20       0.0001
     64  N         40.6070  -11.1200   55.4350 N.3    22  LYS22      -0.1245
     65  CA        41.8020  -11.3450   56.2390 C.3    22  LYS22       0.1561
     66  C         41.5960  -12.3870   57.3270 C.2    22  LYS22       0.2260
     67  O         42.4790  -13.2190   57.5560 O.2    22  LYS22      -0.2867
     68  CB        42.3040  -10.0320   56.8460 C.3    22  LYS22       0.0271
     69  CG        42.6740   -8.9740   55.8040 C.3    22  LYS22       0.0035
     70  CD        42.9400   -7.6070   56.4310 C.3    22  LYS22       0.0206
     71  CE        42.9840   -6.5090   55.3670 C.3    22  LYS22       0.1093
     72  NZ        42.9010   -5.1220   55.9530 N.3    22  LYS22      -0.1314
     73  N         47.8420   -3.1820   51.4630 N.3    48  GLU48      -0.1245
     74  CA        46.9460   -3.6640   52.5160 C.3    48  GLU48       0.1567
     75  C         47.1320   -5.1520   52.7960 C.2    48  GLU48       0.2260
     76  O         47.0590   -5.5970   53.9400 O.2    48  GLU48      -0.2867
     77  CB        45.4800   -3.3730   52.1670 C.3    48  GLU48       0.0388
     78  CG        44.4690   -4.0380   53.1260 C.3    48  GLU48       0.1160
     79  CD        43.0960   -3.3570   53.1400 C.2    48  GLU48       0.3649
     80  OE1       42.3330   -3.5980   54.0990 O.co2  48  GLU48      -0.2457
     81  OE2       42.7810   -2.5890   52.2010 O.co2  48  GLU48      -0.2457
     82  N         38.0080   -4.3000   46.5290 N.3   103  GLU103     -0.1245
     83  CA        37.5690   -3.1850   45.6810 C.3   103  GLU103      0.1567
     84  C         37.3920   -3.6260   44.2270 C.2   103  GLU103      0.2260
     85  O         38.0720   -3.1190   43.3370 O.2   103  GLU103     -0.2867
     86  CB        38.5460   -2.0080   45.7530 C.3   103  GLU103      0.0388
     87  CG        39.0430   -1.6800   47.1750 C.3   103  GLU103      0.1160
     88  CD        38.0310   -0.9330   48.0310 C.2   103  GLU103      0.3649
     89  OE1       37.0210   -0.4300   47.5070 O.co2 103  GLU103     -0.2457
     90  OE2       38.2720   -0.8410   49.2430 O.co2 103  GLU103     -0.2457
     91  N         26.5540   -6.3190   54.4870 N.3   156  PHE156     -0.1241
     92  CA        26.6110   -5.5720   55.7360 C.3   156  PHE156      0.1605
     93  C         25.5130   -4.5030   55.6930 C.2   156  PHE156      0.2264
     94  O         24.9700   -4.1980   54.6240 O.2   156  PHE156     -0.2867
     95  CB        27.9850   -4.9030   55.9050 C.3   156  PHE156      0.0534
     96  CG        29.1110   -5.8630   56.2320 C.ar  156  PHE156     -0.0203
     97  CD1       29.4470   -6.1410   57.5530 C.ar  156  PHE156     -0.0042
     98  CD2       29.8450   -6.4740   55.2230 C.ar  156  PHE156     -0.0042
     99  CE1       30.4880   -7.0300   57.8610 C.ar  156  PHE156     -0.0003
    100  CE2       30.9000   -7.3600   55.5250 C.ar  156  PHE156     -0.0003
    101  CZ        31.2190   -7.6360   56.8330 C.ar  156  PHE156     -0.0000
    102  N         29.3410   -5.0250   62.1390 N.3   185  TYR185     -0.1241
    103  CA        30.1140   -6.2280   61.8010 C.3   185  TYR185      0.1605
    104  C         29.2530   -7.4850   61.7050 C.2   185  TYR185      0.2264
    105  O         29.7690   -8.5700   61.4790 O.2   185  TYR185     -0.2867
    106  CB        31.2690   -6.4550   62.7800 C.3   185  TYR185      0.0534
    107  CG        32.1150   -5.2350   63.0170 C.ar  185  TYR185     -0.0201
    108  CD1       32.4660   -4.3990   61.9720 C.ar  185  TYR185     -0.0009
    109  CD2       32.5630   -4.9180   64.2910 C.ar  185  TYR185     -0.0009
    110  CE1       33.2360   -3.2740   62.1850 C.ar  185  TYR185      0.0417
    111  CE2       33.3450   -3.7970   64.5190 C.ar  185  TYR185      0.0417
    112  CZ        33.6680   -2.9760   63.4650 C.ar  185  TYR185      0.1957
    113  OH        34.4270   -1.8560   63.6880 O.3   185  TYR185     -0.2866
    114  N         29.4150  -11.0920   64.1400 N.3   202  PRO202     -0.2102
    115  CA        30.7440  -10.6150   63.7560 C.3   202  PRO202      0.1504
    116  C         31.7560  -11.7240   63.9590 C.2   202  PRO202      0.2576
    117  O         31.6600  -12.4330   64.9450 O.2   202  PRO202     -0.2718
    118  CB        31.0030   -9.4860   64.7540 C.3   202  PRO202      0.0282
    119  CG        29.6490   -8.9840   65.0850 C.3   202  PRO202      0.0208
    120  CD        28.7830  -10.2070   65.1340 C.3   202  PRO202      0.0893
    121  N         32.6840  -11.9080   63.0310 N.am  203  ILE203     -0.1966
    122  CA        33.6880  -12.9460   63.2200 C.3   203  ILE203      0.1727
    123  C         34.6560  -12.4770   64.2990 C.2   203  ILE203      0.2616
    124  O         34.6540  -11.2980   64.6600 O.2   203  ILE203     -0.2715
    125  CB        34.4260  -13.2830   61.9160 C.3   203  ILE203      0.0290
    126  CG1       35.0760  -12.0330   61.3460 C.3   203  ILE203      0.0022
    127  CG2       33.4710  -13.9290   60.9010 C.3   203  ILE203      0.0023
    128  CD1       36.5310  -12.2030   61.1670 C.3   203  ILE203      0.0001
    129  N         35.4570  -13.3950   64.8310 N.am  204  LEU204     -0.1977
    130  CA        36.4170  -13.0500   65.8830 C.3   204  LEU204      0.1596
    131  C         37.6460  -12.3470   65.3190 C.2   204  LEU204      0.2287
    132  O         38.6000  -13.0030   64.9010 O.2   204  LEU204     -0.2864
    133  CB        36.8580  -14.3000   66.6430 C.3   204  LEU204      0.0297
    134  CG        35.7640  -15.2320   67.1550 C.3   204  LEU204      0.0022
    135  CD1       36.3770  -16.3940   67.9300 C.3   204  LEU204      0.0001
    136  CD2       34.7830  -14.4710   68.0200 C.3   204  LEU204      0.0001
@<TRIPOS>BOND
     1    85    84    2
     2    84    83    1
     3    83    86    1
     4    83    82    1
     5    86    87    1
     6    87    88    1
     7    89    88   ar
     8    88    90   ar
     9    36    35    1
    10    36    37    1
    11    73    74    1
    12    35    34    1
    13    77    74    1
    14    77    78    1
    15    81    79   ar
    16    74    75    1
    17    75    76    2
    18    34    33    1
    19    43    42    1
    20     8     7    1
    21     8     9    1
    22    33    30    1
    23    78    79    1
    24    79    80   ar
    25     7     6    1
    26     1     2    1
    27     5     6    1
    28     5     2    1
    29     2     3    1
    30    42    39    1
    31    39    38    1
    32    39    40    1
    33    32    31    2
    34    38    31   am
    35    31    30    1
    36    30    29    1
    37    91    92    1
    38    94    93    2
    39    98   100   ar
    40    98    96   ar
    41    41    40    2
    42    71    72    1
    43    71    70    1
    44    64    65    1
    45    40    44   am
    46     3    10   am
    47     3     4    2
    48    29    27   am
    49    63    61    1
    50   100   101   ar
    51    24    23    1
    52    93    92    1
    53    92    95    1
    54    69    70    1
    55    69    68    1
    56    58    59    2
    57    58    57    1
    58    95    96    1
    59    60    61    1
    60    60    57    1
    61    10    11    1
    62    23    20    1
    63    96    97   ar
    64    65    68    1
    65    65    66    1
    66    61    62    1
    67    44    45    1
    68    57    56    1
    69    27    28    2
    70    27    26    1
    71   101    99   ar
    72    56    46   am
    73    19    20    1
    74    19    12   am
    75    66    67    2
    76    20    21    1
    77    25    26    1
    78    25    21   am
    79    11    12    1
    80    11    14    1
    81    97    99   ar
    82    46    45    1
    83    46    47    2
    84    17    18    1
    85    17    16    1
    86    45    48    1
    87    15    16    1
    88    15    14    1
    89    12    13    2
    90    21    22    2
    91    48    49    1
    92    49    51   ar
    93    49    50   ar
    94   127   125    1
    95    51    53   ar
    96    50    52   ar
    97   128   126    1
    98   126   125    1
    99   105   104    2
   100   104   103    1
   101   103   102    1
   102   103   106    1
   103   125   122    1
   104   108   110   ar
   105   108   107   ar
   106   110   112   ar
   107    53    54   ar
   108    52    54   ar
   109   106   107    1
   110    54    55    1
   111   107   109   ar
   112   121   122    1
   113   121   116   am
   114   122   123    1
   115   112   113    1
   116   112   111   ar
   117   115   116    1
   118   115   114    1
   119   115   118    1
   120   116   117    2
   121   114   120    1
   122   109   111   ar
   123   123   124    2
   124   123   129   am
   125   118   119    1
   126   129   130    1
   127   132   131    2
   128   119   120    1
   129   131   130    1
   130   130   133    1
   131   133   134    1
   132   134   135    1
   133   134   136    1
