@<TRIPOS>MOLECULE
tmp/4kfuB00.pdb
 153 148 0 0 0
SMALL
GASTEIGER

@<TRIPOS>ATOM
      1  N         13.6750   68.0700  -52.5890 N.3    11  ARG11      -0.1231
      2  CA        13.0850   69.3930  -52.4130 C.3    11  ARG11       0.1694
      3  C         11.6340   69.4190  -52.8870 C.2    11  ARG11       0.2592
      4  O         11.1680   68.4900  -53.5600 O.2    11  ARG11      -0.2718
      5  CB        13.9160   70.4260  -53.1930 C.3    11  ARG11       0.0321
      6  CG        15.3430   70.5020  -52.7550 C.3    11  ARG11       0.0489
      7  CD        15.9720   71.7710  -53.2520 C.3    11  ARG11       0.2205
      8  NE        17.3740   71.7480  -52.9080 N.pl3  11  ARG11      -0.0865
      9  CZ        18.3630   72.4840  -53.4200 C.cat  11  ARG11       0.5346
     10  NH1       18.2140   73.3460  -54.4140 N.pl3  11  ARG11       0.1354
     11  NH2       19.5670   72.2880  -52.8490 N.pl3  11  ARG11       0.1354
     12  N         10.9110   70.4740  -52.5270 N.am   12  LYS12      -0.1966
     13  CA         9.5500   70.6550  -53.0280 C.3    12  LYS12       0.1728
     14  C          9.5140   70.5830  -54.5570 C.2    12  LYS12       0.2616
     15  O         10.3270   71.2230  -55.2360 O.2    12  LYS12      -0.2715
     16  CB         8.9590   71.9870  -52.5430 C.3    12  LYS12       0.0311
     17  CG         7.5580   72.2530  -53.1010 C.3    12  LYS12       0.0038
     18  CD         6.9700   73.5600  -52.5780 C.3    12  LYS12       0.0206
     19  CE         6.6740   73.4880  -51.0860 C.3    12  LYS12       0.1093
     20  NZ         5.6110   72.4830  -50.7800 N.3    12  LYS12      -0.1314
     21  N          8.5790   69.7810  -55.0670 N.am   13  LYS13      -0.1963
     22  CA         8.3860   69.4890  -56.4990 C.3    13  LYS13       0.1728
     23  C          9.3980   68.5290  -57.1230 C.2    13  LYS13       0.2617
     24  O          9.4300   68.3670  -58.3430 O.2    13  LYS13      -0.2715
     25  CB         8.2510   70.7720  -57.3360 C.3    13  LYS13       0.0311
     26  CG         7.0530   71.6170  -56.9290 C.3    13  LYS13       0.0038
     27  CD         6.9610   72.8740  -57.7610 C.3    13  LYS13       0.0206
     28  CE         5.6410   73.6090  -57.5130 C.3    13  LYS13       0.1093
     29  NZ         5.5930   74.8810  -58.3000 N.3    13  LYS13      -0.1314
     30  N         10.2100   67.8770  -56.2970 N.am   14  SER14      -0.1936
     31  CA        11.2240   66.9290  -56.8160 C.3    14  SER14       0.2055
     32  C         10.6340   65.6390  -57.3980 C.2    14  SER14       0.2644
     33  O         11.2260   65.0040  -58.2870 O.2    14  SER14      -0.2714
     34  CB        12.2060   66.5610  -55.7030 C.3    14  SER14       0.2130
     35  OG        11.5100   65.9690  -54.6170 O.3    14  SER14      -0.2179
     36  N          9.4860   65.2280  -56.8720 N.am   15  GLY15      -0.1939
     37  CA         8.8460   64.0120  -57.3230 C.3    15  GLY15       0.2014
     38  C          8.7570   62.9400  -56.2530 C.2    15  GLY15       0.2639
     39  O          8.5180   61.7700  -56.5570 O.2    15  GLY15      -0.2714
     40  N          8.9350   63.3200  -54.9920 N.am   16  LYS16      -0.1963
     41  CA         8.9570   62.3040  -53.9350 C.3    16  LYS16       0.1728
     42  C          7.5740   61.7100  -53.6470 C.2    16  LYS16       0.2617
     43  O          7.4330   60.4960  -53.4800 O.2    16  LYS16      -0.2715
     44  CB         9.6720   62.8110  -52.6710 C.3    16  LYS16       0.0311
     45  CG         9.0140   63.9780  -51.9550 C.3    16  LYS16       0.0038
     46  CD         9.8920   64.4630  -50.7890 C.3    16  LYS16       0.0206
     47  CE         9.3940   65.7900  -50.2450 C.3    16  LYS16       0.1093
     48  NZ         9.4020   66.8390  -51.3170 N.3    16  LYS16      -0.1314
     49  N          6.5470   62.5510  -53.6180 N.am   17  SER17      -0.1936
     50  CA         5.1980   62.0320  -53.4360 C.3    17  SER17       0.2055
     51  C          4.7660   61.2270  -54.6420 C.2    17  SER17       0.2643
     52  O          4.0350   60.2500  -54.4980 O.2    17  SER17      -0.2714
     53  CB         4.2010   63.1590  -53.1740 C.3    17  SER17       0.2130
     54  OG         4.4340   63.7270  -51.9010 O.3    17  SER17      -0.2179
     55  N          5.2200   61.6410  -55.8280 N.am   18  TYR18      -0.1973
     56  CA         4.9100   60.9330  -57.0720 C.3    18  TYR18       0.1639
     57  C          5.4420   59.5000  -57.0050 C.2    18  TYR18       0.2290
     58  O          4.7660   58.5530  -57.4290 O.2    18  TYR18      -0.2864
     59  CB         5.4960   61.6930  -58.2640 C.3    18  TYR18       0.0560
     60  CG         4.9510   61.2720  -59.6230 C.ar   18  TYR18      -0.0198
     61  CD1        3.8500   61.9130  -60.1800 C.ar   18  TYR18      -0.0009
     62  CD2        5.5460   60.2420  -60.3460 C.ar   18  TYR18      -0.0009
     63  CE1        3.3470   61.5360  -61.4270 C.ar   18  TYR18       0.0417
     64  CE2        5.0560   59.8550  -61.5890 C.ar   18  TYR18       0.0417
     65  CZ         3.9550   60.5050  -62.1210 C.ar   18  TYR18       0.1957
     66  OH         3.4770   60.1140  -63.3530 O.3    18  TYR18      -0.2866
     67  N          3.1390   57.4220  -54.7580 N.3    21  LYS21      -0.1245
     68  CA         1.8880   57.1570  -55.4440 C.3    21  LYS21       0.1561
     69  C          2.0380   56.1590  -56.5780 C.2    21  LYS21       0.2260
     70  O          1.1580   55.3260  -56.7860 O.2    21  LYS21      -0.2867
     71  CB         1.3000   58.4630  -55.9830 C.3    21  LYS21       0.0271
     72  CG         0.9280   59.4580  -54.9030 C.3    21  LYS21       0.0035
     73  CD         0.5460   60.8040  -55.4960 C.3    21  LYS21       0.0206
     74  CE         0.3880   61.8560  -54.4060 C.3    21  LYS21       0.1093
     75  NZ         0.3910   63.2400  -54.9640 N.3    21  LYS21      -0.1314
     76  N         -1.2240   67.4120  -45.6380 N.3    41  ASN41      -0.1240
     77  CA        -1.4970   68.3640  -46.7140 C.3    41  ASN41       0.1653
     78  C         -2.9730   68.4000  -47.0860 C.2    41  ASN41       0.2266
     79  O         -3.4600   67.5240  -47.8060 O.2    41  ASN41      -0.2867
     80  CB        -0.6630   68.0190  -47.9470 C.3    41  ASN41       0.1155
     81  CG         0.5030   68.9610  -48.1440 C.2    41  ASN41       0.2627
     82  OD1        0.6130   69.6220  -49.1790 O.2    41  ASN41      -0.2716
     83  ND2        1.3800   69.0360  -47.1470 N.am   41  ASN41      -0.0877
     84  N         -4.5630   64.9070  -50.6110 N.3    43  GLU43      -0.1245
     85  CA        -3.7280   64.5130  -51.7350 C.3    43  GLU43       0.1567
     86  C         -3.8010   63.0130  -51.9860 C.2    43  GLU43       0.2260
     87  O         -3.7000   62.5580  -53.1280 O.2    43  GLU43      -0.2867
     88  CB        -2.2740   64.9250  -51.4870 C.3    43  GLU43       0.0388
     89  CG        -1.3800   64.7000  -52.6880 C.3    43  GLU43       0.1160
     90  CD         0.0720   65.0760  -52.4320 C.2    43  GLU43       0.3649
     91  OE1        0.3830   65.6480  -51.3630 O.co2  43  GLU43      -0.2457
     92  OE2        0.9050   64.7900  -53.3150 O.co2  43  GLU43      -0.2457
     93  N          4.1430   61.1830  -45.1580 N.3    94  ASP94      -0.1225
     94  CA         4.5630   62.1190  -46.2010 C.3    94  ASP94       0.1805
     95  C          4.6700   63.5080  -45.6260 C.2    94  ASP94       0.2597
     96  O          3.6540   64.1170  -45.2990 O.2    94  ASP94      -0.2718
     97  CB         3.6130   62.1070  -47.3990 C.3    94  ASP94       0.1424
     98  CG         4.2770   62.6160  -48.6670 C.2    94  ASP94       0.3668
     99  OD1        5.3650   63.2250  -48.5640 O.co2  94  ASP94      -0.2456
    100  OD2        3.7300   62.3970  -49.7730 O.co2  94  ASP94      -0.2456
    101  N          5.9030   64.0100  -45.6070 N.am   95  GLU95      -0.1979
    102  CA         6.3590   65.0600  -44.7090 C.3    95  GLU95       0.1602
    103  C          6.3810   64.4290  -43.3280 C.2    95  GLU95       0.2287
    104  O          5.3800   64.4280  -42.6060 O.2    95  GLU95      -0.2864
    105  CB         5.4830   66.3150  -44.7340 C.3    95  GLU95       0.0415
    106  CG         5.4430   67.0050  -46.0740 C.3    95  GLU95       0.1163
    107  CD         6.7360   67.6070  -46.5200 C.2    95  GLU95       0.3649
    108  OE1        7.6720   67.7920  -45.6980 O.co2  95  GLU95      -0.2457
    109  OE2        6.7650   68.0000  -47.6970 O.co2  95  GLU95      -0.2457
    110  N         12.0800   67.1130  -47.0650 N.3   129  GLN129     -0.1245
    111  CA        12.5870   68.0030  -48.1260 C.3   129  GLN129      0.1566
    112  C         14.1080   68.1440  -48.1620 C.2   129  GLN129      0.2260
    113  O         14.7180   68.1540  -49.2430 O.2   129  GLN129     -0.2867
    114  CB        11.9760   69.4010  -47.9920 C.3   129  GLN129      0.0367
    115  CG        10.4730   69.4570  -48.1720 C.3   129  GLN129      0.0905
    116  CD         9.9690   70.8890  -48.2940 C.2   129  GLN129      0.2608
    117  OE1       10.7420   71.8400  -48.1790 O.2   129  GLN129     -0.2717
    118  NE2        8.6700   71.0460  -48.5270 N.am  129  GLN129     -0.0878
    119  N         13.4990   64.4740  -61.8930 N.3   177  TYR177     -0.1241
    120  CA        12.7420   63.2470  -61.6020 C.3   177  TYR177      0.1605
    121  C         13.6030   61.9810  -61.5700 C.2   177  TYR177      0.2264
    122  O         13.0920   60.8890  -61.3040 O.2   177  TYR177     -0.2867
    123  CB        11.5570   63.0520  -62.5350 C.3   177  TYR177      0.0534
    124  CG        10.6370   64.2460  -62.6240 C.ar  177  TYR177     -0.0201
    125  CD1       10.2960   64.9780  -61.4960 C.ar  177  TYR177     -0.0009
    126  CD2       10.1280   64.6560  -63.8480 C.ar  177  TYR177     -0.0009
    127  CE1        9.4720   66.0790  -61.5800 C.ar  177  TYR177      0.0417
    128  CE2        9.2970   65.7540  -63.9420 C.ar  177  TYR177      0.0417
    129  CZ         8.9740   66.4620  -62.8160 C.ar  177  TYR177      0.1957
    130  OH         8.1400   67.5500  -62.9240 O.3   177  TYR177     -0.2866
    131  N         13.4000   58.5150  -64.3360 N.3   194  PRO194     -0.2102
    132  CA        12.0690   58.9150  -63.8500 C.3   194  PRO194      0.1504
    133  C         11.0470   57.7890  -63.9650 C.2   194  PRO194      0.2576
    134  O         11.0740   57.0210  -64.9290 O.2   194  PRO194     -0.2718
    135  CB        11.6780   60.0600  -64.7900 C.3   194  PRO194      0.0282
    136  CG        12.9850   60.6700  -65.1920 C.3   194  PRO194      0.0208
    137  CD        13.9320   59.4730  -65.3330 C.3   194  PRO194      0.0893
    138  N         10.1690   57.6730  -62.9740 N.am  195  ILE195     -0.1966
    139  CA         9.0550   56.7250  -63.0510 C.3   195  ILE195      0.1727
    140  C          8.1520   57.0970  -64.2120 C.2   195  ILE195      0.2616
    141  O          7.8760   58.2760  -64.4330 O.2   195  ILE195     -0.2715
    142  CB         8.1990   56.7750  -61.7730 C.3   195  ILE195      0.0290
    143  CG1        9.0780   56.5430  -60.5570 C.3   195  ILE195      0.0022
    144  CG2        7.0660   55.7450  -61.8280 C.3   195  ILE195      0.0023
    145  CD1        9.8230   55.2250  -60.5820 C.3   195  ILE195      0.0001
    146  N          7.6840   56.0970  -64.9530 N.am  196  LEU196     -0.1977
    147  CA         6.7430   56.3300  -66.0490 C.3   196  LEU196      0.1596
    148  C          5.3950   55.6760  -65.7580 C.2   196  LEU196      0.2287
    149  O          5.3100   54.7630  -64.9330 O.2   196  LEU196     -0.2864
    150  CB         7.3240   55.8160  -67.3790 C.3   196  LEU196      0.0297
    151  CG         8.4910   56.6110  -67.9630 C.3   196  LEU196      0.0022
    152  CD1        9.0140   55.8790  -69.1770 C.3   196  LEU196      0.0001
    153  CD2        8.0810   58.0050  -68.3650 C.3   196  LEU196      0.0001
@<TRIPOS>BOND
     1   152   151    1
     2   153   151    1
     3   151   150    1
     4   150   147    1
     5   147   148    1
     6   147   146    1
     7   148   149    2
     8   137   136    1
     9   137   131    1
    10   136   135    1
    11   146   140   am
    12   134   133    2
    13   135   132    1
    14   141   140    2
    15   131   132    1
    16   140   139    1
    17   133   132    1
    18   133   138   am
    19   128   126   ar
    20   128   129   ar
    21   126   124   ar
    22    66    65    1
    23   139   138    1
    24   139   142    1
    25   130   129    1
    26   129   127   ar
    27   124   123    1
    28   124   125   ar
    29   123   120    1
    30    65    64   ar
    31    65    63   ar
    32   119   120    1
    33   144   142    1
    34   142   143    1
    35   120   121    1
    36    64    62   ar
    37   127   125   ar
    38   121   122    2
    39    63    61   ar
    40   145   143    1
    41    62    60   ar
    42    61    60   ar
    43    60    59    1
    44    24    23    2
    45    29    28    1
    46    33    32    2
    47    59    56    1
    48    27    28    1
    49    27    26    1
    50    58    57    2
    51    32    36   am
    52    32    31    1
    53    25    26    1
    54    25    22    1
    55    37    36    1
    56    37    38    1
    57    23    22    1
    58    23    30   am
    59    56    57    1
    60    56    55    1
    61    31    30    1
    62    31    34    1
    63    70    69    2
    64    69    68    1
    65    39    38    2
    66    22    21    1
    67    38    40   am
    68    71    68    1
    69    71    72    1
    70    55    51   am
    71    34    35    1
    72    73    72    1
    73    73    74    1
    74    68    67    1
    75    15    14    2
    76    21    14   am
    77    40    41    1
    78    75    74    1
    79    51    52    2
    80    51    50    1
    81    14    13    1
    82    10     9    1
    83    41    42    1
    84    41    44    1
    85    42    49   am
    86    42    43    2
    87    49    50    1
    88     4     3    2
    89    50    53    1
    90     9     8    2
    91     9    11    1
    92    92    90   ar
    93     7     8    1
    94     7     6    1
    95     5     6    1
    96     5     2    1
    97    53    54    1
    98    87    86    2
    99    17    18    1
   100    17    16    1
   101    13    16    1
   102    13    12    1
   103     3    12   am
   104     3     2    1
   105    89    90    1
   106    89    88    1
   107    44    45    1
   108     1     2    1
   109    18    19    1
   110    90    91   ar
   111    86    85    1
   112    45    46    1
   113    85    88    1
   114    85    84    1
   115    48    47    1
   116    19    20    1
   117    46    47    1
   118   100    98   ar
   119   113   112    2
   120    82    81    2
   121    98    99   ar
   122    98    97    1
   123   118   116   am
   124   116   117    2
   125   116   115    1
   126   115   114    1
   127   112   111    1
   128    81    80    1
   129    81    83   am
   130   111   114    1
   131   111   110    1
   132    80    77    1
   133    79    78    2
   134   109   107   ar
   135    97    94    1
   136    78    77    1
   137    77    76    1
   138   107   106    1
   139   107   108   ar
   140    94    95    1
   141    94    93    1
   142   106   105    1
   143    95   101   am
   144    95    96    2
   145   101   102    1
   146   105   102    1
   147   102   103    1
   148   103   104    2
