@<TRIPOS>MOLECULE
tmp/4kg5A00.pdb
 143 133 0 0 0
SMALL
GASTEIGER

@<TRIPOS>ATOM
      1  N         30.1770    2.8230   67.4430 N.3    60  GLY60      -0.1210
      2  CA        30.3110    1.3450   67.3640 C.3    60  GLY60       0.1956
      3  C         31.4010    0.9160   66.4140 C.2    60  GLY60       0.2612
      4  O         32.4890    1.5240   66.4110 O.2    60  GLY60      -0.2717
      5  N         31.1000   -0.0860   65.5680 N.am   61  SER61      -0.1952
      6  CA        32.0520   -0.5770   64.6070 C.3    61  SER61       0.1924
      7  C         32.4270    0.3940   63.5060 C.2    61  SER61       0.2314
      8  O         33.3260    0.1130   62.7900 O.2    61  SER61      -0.2863
      9  CB        31.6140   -1.8360   63.9630 C.3    61  SER61       0.2116
     10  OG        31.5850   -2.8530   64.9370 O.3    61  SER61      -0.2180
     11  N         36.0740    1.1090   63.5240 N.3    64  LYS64      -0.1245
     12  CA        37.0610    0.3080   62.7830 C.3    64  LYS64       0.1561
     13  C         37.6700    1.0730   61.6080 C.2    64  LYS64       0.2260
     14  O         38.7800    0.7540   61.1930 O.2    64  LYS64      -0.2867
     15  CB        36.4640   -1.0240   62.3300 C.3    64  LYS64       0.0271
     16  CG        36.1750   -2.0010   63.5090 C.3    64  LYS64       0.0035
     17  CD        35.3160   -3.1790   63.0840 C.3    64  LYS64       0.0206
     18  CE        34.8280   -3.9480   64.2880 C.3    64  LYS64       0.1093
     19  NZ        34.1570   -5.1950   63.9100 N.3    64  LYS64      -0.1314
     20  N         33.7250  -12.8940   66.8300 N.3   116  LEU116     -0.1231
     21  CA        33.0470  -11.6670   66.5130 C.3   116  LEU116      0.1693
     22  C         33.3370  -10.6120   67.6160 C.2   116  LEU116      0.2591
     23  O         33.6970   -9.4490   67.3050 O.2   116  LEU116     -0.2718
     24  CB        31.5720  -11.9310   66.2650 C.3   116  LEU116      0.0284
     25  CG        30.7060  -10.6970   65.9730 C.3   116  LEU116      0.0019
     26  CD1       31.1110   -9.9190   64.7460 C.3   116  LEU116      0.0001
     27  CD2       29.2940  -11.1560   65.8430 C.3   116  LEU116      0.0001
     28  N         33.2230  -11.0510   68.8760 N.am  117  GLN117     -0.1979
     29  CA        33.5710  -10.2080   70.0620 C.3   117  GLN117      0.1601
     30  C         34.5500  -10.9110   70.9660 C.2   117  GLN117      0.2287
     31  O         34.6890  -12.1100   70.9730 O.2   117  GLN117     -0.2864
     32  CB        32.3170   -9.7890   70.8520 C.3   117  GLN117      0.0394
     33  CG        31.3210   -8.9850   69.9880 C.3   117  GLN117      0.0908
     34  CD        29.8830   -9.0040   70.4790 C.2   117  GLN117      0.2608
     35  OE1       29.2170  -10.0390   70.4680 O.2   117  GLN117     -0.2717
     36  NE2       29.3900   -7.8440   70.8980 N.am  117  GLN117     -0.0878
     37  N         33.9980  -11.5800   59.7050 N.3   147  TYR147     -0.1241
     38  CA        33.9270  -10.2990   60.3120 C.3   147  TYR147      0.1605
     39  C         34.1230  -10.4110   61.8060 C.2   147  TYR147      0.2264
     40  O         33.4160  -11.1900   62.4560 O.2   147  TYR147     -0.2867
     41  CB        32.6030   -9.6290   59.9750 C.3   147  TYR147      0.0534
     42  CG        32.4400   -8.2450   60.5460 C.ar  147  TYR147     -0.0201
     43  CD1       33.0360   -7.1330   59.9410 C.ar  147  TYR147     -0.0009
     44  CD2       31.7250   -8.0450   61.7260 C.ar  147  TYR147     -0.0009
     45  CE1       32.8560   -5.8520   60.4370 C.ar  147  TYR147      0.0417
     46  CE2       31.5320   -6.7580   62.2350 C.ar  147  TYR147      0.0417
     47  CZ        32.1200   -5.6670   61.6120 C.ar  147  TYR147      0.1957
     48  OH        31.9520   -4.3930   62.1740 O.3   147  TYR147     -0.2866
     49  N         27.6550    2.4930   76.2500 N.3   208  VAL208     -0.1231
     50  CA        28.5550    1.3720   76.0950 C.3   208  VAL208      0.1692
     51  C         29.4210    1.2030   77.3680 C.2   208  VAL208      0.2592
     52  O         29.7620    2.1720   77.9570 O.2   208  VAL208     -0.2718
     53  CB        29.4470    1.5410   74.8520 C.3   208  VAL208      0.0266
     54  CG1       30.3970    2.7320   75.0010 C.3   208  VAL208      0.0020
     55  CG2       30.2180    0.2490   74.6000 C.3   208  VAL208      0.0020
     56  N         29.7430   -0.0260   77.7480 N.am  209  SER209     -0.1952
     57  CA        30.6450   -0.3480   78.8940 C.3   209  SER209      0.1924
     58  C         32.1180   -0.5710   78.5250 C.2   209  SER209      0.2314
     59  O         32.4210   -0.9270   77.4040 O.2   209  SER209     -0.2863
     60  CB        30.1850   -1.6580   79.5440 C.3   209  SER209      0.2116
     61  OG        28.8500   -1.5590   80.0180 O.3   209  SER209     -0.2180
     62  N         35.2810   -0.5450   68.6700 N.3   218  TYR218     -0.1241
     63  CA        33.9580    0.0030   68.8170 C.3   218  TYR218      0.1605
     64  C         33.8410    1.2030   69.6930 C.2   218  TYR218      0.2264
     65  O         32.7340    1.5550   70.0990 O.2   218  TYR218     -0.2867
     66  CB        32.9620   -1.0910   69.2770 C.3   218  TYR218      0.0534
     67  CG        33.2350   -1.7910   70.5980 C.ar  218  TYR218     -0.0201
     68  CD1       32.8810   -1.2010   71.8200 C.ar  218  TYR218     -0.0009
     69  CD2       33.7670   -3.1010   70.6280 C.ar  218  TYR218     -0.0009
     70  CE1       33.1020   -1.8640   73.0420 C.ar  218  TYR218      0.0417
     71  CE2       33.9750   -3.7770   71.8400 C.ar  218  TYR218      0.0417
     72  CZ        33.6500   -3.1590   73.0420 C.ar  218  TYR218      0.1957
     73  OH        33.9150   -3.7980   74.2490 O.3   218  TYR218     -0.2866
     74  N         22.9130   -9.1370   58.7650 N.3   286  ASN286     -0.1240
     75  CA        23.8000   -9.9230   59.5840 C.3   286  ASN286      0.1653
     76  C         23.9250  -11.3840   59.2280 C.2   286  ASN286      0.2266
     77  O         25.0250  -11.9550   59.3500 O.2   286  ASN286     -0.2867
     78  CB        23.4380   -9.7760   61.0490 C.3   286  ASN286      0.1155
     79  CG        23.8740   -8.4790   61.5990 C.2   286  ASN286      0.2627
     80  OD1       24.6680   -7.7770   60.9900 O.2   286  ASN286     -0.2716
     81  ND2       23.4070   -8.1540   62.7810 N.am  286  ASN286     -0.0877
     82  N         27.8160  -11.3150   58.8110 N.3   290  LEU290     -0.1245
     83  CA        28.5020  -12.0120   59.8460 C.3   290  LEU290      0.1561
     84  C         28.9330  -13.4400   59.4680 C.2   290  LEU290      0.2260
     85  O         29.4870  -14.1280   60.3170 O.2   290  LEU290     -0.2867
     86  CB        27.6630  -12.0920   61.1100 C.3   290  LEU290      0.0270
     87  CG        27.2260  -10.7000   61.6860 C.3   290  LEU290      0.0019
     88  CD1       26.4020  -10.8570   62.9690 C.3   290  LEU290      0.0001
     89  CD2       28.3620   -9.7340   61.9340 C.3   290  LEU290      0.0001
     90  N         29.0660   -0.0340   58.4010 N.3   313  THR313     -0.1203
     91  CA        28.0390   -0.0710   59.4070 C.3   313  THR313      0.1994
     92  C         28.6520   -0.2260   60.7960 C.2   313  THR313      0.2618
     93  O         29.7760   -0.7120   60.9810 O.2   313  THR313     -0.2717
     94  CB        27.0670   -1.2380   59.2000 C.3   313  THR313      0.1784
     95  OG1       27.7990   -2.4210   59.3520 O.3   313  THR313     -0.2211
     96  CG2       26.5030   -1.2390   57.8110 C.3   313  THR313      0.0376
     97  N         27.9050    0.2160   61.7700 N.am  314  GLY314     -0.1942
     98  CA        28.3080    0.0080   63.1440 C.3   314  GLY314      0.2014
     99  C         27.1730    0.0770   64.1200 C.2   314  GLY314      0.2639
    100  O         26.2080    0.7550   63.8720 O.2   314  GLY314     -0.2714
    101  N         27.2940   -0.6670   65.2170 N.am  315  ALA315     -0.1963
    102  CA        26.3130   -0.6790   66.2770 C.3   315  ALA315      0.1728
    103  C         26.9470   -0.8300   67.6670 C.2   315  ALA315      0.2617
    104  O         28.0290   -1.4380   67.8280 O.2   315  ALA315     -0.2715
    105  CB        25.3630   -1.8240   66.0490 C.3   315  ALA315      0.0334
    106  N         26.2520   -0.2770   68.6560 N.am  316  THR316     -0.1937
    107  CA        26.4520   -0.6550   70.0670 C.3   316  THR316      0.2028
    108  C         25.0730   -1.1400   70.5380 C.2   316  THR316      0.2642
    109  O         24.0840   -1.1930   69.7250 O.2   316  THR316     -0.2714
    110  CB        27.0600    0.4670   70.9690 C.3   316  THR316      0.1808
    111  OG1       26.2520    1.6370   70.9860 O.3   316  THR316     -0.2208
    112  CG2       28.4070    0.9100   70.4680 C.3   316  THR316      0.0379
    113  N         24.9830   -1.5050   71.8210 N.am  317  GLY317     -0.1954
    114  CA        23.7200   -1.9140   72.4230 C.3   317  GLY317      0.1869
    115  C         22.6050   -0.8770   72.1960 C.2   317  GLY317      0.2309
    116  O         21.4280   -1.2350   71.8910 O.2   317  GLY317     -0.2863
    117  N         19.7940    0.8690   68.0050 N.3   340  ASN340     -0.1240
    118  CA        20.3290   -0.1240   67.0680 C.3   340  ASN340      0.1653
    119  C         19.2060   -0.7610   66.2500 C.2   340  ASN340      0.2266
    120  O         18.4760   -1.5890   66.7650 O.2   340  ASN340     -0.2867
    121  CB        21.1130   -1.1840   67.8020 C.3   340  ASN340      0.1155
    122  CG        21.7250   -2.1910   66.8710 C.2   340  ASN340      0.2627
    123  OD1       21.7100   -2.0430   65.6620 O.2   340  ASN340     -0.2716
    124  ND2       22.2690   -3.2320   67.4390 N.am  340  ASN340     -0.0877
    125  N         20.5260   -3.1170   59.8620 N.3   343  ASN343     -0.1240
    126  CA        21.4370   -2.6150   58.8750 C.3   343  ASN343      0.1653
    127  C         20.7860   -2.4270   57.4740 C.2   343  ASN343      0.2266
    128  O         20.8960   -1.3700   56.9250 O.2   343  ASN343     -0.2867
    129  CB        22.6590   -3.5300   58.8030 C.3   343  ASN343      0.1155
    130  CG        23.5940   -3.3840   60.0180 C.2   343  ASN343      0.2627
    131  OD1       23.7340   -2.3000   60.5910 O.2   343  ASN343     -0.2716
    132  ND2       24.2300   -4.4980   60.4130 N.am  343  ASN343     -0.0877
    133  N         19.2460    0.8360   57.0950 N.3   346  ARG346     -0.1245
    134  CA        20.1760    1.9820   57.0270 C.3   346  ARG346      0.1563
    135  C         20.6570    2.1520   55.6070 C.2   346  ARG346      0.2260
    136  O         20.6510    3.2570   55.0510 O.2   346  ARG346     -0.2867
    137  CB        21.4280    1.7510   57.8680 C.3   346  ARG346      0.0307
    138  CG        21.1520    1.6530   59.3310 C.3   346  ARG346      0.0489
    139  CD        22.3960    1.2930   60.1510 C.3   346  ARG346      0.2205
    140  NE        22.0860    0.5180   61.3710 N.pl3 346  ARG346     -0.0865
    141  CZ        22.9890    0.0390   62.2230 C.cat 346  ARG346      0.5346
    142  NH1       24.2700    0.3070   62.0630 N.pl3 346  ARG346      0.1354
    143  NH2       22.6270   -0.6840   63.2720 N.pl3 346  ARG346      0.1354
@<TRIPOS>BOND
     1   136   135    2
     2   135   134    1
     3   128   127    2
     4   134   133    1
     5   134   137    1
     6   127   126    1
     7    96    94    1
     8   137   138    1
     9    90    91    1
    10    74    75    1
    11   129   126    1
    12   129   130    1
    13    82    83    1
    14   126   125    1
    15    94    95    1
    16    94    91    1
    17    76    77    2
    18    76    75    1
    19   138   139    1
    20    91    92    1
    21    84    83    1
    22    84    85    2
    23    75    78    1
    24    37    38    1
    25    83    86    1
    26    43    45   ar
    27    43    42   ar
    28    41    38    1
    29    41    42    1
    30   130   132   am
    31   130   131    2
    32   139   140    1
    33    38    39    1
    34    45    47   ar
    35    42    44   ar
    36    92    93    2
    37    92    97   am
    38    80    79    2
    39    78    79    1
    40    86    87    1
    41    14    13    2
    42   140   141    2
    43    79    81   am
    44    13    12    1
    45    47    48    1
    46    47    46   ar
    47    87    89    1
    48    87    88    1
    49    44    46   ar
    50    97    98    1
    51    39    40    2
    52   142   141    1
    53   141   143    1
    54    15    12    1
    55    15    16    1
    56    12    11    1
    57     8     7    2
    58    17    16    1
    59    17    18    1
    60    98    99    1
    61     7     6    1
    62   100    99    2
    63    19    18    1
    64     9     6    1
    65     9    10    1
    66    99   101   am
    67     6     5    1
    68    26    25    1
    69   101   102    1
    70     5     3   am
    71   123   122    2
    72    27    25    1
    73    25    24    1
    74   105   102    1
    75   119   120    2
    76   119   118    1
    77    24    21    1
    78   102   103    1
    79     4     3    2
    80     3     2    1
    81    21    20    1
    82    21    22    1
    83   122   124   am
    84   122   121    1
    85   118   121    1
    86   118   117    1
    87    23    22    2
    88     2     1    1
    89    22    28   am
    90   103   104    2
    91   103   106   am
    92   106   107    1
    93    62    63    1
    94    63    66    1
    95    63    64    1
    96    28    29    1
    97    66    67    1
    98    64    65    2
    99   109   108    2
   100    33    34    1
   101    33    32    1
   102    29    32    1
   103    29    30    1
   104   107   108    1
   105   107   110    1
   106    35    34    2
   107   112   110    1
   108    34    36   am
   109   108   113   am
   110    67    69   ar
   111    67    68   ar
   112    69    71   ar
   113    30    31    2
   114   110   111    1
   115    68    70   ar
   116   113   114    1
   117    71    72   ar
   118   116   115    2
   119   115   114    1
   120    70    72   ar
   121    72    73    1
   122    55    53    1
   123    53    54    1
   124    53    50    1
   125    50    49    1
   126    50    51    1
   127    51    56   am
   128    51    52    2
   129    59    58    2
   130    56    57    1
   131    58    57    1
   132    57    60    1
   133    60    61    1
