@<TRIPOS>MOLECULE
tmp/4kg9A00.pdb
 138 134 0 0 0
SMALL
GASTEIGER

@<TRIPOS>ATOM
      1  N         32.0760  -10.1050  -20.9170 N.3    38  MET38      -0.1245
      2  CA        33.3060  -10.8320  -21.2060 C.3    38  MET38       0.1570
      3  C         33.0090  -12.3160  -21.0270 C.2    38  MET38       0.2261
      4  O         32.5130  -12.7260  -19.9770 O.2    38  MET38      -0.2867
      5  CB        34.4180  -10.4180  -20.2410 C.3    38  MET38       0.0387
      6  CG        35.7760  -11.0280  -20.5700 C.3    38  MET38       0.0595
      7  SD        36.9870  -10.8390  -19.2330 S.3    38  MET38      -0.1393
      8  CE        37.5830   -9.1840  -19.5390 C.3    38  MET38       0.0692
      9  N         34.6220  -16.4020  -21.6630 N.3    40  MET40      -0.1245
     10  CA        35.8240  -17.1770  -21.9470 C.3    40  MET40       0.1570
     11  C         35.7090  -18.6010  -21.4140 C.2    40  MET40       0.2261
     12  O         35.0380  -18.8460  -20.4160 O.2    40  MET40      -0.2867
     13  CB        37.0360  -16.5110  -21.2990 C.3    40  MET40       0.0387
     14  CG        36.9710  -16.5100  -19.7730 C.3    40  MET40       0.0595
     15  SD        38.2780  -15.5410  -19.0190 S.3    40  MET40      -0.1393
     16  CE        37.4770  -13.9690  -18.9340 C.3    40  MET40       0.0692
     17  N         36.6780  -21.8290  -19.3600 N.3    42  ARG42      -0.1245
     18  CA        37.4160  -22.0550  -18.1150 C.3    42  ARG42       0.1563
     19  C         37.3000  -23.5350  -17.7370 C.2    42  ARG42       0.2260
     20  O         36.6300  -24.2940  -18.4320 O.2    42  ARG42      -0.2867
     21  CB        36.8470  -21.1760  -16.9950 C.3    42  ARG42       0.0307
     22  CG        36.9300  -19.6790  -17.2840 C.3    42  ARG42       0.0489
     23  CD        38.3770  -19.2220  -17.3980 C.3    42  ARG42       0.2205
     24  NE        39.0300  -19.1390  -16.0950 N.pl3  42  ARG42      -0.0865
     25  CZ        39.2080  -18.0090  -15.4150 C.cat  42  ARG42       0.5346
     26  NH1       38.7860  -16.8550  -15.9110 N.pl3  42  ARG42       0.1354
     27  NH2       39.8090  -18.0340  -14.2320 N.pl3  42  ARG42       0.1354
     28  N         36.6650  -25.0490  -14.1460 N.3    44  TYR44      -0.1241
     29  CA        36.4020  -25.2110  -12.7170 C.3    44  TYR44       0.1605
     30  C         37.6750  -25.1920  -11.8750 C.2    44  TYR44       0.2264
     31  O         37.8240  -25.9750  -10.9360 O.2    44  TYR44      -0.2867
     32  CB        35.6280  -26.5100  -12.4540 C.3    44  TYR44       0.0534
     33  CG        34.1800  -26.4470  -12.8900 C.ar   44  TYR44      -0.0201
     34  CD1       33.7890  -26.8680  -14.1620 C.ar   44  TYR44      -0.0009
     35  CD2       33.2080  -25.9030  -12.0500 C.ar   44  TYR44      -0.0009
     36  CE1       32.4620  -26.7420  -14.5890 C.ar   44  TYR44       0.0417
     37  CE2       31.8850  -25.7710  -12.4640 C.ar   44  TYR44       0.0417
     38  CZ        31.5190  -26.1890  -13.7340 C.ar   44  TYR44       0.1957
     39  OH        30.2160  -26.0280  -14.1490 O.3    44  TYR44      -0.2866
     40  N         31.7440  -12.6830  -17.2710 N.3    51  PHE51      -0.1241
     41  CA        32.0120  -11.5180  -16.4330 C.3    51  PHE51       0.1605
     42  C         31.4770  -10.2090  -16.9840 C.2    51  PHE51       0.2264
     43  O         31.2640  -10.0630  -18.1850 O.2    51  PHE51      -0.2867
     44  CB        33.5210  -11.3350  -16.2250 C.3    51  PHE51       0.0534
     45  CG        34.2120  -12.5380  -15.6620 C.ar   51  PHE51      -0.0203
     46  CD1       34.5360  -13.6170  -16.4800 C.ar   51  PHE51      -0.0042
     47  CD2       34.5410  -12.5930  -14.3110 C.ar   51  PHE51      -0.0042
     48  CE1       35.1830  -14.7390  -15.9610 C.ar   51  PHE51      -0.0003
     49  CE2       35.1860  -13.7100  -13.7760 C.ar   51  PHE51      -0.0003
     50  CZ        35.5100  -14.7850  -14.6030 C.ar   51  PHE51      -0.0000
     51  N         22.5830  -15.4850  -12.6270 N.3    85  ARG85      -0.1245
     52  CA        23.2690  -15.3400  -11.3470 C.3    85  ARG85       0.1563
     53  C         23.3920  -13.8450  -11.0950 C.2    85  ARG85       0.2260
     54  O         23.5510  -13.0590  -12.0310 O.2    85  ARG85      -0.2867
     55  CB        24.6690  -15.9610  -11.3740 C.3    85  ARG85       0.0307
     56  CG        24.7150  -17.4800  -11.5300 C.3    85  ARG85       0.0489
     57  CD        26.1580  -17.9510  -11.4280 C.3    85  ARG85       0.2205
     58  NE        26.3380  -19.3670  -11.7440 N.pl3  85  ARG85      -0.0865
     59  CZ        26.0140  -20.3730  -10.9360 C.cat  85  ARG85       0.5346
     60  NH1       25.4830  -20.1320   -9.7440 N.pl3  85  ARG85       0.1354
     61  NH2       26.2390  -21.6260  -11.3200 N.pl3  85  ARG85       0.1354
     62  N         25.1750  -10.4540   -9.0250 N.3    87  ILE87      -0.1245
     63  CA        26.4410   -9.9820   -8.4770 C.3    87  ILE87       0.1561
     64  C         26.2730   -8.5750   -7.9140 C.2    87  ILE87       0.2260
     65  O         25.3060   -7.8760   -8.2250 O.2    87  ILE87      -0.2867
     66  CB        27.5720   -9.9340   -9.5440 C.3    87  ILE87       0.0252
     67  CG1       27.1720   -9.0150  -10.7010 C.3    87  ILE87       0.0019
     68  CG2       27.8830  -11.3360  -10.0390 C.3    87  ILE87       0.0019
     69  CD1       28.3170   -8.7160  -11.6630 C.3    87  ILE87       0.0001
     70  N         41.7080   -1.6780  -10.3760 N.3    94  LYS94      -0.1231
     71  CA        42.3270   -2.9540  -10.0130 C.3    94  LYS94       0.1693
     72  C         41.3740   -4.1550  -10.0500 C.2    94  LYS94       0.2591
     73  O         41.8180   -5.3030  -10.0890 O.2    94  LYS94      -0.2718
     74  CB        42.9700   -2.8530   -8.6300 C.3    94  LYS94       0.0285
     75  CG        44.2100   -1.9740   -8.5930 C.3    94  LYS94       0.0035
     76  CD        44.8280   -1.9650   -7.2050 C.3    94  LYS94       0.0206
     77  CE        46.1110   -1.1500   -7.1730 C.3    94  LYS94       0.1093
     78  NZ        46.7120   -1.1170   -5.8070 N.3    94  LYS94      -0.1314
     79  N         40.0710   -3.8870  -10.0200 N.am   95  GLU95      -0.1979
     80  CA        39.0540   -4.9380  -10.0830 C.3    95  GLU95       0.1602
     81  C         37.9850   -4.4080  -11.0360 C.2    95  GLU95       0.2287
     82  O         36.8520   -4.1250  -10.6320 O.2    95  GLU95      -0.2864
     83  CB        38.4580   -5.2090   -8.6870 C.3    95  GLU95       0.0415
     84  CG        39.4880   -5.7690   -7.6930 C.3    95  GLU95       0.1163
     85  CD        38.8960   -6.2180   -6.3610 C.2    95  GLU95       0.3649
     86  OE1       39.6400   -6.8480   -5.5780 O.co2  95  GLU95      -0.2457
     87  OE2       37.7090   -5.9500   -6.0830 O.co2  95  GLU95      -0.2457
     88  N         36.4280   -5.9280  -13.5130 N.3    97  ASP97      -0.1225
     89  CA        35.4230   -6.8710  -13.9910 C.3    97  ASP97       0.1805
     90  C         35.0580   -7.7960  -12.8380 C.2    97  ASP97       0.2598
     91  O         35.8050   -7.9220  -11.8680 O.2    97  ASP97      -0.2718
     92  CB        35.8770   -7.6640  -15.2360 C.3    97  ASP97       0.1424
     93  CG        37.0150   -8.6330  -14.9670 C.2    97  ASP97       0.3668
     94  OD1       37.0810   -9.2270  -13.8740 O.co2  97  ASP97      -0.2456
     95  OD2       37.8340   -8.8310  -15.8870 O.co2  97  ASP97      -0.2456
     96  N         33.8960   -8.4240  -12.9370 N.am   98  TRP98      -0.1962
     97  CA        33.4240   -9.2980  -11.8770 C.3    98  TRP98       0.1771
     98  C         32.3920  -10.2480  -12.4620 C.2    98  TRP98       0.2620
     99  O         31.5820   -9.8540  -13.3030 O.2    98  TRP98      -0.2715
    100  CB        32.7990   -8.4410  -10.7770 C.3    98  TRP98       0.0590
    101  CG        32.5480   -9.1440   -9.4790 C.ar   98  TRP98       0.0006
    102  CD1       31.3370   -9.5070   -8.9620 C.ar   98  TRP98       0.0946
    103  CD2       33.5260   -9.4860   -8.4910 C.ar   98  TRP98       0.0152
    104  NE1       31.5000  -10.0450   -7.7050 N.ar   98  TRP98      -0.2442
    105  CE2       32.8340  -10.0440   -7.3920 C.ar   98  TRP98       0.0810
    106  CE3       34.9210   -9.3710   -8.4250 C.ar   98  TRP98       0.0012
    107  CZ2       33.4910  -10.4850   -6.2380 C.ar   98  TRP98       0.0191
    108  CZ3       35.5740   -9.8090   -7.2770 C.ar   98  TRP98       0.0001
    109  CH2       34.8570  -10.3580   -6.1990 C.ar   98  TRP98       0.0015
    110  N         32.4200  -11.4950  -12.0090 N.am   99  GLY99      -0.1940
    111  CA        31.4860  -12.4800  -12.5180 C.3    99  GLY99       0.2014
    112  C         31.8780  -13.8640  -12.0470 C.2    99  GLY99       0.2639
    113  O         32.4420  -14.0110  -10.9610 O.2    99  GLY99      -0.2714
    114  N         31.5950  -14.8790  -12.8590 N.am  100  PHE100     -0.1959
    115  CA        31.9230  -16.2470  -12.4820 C.3   100  PHE100      0.1771
    116  C         32.7660  -16.9900  -13.5110 C.2   100  PHE100      0.2620
    117  O         32.4110  -17.0730  -14.6910 O.2   100  PHE100     -0.2715
    118  CB        30.6410  -17.0420  -12.2140 C.3   100  PHE100      0.0574
    119  CG        29.7380  -16.4140  -11.1900 C.ar  100  PHE100     -0.0200
    120  CD1       28.9190  -15.3410  -11.5270 C.ar  100  PHE100     -0.0042
    121  CD2       29.7070  -16.8980   -9.8850 C.ar  100  PHE100     -0.0042
    122  CE1       28.0780  -14.7580  -10.5770 C.ar  100  PHE100     -0.0003
    123  CE2       28.8710  -16.3230   -8.9290 C.ar  100  PHE100     -0.0003
    124  CZ        28.0550  -15.2510   -9.2770 C.ar  100  PHE100     -0.0000
    125  N         33.8870  -17.5310  -13.0510 N.am  101  SER101     -0.1936
    126  CA        34.7800  -18.2920  -13.9110 C.3   101  SER101      0.2055
    127  C         34.0690  -19.5930  -14.2800 C.2   101  SER101      0.2643
    128  O         34.2900  -20.1600  -15.3530 O.2   101  SER101     -0.2714
    129  CB        36.0850  -18.5940  -13.1660 C.3   101  SER101      0.2130
    130  OG        36.9910  -19.3140  -13.9830 O.3   101  SER101     -0.2179
    131  N         33.2050  -20.0510  -13.3780 N.am  102  ASN102     -0.1971
    132  CA        32.4400  -21.2780  -13.5750 C.3   102  ASN102      0.1688
    133  C         30.9490  -20.9360  -13.5230 C.2   102  ASN102      0.2292
    134  O         30.2180  -21.4360  -12.6620 O.2   102  ASN102     -0.2864
    135  CB        32.7800  -22.2820  -12.4670 C.3   102  ASN102      0.1181
    136  CG        34.2720  -22.5490  -12.3560 C.2   102  ASN102      0.2629
    137  OD1       34.7920  -22.7810  -11.2620 O.2   102  ASN102     -0.2716
    138  ND2       34.9660  -22.5310  -13.4890 N.am  102  ASN102     -0.0877
@<TRIPOS>BOND
     1    10     9    1
     2    10    11    1
     3    10    13    1
     4    11    12    2
     5    13    14    1
     6     2     3    1
     7     2     1    1
     8     2     5    1
     9     3     4    2
    10     6     5    1
    11     6     7    1
    12    14    15    1
    13     8     7    1
    14    17    18    1
    15    15    16    1
    16    20    19    2
    17    43    42    2
    18    18    19    1
    19    18    21    1
    20    23    22    1
    21    23    24    1
    22    22    21    1
    23    40    41    1
    24    42    41    1
    25    46    48   ar
    26    46    45   ar
    27    41    44    1
    28    44    45    1
    29    24    25    2
    30    48    50   ar
    31    26    25    1
    32    95    93   ar
    33    45    47   ar
    34    25    27    1
    35   128   127    2
    36    92    93    1
    37    92    89    1
    38    93    94   ar
    39   117   116    2
    40    50    49   ar
    41    36    34   ar
    42    36    38   ar
    43    47    49   ar
    44   127   126    1
    45   127   131   am
    46    34    33   ar
    47    39    38    1
    48    28    29    1
    49    89    88    1
    50    89    90    1
    51   130   129    1
    52   126   129    1
    53   126   125    1
    54    38    37   ar
    55   132   133    1
    56   132   131    1
    57   132   135    1
    58   133   134    2
    59   116   125   am
    60   116   115    1
    61   138   136   am
    62    99    98    2
    63    96    90   am
    64    96    97    1
    65    33    32    1
    66    33    35   ar
    67   114   115    1
    68   114   112   am
    69    90    91    2
    70    29    32    1
    71    29    30    1
    72    51    52    1
    73   111   112    1
    74   111   110    1
    75   115   118    1
    76   135   136    1
    77    37    35   ar
    78    98   110   am
    79    98    97    1
    80   136   137    2
    81   118   119    1
    82   112   113    2
    83    54    53    2
    84    97   100    1
    85    30    31    2
    86    58    57    1
    87    58    59    2
    88    69    67    1
    89    56    57    1
    90    56    55    1
    91   120   119   ar
    92   120   122   ar
    93    55    52    1
    94    52    53    1
    95    61    59    1
    96   119   121   ar
    97    81    82    2
    98    81    80    1
    99    59    60    1
   100   100   101    1
   101    67    66    1
   102   122   124   ar
   103    70    71    1
   104    73    72    2
   105    80    79    1
   106    80    83    1
   107    72    79   am
   108    72    71    1
   109    68    66    1
   110    71    74    1
   111   121   123   ar
   112    66    63    1
   113   101   102   ar
   114   101   103   ar
   115   124   123   ar
   116    62    63    1
   117   102   104   ar
   118    83    84    1
   119    74    75    1
   120    75    76    1
   121   103   106   ar
   122   103   105   ar
   123    63    64    1
   124   106   108   ar
   125    65    64    2
   126   104   105   ar
   127    84    85    1
   128   105   107   ar
   129   108   109   ar
   130    76    77    1
   131    77    78    1
   132    85    87   ar
   133    85    86   ar
   134   107   109   ar
