@<TRIPOS>MOLECULE
tmp/4kgjA01.pdb
 96 96 0 0 0
SMALL
GASTEIGER

@<TRIPOS>ATOM
      1  N        333.5220  -30.0720  -23.3130 N.3    28  PRO28      -0.2116
      2  CA       332.7680  -29.7630  -24.5280 C.3    28  PRO28       0.1372
      3  C        333.5830  -28.9480  -25.5320 C.2    28  PRO28       0.2244
      4  O        333.1540  -28.7740  -26.6740 O.2    28  PRO28      -0.2868
      5  CB       331.5780  -28.9380  -24.0050 C.3    28  PRO28       0.0268
      6  CG       331.8140  -28.7380  -22.5290 C.3    28  PRO28       0.0207
      7  CD       333.2430  -29.0900  -22.2550 C.3    28  PRO28       0.0892
      8  N        325.6920  -40.1600  -21.9050 N.3   264  TRP264     -0.1241
      9  CA       325.5520  -39.5370  -20.5880 C.3   264  TRP264      0.1605
     10  C        324.4910  -38.4280  -20.5740 C.2   264  TRP264      0.2264
     11  O        323.8080  -38.2240  -19.5700 O.2   264  TRP264     -0.2867
     12  CB       326.8990  -38.9700  -20.1230 C.3   264  TRP264      0.0550
     13  CG       327.2490  -37.6700  -20.7940 C.ar  264  TRP264      0.0003
     14  CD1      327.9150  -37.5070  -21.9770 C.ar  264  TRP264      0.0946
     15  CD2      326.9200  -36.3490  -20.3340 C.ar  264  TRP264      0.0152
     16  NE1      328.0330  -36.1680  -22.2740 N.ar  264  TRP264     -0.2442
     17  CE2      327.4290  -35.4360  -21.2860 C.ar  264  TRP264      0.0810
     18  CE3      326.2440  -35.8490  -19.2090 C.ar  264  TRP264      0.0012
     19  CZ2      327.2900  -34.0570  -21.1450 C.ar  264  TRP264      0.0191
     20  CZ3      326.1080  -34.4790  -19.0690 C.ar  264  TRP264      0.0001
     21  CH2      326.6280  -33.5980  -20.0340 C.ar  264  TRP264      0.0015
     22  N        323.5190  -30.2790  -17.5880 N.3   313  TYR313     -0.1227
     23  CA       322.9730  -29.0210  -18.0760 C.3   313  TYR313      0.1736
     24  C        321.4450  -29.0330  -18.0350 C.2   313  TYR313      0.2595
     25  O        320.8180  -30.0960  -18.0660 O.2   313  TYR313     -0.2718
     26  CB       323.5200  -28.6590  -19.4700 C.3   313  TYR313      0.0548
     27  CG       323.2940  -29.7080  -20.5270 C.ar  313  TYR313     -0.0200
     28  CD1      322.0630  -29.8070  -21.1880 C.ar  313  TYR313     -0.0009
     29  CD2      324.3080  -30.5980  -20.8800 C.ar  313  TYR313     -0.0009
     30  CE1      321.8400  -30.7750  -22.1600 C.ar  313  TYR313      0.0417
     31  CE2      324.0990  -31.5710  -21.8530 C.ar  313  TYR313      0.0417
     32  CZ       322.8640  -31.6570  -22.4920 C.ar  313  TYR313      0.1957
     33  OH       322.6410  -32.6120  -23.4620 O.3   313  TYR313     -0.2866
     34  N        320.8740  -27.8340  -17.9330 N.am  314  HIS314     -0.1962
     35  CA       319.4300  -27.5850  -17.9810 C.3   314  HIS314      0.1772
     36  C        318.8160  -28.0660  -19.3200 C.2   314  HIS314      0.2462
     37  O        319.4750  -27.9980  -20.3650 O.2   314  HIS314     -0.2730
     38  CB       319.2230  -26.0780  -17.7410 C.3   314  HIS314      0.0785
     39  CG       317.8560  -25.5650  -18.0800 C.ar  314  HIS314      0.0821
     40  ND1      316.8020  -25.6080  -17.1910 N.ar  314  HIS314     -0.2267
     41  CD2      317.3830  -24.9600  -19.1970 C.ar  314  HIS314      0.1154
     42  CE1      315.7350  -25.0700  -17.7540 C.ar  314  HIS314      0.1986
     43  NE2      316.0600  -24.6690  -18.9710 N.ar  314  HIS314     -0.2212
     44  N        317.5590  -28.5610  -19.3040 N.am  315  PRO315     -0.2727
     45  CA       316.5950  -28.6890  -18.2070 C.3   315  PRO315      0.1402
     46  C        316.6300  -30.0530  -17.5040 C.2   315  PRO315      0.2269
     47  O        315.5740  -30.5910  -17.1660 O.2   315  PRO315     -0.2865
     48  CB       315.2620  -28.5280  -18.9370 C.3   315  PRO315      0.0296
     49  CG       315.5020  -29.1950  -20.2520 C.3   315  PRO315      0.0237
     50  CD       316.9680  -29.0240  -20.5770 C.3   315  PRO315      0.0939
     51  N        323.7910  -30.1670  -11.1540 N.3   326  ARG326     -0.1245
     52  CA       324.1430  -28.7500  -11.2610 C.3   326  ARG326      0.1563
     53  C        322.9270  -27.8380  -11.3270 C.2   326  ARG326      0.2260
     54  O        321.9480  -28.1290  -12.0190 O.2   326  ARG326     -0.2867
     55  CB       325.0710  -28.4730  -12.4490 C.3   326  ARG326      0.0307
     56  CG       325.6360  -27.0530  -12.4500 C.3   326  ARG326      0.0489
     57  CD       326.6690  -26.8140  -13.5320 C.3   326  ARG326      0.2205
     58  NE       326.2570  -27.3840  -14.8090 N.pl3 326  ARG326     -0.0865
     59  CZ       326.7930  -27.0710  -15.9820 C.cat 326  ARG326      0.5346
     60  NH1      327.7620  -26.1680  -16.0620 N.pl3 326  ARG326      0.1354
     61  NH2      326.3450  -27.6560  -17.0800 N.pl3 326  ARG326      0.1354
     62  N        322.4440  -23.8140  -12.1650 N.3   328  GLN328     -0.1245
     63  CA       322.9130  -22.4920  -12.5530 C.3   328  GLN328      0.1566
     64  C        321.8510  -21.4550  -12.1620 C.2   328  GLN328      0.2260
     65  O        320.9350  -21.1610  -12.9320 O.2   328  GLN328     -0.2867
     66  CB       323.2040  -22.4590  -14.0540 C.3   328  GLN328      0.0367
     67  CG       324.2270  -23.4920  -14.5050 C.3   328  GLN328      0.0905
     68  CD       324.2680  -23.6570  -16.0120 C.2   328  GLN328      0.2608
     69  OE1      323.2300  -23.7690  -16.6620 O.2   328  GLN328     -0.2717
     70  NE2      325.4720  -23.6800  -16.5760 N.am  328  GLN328     -0.0878
     71  N        320.5010  -18.2630  -12.0470 N.3   330  ASN330     -0.1240
     72  CA       320.7740  -17.1310  -12.9370 C.3   330  ASN330      0.1653
     73  C        320.1480  -15.7900  -12.5370 C.2   330  ASN330      0.2266
     74  O        320.3060  -14.7980  -13.2510 O.2   330  ASN330     -0.2867
     75  CB       320.3730  -17.4790  -14.3800 C.3   330  ASN330      0.1155
     76  CG       321.2360  -18.5740  -14.9840 C.2   330  ASN330      0.2627
     77  OD1      322.2710  -18.9540  -14.4250 O.2   330  ASN330     -0.2716
     78  ND2      320.8130  -19.0890  -16.1370 N.am  330  ASN330     -0.0877
     79  N        313.3440  -23.9890  -10.8660 N.3   452  VAL452     -0.1231
     80  CA       314.4260  -23.8760  -11.8420 C.3   452  VAL452      0.1692
     81  C        315.6320  -23.0980  -11.2770 C.2   452  VAL452      0.2592
     82  O        316.7790  -23.4510  -11.5590 O.2   452  VAL452     -0.2718
     83  CB       313.9210  -23.3280  -13.2040 C.3   452  VAL452      0.0266
     84  CG1      313.7780  -21.8160  -13.1780 C.3   452  VAL452      0.0020
     85  CG2      314.8380  -23.7630  -14.3360 C.3   452  VAL452      0.0020
     86  N        315.3750  -22.0590  -10.4800 N.am  453  PHE453     -0.1976
     87  CA       316.4340  -21.3570   -9.7400 C.3   453  PHE453      0.1639
     88  C        316.1810  -21.4760   -8.2370 C.2   453  PHE453      0.2290
     89  O        315.7140  -20.5140   -7.6240 O.2   453  PHE453     -0.2864
     90  CB       316.5000  -19.8570  -10.0920 C.3   453  PHE453      0.0560
     91  CG       316.7320  -19.5530  -11.5490 C.ar  453  PHE453     -0.0200
     92  CD1      317.5680  -20.3410  -12.3330 C.ar  453  PHE453     -0.0042
     93  CD2      316.1470  -18.4280  -12.1240 C.ar  453  PHE453     -0.0042
     94  CE1      317.7800  -20.0350  -13.6720 C.ar  453  PHE453     -0.0003
     95  CE2      316.3590  -18.1140  -13.4590 C.ar  453  PHE453     -0.0003
     96  CZ       317.1760  -18.9210  -14.2370 C.ar  453  PHE453     -0.0000
@<TRIPOS>BOND
     1     4     3    2
     2     3     2    1
     3     2     5    1
     4     2     1    1
     5     5     6    1
     6    33    32    1
     7     1     7    1
     8     6     7    1
     9    32    30   ar
    10    32    31   ar
    11    16    14   ar
    12    16    17   ar
    13    30    28   ar
    14    14    13   ar
    15     8     9    1
    16    31    29   ar
    17    17    19   ar
    18    17    15   ar
    19    28    27   ar
    20    19    21   ar
    21    29    27   ar
    22    13    15   ar
    23    13    12    1
    24     9    10    1
    25     9    12    1
    26    50    49    1
    27    50    44    1
    28    10    11    2
    29    27    26    1
    30    37    36    2
    31    15    18   ar
    32    49    48    1
    33    21    20   ar
    34    26    23    1
    35    36    44   am
    36    36    35    1
    37    44    45    1
    38    18    20   ar
    39    41    43   ar
    40    41    39   ar
    41    43    42   ar
    42    48    45    1
    43    45    46    1
    44    39    38    1
    45    39    40   ar
    46    23    24    1
    47    23    22    1
    48    25    24    2
    49    24    34   am
    50    35    34    1
    51    35    38    1
    52    42    40   ar
    53    46    47    2
    54    61    59    1
    55    69    68    2
    56    70    68   am
    57    78    76   am
    58    60    59    1
    59    68    67    1
    60    59    58    2
    61    76    77    2
    62    76    75    1
    63    58    57    1
    64    67    66    1
    65    75    72    1
    66    85    83    1
    67    96    94   ar
    68    96    95   ar
    69    66    63    1
    70    94    92   ar
    71    57    56    1
    72    95    93   ar
    73    74    73    2
    74    83    84    1
    75    83    80    1
    76    72    73    1
    77    72    71    1
    78    65    64    2
    79    63    62    1
    80    63    64    1
    81    56    55    1
    82    55    52    1
    83    92    91   ar
    84    93    91   ar
    85    54    53    2
    86    80    81    1
    87    80    79    1
    88    82    81    2
    89    91    90    1
    90    53    52    1
    91    81    86   am
    92    52    51    1
    93    86    87    1
    94    90    87    1
    95    87    88    1
    96    88    89    2
