@<TRIPOS>MOLECULE
tmp/4kgjA02.pdb
 116 111 0 0 0
SMALL
GASTEIGER

@<TRIPOS>ATOM
      1  N        334.2470  -35.9010  -20.4750 N.3    26  CYS26      -0.1235
      2  CA       334.7520  -35.2600  -21.6770 C.3    26  CYS26       0.1677
      3  C        334.3420  -33.7930  -21.6510 C.2    26  CYS26       0.2270
      4  O        333.1530  -33.4930  -21.5580 O.2    26  CYS26      -0.2867
      5  CB       334.1980  -35.9490  -22.9320 C.3    26  CYS26       0.0956
      6  SG       334.7500  -35.2370  -24.5050 S.3    26  CYS26      -0.0801
      7  N        339.3300  -36.6250  -20.9640 N.3    56  HIS56      -0.1241
      8  CA       339.5430  -36.4830  -22.4070 C.3    56  HIS56       0.1621
      9  C        340.1820  -35.1420  -22.7290 C.2    56  HIS56       0.2264
     10  O        340.0970  -34.1910  -21.9390 O.2    56  HIS56      -0.2867
     11  CB       338.2180  -36.5610  -23.1610 C.3    56  HIS56       0.0745
     12  CG       337.5920  -37.9190  -23.1750 C.ar   56  HIS56       0.0817
     13  ND1      337.8700  -38.8860  -22.2320 N.ar   56  HIS56      -0.2268
     14  CD2      336.6630  -38.4570  -24.0000 C.ar   56  HIS56       0.1154
     15  CE1      337.1600  -39.9690  -22.4910 C.ar   56  HIS56       0.1986
     16  NE2      336.4170  -39.7330  -23.5570 N.ar   56  HIS56      -0.2212
     17  N        341.4420  -41.6440  -26.5240 N.3   139  ASN139     -0.1225
     18  CA       340.2040  -42.3720  -26.2460 C.3   139  ASN139      0.1785
     19  C        339.5080  -42.9160  -27.4900 C.2   139  ASN139      0.2597
     20  O        339.3880  -42.2280  -28.5040 O.2   139  ASN139     -0.2718
     21  CB       339.2240  -41.5210  -25.4470 C.3   139  ASN139      0.1169
     22  CG       337.9780  -42.2910  -25.0550 C.2   139  ASN139      0.2627
     23  OD1      338.0460  -43.2940  -24.3410 O.2   139  ASN139     -0.2716
     24  ND2      336.8320  -41.8300  -25.5320 N.am  139  ASN139     -0.0877
     25  N        339.0500  -44.1600  -27.3790 N.am  140  GLU140     -0.1979
     26  CA       338.3790  -44.8840  -28.4550 C.3   140  GLU140      0.1602
     27  C        338.9550  -44.6030  -29.8420 C.2   140  GLU140      0.2287
     28  O        338.3510  -43.8770  -30.6220 O.2   140  GLU140     -0.2864
     29  CB       336.8840  -44.6010  -28.4230 C.3   140  GLU140      0.0415
     30  CG       336.2820  -44.7630  -27.0430 C.3   140  GLU140      0.1163
     31  CD       334.7700  -44.8090  -27.0580 C.2   140  GLU140      0.3649
     32  OE1      334.1420  -43.9130  -27.6680 O.co2 140  GLU140     -0.2457
     33  OE2      334.2100  -45.7440  -26.4460 O.co2 140  GLU140     -0.2457
     34  N        336.7520  -45.0980  -32.9360 N.3   143  HIS143     -0.1241
     35  CA       335.5540  -44.2640  -33.0420 C.3   143  HIS143      0.1621
     36  C        335.7980  -42.9280  -33.7540 C.2   143  HIS143      0.2264
     37  O        334.8870  -42.1040  -33.8590 O.2   143  HIS143     -0.2867
     38  CB       334.9100  -44.0640  -31.6670 C.3   143  HIS143      0.0745
     39  CG       334.1870  -45.2750  -31.1650 C.ar  143  HIS143      0.0817
     40  ND1      334.8380  -46.3500  -30.5970 N.ar  143  HIS143     -0.2268
     41  CD2      332.8690  -45.5880  -31.1610 C.ar  143  HIS143      0.1154
     42  CE1      333.9520  -47.2720  -30.2610 C.ar  143  HIS143      0.1986
     43  NE2      332.7500  -46.8340  -30.5930 N.ar  143  HIS143     -0.2212
     44  N        329.8000  -51.2240  -22.1960 N.3   222  LYS222     -0.1245
     45  CA       328.6520  -50.6670  -21.4700 C.3   222  LYS222      0.1561
     46  C        327.4780  -51.6480  -21.4840 C.2   222  LYS222      0.2260
     47  O        327.4190  -52.5350  -22.3340 O.2   222  LYS222     -0.2867
     48  CB       328.2590  -49.2970  -22.0380 C.3   222  LYS222      0.0271
     49  CG       329.4550  -48.4130  -22.3630 C.3   222  LYS222      0.0035
     50  CD       329.1350  -46.9300  -22.2890 C.3   222  LYS222      0.0206
     51  CE       330.4140  -46.1010  -22.3490 C.3   222  LYS222      0.1093
     52  NZ       330.3240  -44.8360  -21.5640 N.3   222  LYS222     -0.1314
     53  N        335.2140  -47.3010  -18.8830 N.3   257  GLU257     -0.1245
     54  CA       333.8890  -46.7520  -19.1920 C.3   257  GLU257      0.1567
     55  C        332.8380  -47.8600  -19.0460 C.2   257  GLU257      0.2260
     56  O        332.2340  -48.2990  -20.0280 O.2   257  GLU257     -0.2867
     57  CB       333.8530  -46.1360  -20.5980 C.3   257  GLU257      0.0388
     58  CG       334.2830  -44.6770  -20.6610 C.3   257  GLU257      0.1160
     59  CD       334.2420  -44.0940  -22.0640 C.2   257  GLU257      0.3649
     60  OE1      333.5070  -44.6290  -22.9250 O.co2 257  GLU257     -0.2457
     61  OE2      334.9430  -43.0890  -22.3100 O.co2 257  GLU257     -0.2457
     62  N        325.1230  -46.2260  -22.6160 N.3   262  VAL262     -0.1231
     63  CA       325.8530  -45.2450  -23.4110 C.3   262  VAL262      0.1692
     64  C        325.0160  -43.9710  -23.6150 C.2   262  VAL262      0.2593
     65  O        323.7920  -44.0370  -23.7440 O.2   262  VAL262     -0.2718
     66  CB       326.3110  -45.8580  -24.7570 C.3   262  VAL262      0.0266
     67  CG1      325.1770  -45.9130  -25.7760 C.3   262  VAL262      0.0020
     68  CG2      327.5260  -45.1190  -25.3060 C.3   262  VAL262      0.0020
     69  N        325.6820  -42.8180  -23.6140 N.am  263  GLY263     -0.1942
     70  CA       325.0230  -41.5210  -23.7900 C.3   263  GLY263      0.2014
     71  C        324.7100  -40.8620  -22.4640 C.2   263  GLY263      0.2638
     72  O        323.5960  -40.9880  -21.9520 O.2   263  GLY263     -0.2714
     73  N        325.6920  -40.1600  -21.9050 N.am  264  TRP264     -0.1973
     74  CA       325.5520  -39.5370  -20.5880 C.3   264  TRP264      0.1640
     75  C        324.4910  -38.4280  -20.5740 C.2   264  TRP264      0.2290
     76  O        323.8080  -38.2240  -19.5700 O.2   264  TRP264     -0.2864
     77  CB       326.8990  -38.9700  -20.1230 C.3   264  TRP264      0.0576
     78  CG       327.2490  -37.6700  -20.7940 C.ar  264  TRP264      0.0006
     79  CD1      327.9150  -37.5070  -21.9770 C.ar  264  TRP264      0.0946
     80  CD2      326.9200  -36.3490  -20.3340 C.ar  264  TRP264      0.0152
     81  NE1      328.0330  -36.1680  -22.2740 N.ar  264  TRP264     -0.2442
     82  CE2      327.4290  -35.4360  -21.2860 C.ar  264  TRP264      0.0810
     83  CE3      326.2440  -35.8490  -19.2090 C.ar  264  TRP264      0.0012
     84  CZ2      327.2900  -34.0570  -21.1450 C.ar  264  TRP264      0.0191
     85  CZ3      326.1080  -34.4790  -19.0690 C.ar  264  TRP264      0.0001
     86  CH2      326.6280  -33.5980  -20.0340 C.ar  264  TRP264      0.0015
     87  N        332.0190  -43.5890  -15.9170 N.3   307  ASP307     -0.1239
     88  CA       332.2890  -42.3520  -16.6360 C.3   307  ASP307      0.1674
     89  C        331.2010  -41.3170  -16.3610 C.2   307  ASP307      0.2266
     90  O        330.4310  -40.9420  -17.2530 O.2   307  ASP307     -0.2867
     91  CB       332.3810  -42.6550  -18.1280 C.3   307  ASP307      0.1410
     92  CG       333.2250  -41.6530  -18.8820 C.2   307  ASP307      0.3668
     93  OD1      334.3350  -41.2930  -18.4070 O.co2 307  ASP307     -0.2456
     94  OD2      332.7800  -41.2470  -19.9760 O.co2 307  ASP307     -0.2456
     95  N        330.7810  -35.8750  -15.5390 N.3   310  PHE310     -0.1241
     96  CA       330.1630  -34.8080  -16.3190 C.3   310  PHE310      0.1605
     97  C        329.3950  -33.8370  -15.4360 C.2   310  PHE310      0.2264
     98  O        329.0050  -34.1750  -14.3090 O.2   310  PHE310     -0.2867
     99  CB       329.1910  -35.4010  -17.3360 C.3   310  PHE310      0.0534
    100  CG       329.8500  -36.2140  -18.4060 C.ar  310  PHE310     -0.0203
    101  CD1      330.3080  -35.6070  -19.5730 C.ar  310  PHE310     -0.0042
    102  CD2      330.0090  -37.5930  -18.2550 C.ar  310  PHE310     -0.0042
    103  CE1      330.9180  -36.3530  -20.5650 C.ar  310  PHE310     -0.0003
    104  CE2      330.6220  -38.3450  -19.2440 C.ar  310  PHE310     -0.0003
    105  CZ       331.0750  -37.7230  -20.4020 C.ar  310  PHE310     -0.0000
    106  N        323.8300  -38.6330  -16.6250 N.3   321  ARG321     -0.1245
    107  CA       324.8340  -39.5000  -15.9980 C.3   321  ARG321      0.1563
    108  C        325.9490  -38.6960  -15.3450 C.2   321  ARG321      0.2260
    109  O        327.0300  -38.5290  -15.9130 O.2   321  ARG321     -0.2867
    110  CB       325.4130  -40.5160  -16.9890 C.3   321  ARG321      0.0307
    111  CG       326.0410  -41.7300  -16.3110 C.3   321  ARG321      0.0489
    112  CD       327.3080  -42.1890  -17.0090 C.3   321  ARG321      0.2205
    113  NE       327.0300  -42.8430  -18.2820 N.pl3 321  ARG321     -0.0865
    114  CZ       327.7500  -42.6840  -19.3900 C.cat 321  ARG321      0.5346
    115  NH1      327.4000  -43.3340  -20.4900 N.pl3 321  ARG321      0.1354
    116  NH2      328.8100  -41.8820  -19.4080 N.pl3 321  ARG321      0.1354
@<TRIPOS>BOND
     1    37    36    2
     2    36    35    1
     3    35    34    1
     4    35    38    1
     5    38    39    1
     6    39    41   ar
     7    39    40   ar
     8    41    43   ar
     9    28    27    2
    10    40    42   ar
    11    43    42   ar
    12    27    26    1
    13    20    19    2
    14    26    29    1
    15    26    25    1
    16    29    30    1
    17    32    31   ar
    18    19    25   am
    19    19    18    1
    20    31    30    1
    21    31    33   ar
    22    17    18    1
    23    18    21    1
    24    67    66    1
    25    24    22   am
    26    21    22    1
    27    68    66    1
    28    22    23    2
    29    66    63    1
    30     6     5    1
    31    14    16   ar
    32    14    12   ar
    33    70    69    1
    34    70    71    1
    35    65    64    2
    36    64    69   am
    37    64    63    1
    38    16    15   ar
    39    63    62    1
    40    12    11    1
    41    12    13   ar
    42    11     8    1
    43     5     2    1
    44    60    59   ar
    45     9     8    1
    46     9    10    2
    47    15    13   ar
    48    71    72    2
    49    71    73   am
    50     8     7    1
    51    49    50    1
    52    49    48    1
    53    51    50    1
    54    51    52    1
    55    47    46    2
    56    61    59   ar
    57    81    79   ar
    58    81    82   ar
    59    44    45    1
    60    59    58    1
    61    48    45    1
    62    79    78   ar
    63    73    74    1
    64     2     3    1
    65     2     1    1
    66     3     4    2
    67    46    45    1
    68    82    84   ar
    69    82    80   ar
    70    84    86   ar
    71    78    80   ar
    72    78    77    1
    73    58    57    1
    74    57    54    1
    75    74    75    1
    76    74    77    1
    77    75    76    2
    78   103   105   ar
    79   103   101   ar
    80   115   114    1
    81   105   104   ar
    82    80    83   ar
    83    86    85   ar
    84    56    55    2
    85    94    92   ar
    86   101   100   ar
    87   116   114    1
    88   114   113    2
    89   104   102   ar
    90    83    85   ar
    91    54    55    1
    92    54    53    1
    93    92    93   ar
    94    92    91    1
    95   100   102   ar
    96   100    99    1
    97   113   112    1
    98    91    88    1
    99    99    96    1
   100    90    89    2
   101   112   111    1
   102   110   111    1
   103   110   107    1
   104    88    89    1
   105    88    87    1
   106   106   107    1
   107    96    95    1
   108    96    97    1
   109   107   108    1
   110   109   108    2
   111    97    98    2
