@<TRIPOS>MOLECULE
tmp/4kglA02.pdb
 114 108 0 0 0
SMALL
GASTEIGER

@<TRIPOS>ATOM
      1  N        334.2210  -35.9050  -21.3960 N.3    26  CYS26      -0.1235
      2  CA       334.7260  -35.2450  -22.5840 C.3    26  CYS26       0.1677
      3  C        334.2720  -33.7950  -22.5430 C.2    26  CYS26       0.2270
      4  O        333.0800  -33.5250  -22.4240 O.2    26  CYS26      -0.2867
      5  CB       334.2050  -35.9330  -23.8500 C.3    26  CYS26       0.0956
      6  SG       334.7310  -35.1850  -25.4190 S.3    26  CYS26      -0.0801
      7  N        339.2830  -36.5060  -21.7150 N.3    56  HIS56      -0.1241
      8  CA       339.5520  -36.3870  -23.1610 C.3    56  HIS56       0.1621
      9  C        340.1930  -35.0510  -23.5250 C.2    56  HIS56       0.2264
     10  O        340.0860  -34.0710  -22.7780 O.2    56  HIS56      -0.2867
     11  CB       338.2690  -36.5250  -23.9750 C.3    56  HIS56       0.0745
     12  CG       337.6710  -37.8970  -23.9610 C.ar   56  HIS56       0.0817
     13  ND1      337.5650  -38.6570  -22.8130 N.ar   56  HIS56      -0.2268
     14  CD2      337.1050  -38.6280  -24.9500 C.ar   56  HIS56       0.1154
     15  CE1      336.9840  -39.8070  -23.1030 C.ar   56  HIS56       0.1986
     16  NE2      336.6920  -39.8130  -24.3920 N.ar   56  HIS56      -0.2212
     17  N        341.4340  -41.6530  -27.2590 N.3   139  ASN139     -0.1225
     18  CA       340.1780  -42.3670  -27.0130 C.3   139  ASN139      0.1785
     19  C        339.4880  -42.8800  -28.2770 C.2   139  ASN139      0.2597
     20  O        339.4470  -42.1990  -29.3050 O.2   139  ASN139     -0.2718
     21  CB       339.1950  -41.5180  -26.2060 C.3   139  ASN139      0.1169
     22  CG       337.9120  -42.2710  -25.8730 C.2   139  ASN139      0.2627
     23  OD1      337.8970  -43.1650  -25.0180 O.2   139  ASN139     -0.2716
     24  ND2      336.8270  -41.9130  -26.5550 N.am  139  ASN139     -0.0877
     25  N        338.9450  -44.0890  -28.1670 N.am  140  GLU140     -0.1979
     26  CA       338.2190  -44.7550  -29.2450 C.3   140  GLU140      0.1602
     27  C        338.7680  -44.4940  -30.6440 C.2   140  GLU140      0.2287
     28  O        338.1100  -43.8410  -31.4430 O.2   140  GLU140     -0.2864
     29  CB       336.7330  -44.4080  -29.1770 C.3   140  GLU140      0.0415
     30  CG       336.0450  -44.9130  -27.9210 C.3   140  GLU140      0.1163
     31  CD       334.5530  -44.6490  -27.9160 C.2   140  GLU140      0.3649
     32  OE1      334.0720  -43.8430  -28.7440 O.co2 140  GLU140     -0.2457
     33  OE2      333.8570  -45.2470  -27.0730 O.co2 140  GLU140     -0.2457
     34  N        337.5280  -40.4260  -33.8390 N.3   145  ASP145     -0.1239
     35  CA       337.4660  -39.3620  -32.8360 C.3   145  ASP145      0.1674
     36  C        338.6520  -38.3870  -32.9410 C.2   145  ASP145      0.2266
     37  O        339.2550  -38.0310  -31.9230 O.2   145  ASP145     -0.2867
     38  CB       337.4820  -40.0420  -31.4540 C.3   145  ASP145      0.1410
     39  CG       336.8850  -39.1800  -30.3460 C.2   145  ASP145      0.3668
     40  OD1      336.2080  -38.1740  -30.6510 O.co2 145  ASP145     -0.2456
     41  OD2      337.0880  -39.5230  -29.1580 O.co2 145  ASP145     -0.2456
     42  N        329.7760  -51.3320  -23.0370 N.3   222  LYS222     -0.1245
     43  CA       328.5610  -50.7710  -22.4080 C.3   222  LYS222      0.1561
     44  C        327.3790  -51.7420  -22.4410 C.2   222  LYS222      0.2260
     45  O        327.2060  -52.4980  -23.4030 O.2   222  LYS222     -0.2867
     46  CB       328.1780  -49.4290  -23.0410 C.3   222  LYS222      0.0271
     47  CG       329.3680  -48.5190  -23.3160 C.3   222  LYS222      0.0035
     48  CD       329.0730  -47.0650  -22.9800 C.3   222  LYS222      0.0206
     49  CE       330.3160  -46.1970  -23.1140 C.3   222  LYS222      0.1093
     50  NZ       330.0980  -44.8410  -22.5420 N.3   222  LYS222     -0.1314
     51  N        335.2090  -47.2110  -19.7370 N.3   257  GLU257     -0.1245
     52  CA       333.8570  -46.7210  -20.0140 C.3   257  GLU257      0.1567
     53  C        332.8500  -47.8740  -19.8950 C.2   257  GLU257      0.2260
     54  O        332.3490  -48.3840  -20.8930 O.2   257  GLU257     -0.2867
     55  CB       333.7940  -46.0530  -21.3920 C.3   257  GLU257      0.0388
     56  CG       334.3980  -44.6550  -21.4360 C.3   257  GLU257      0.1160
     57  CD       334.2510  -43.9790  -22.7860 C.2   257  GLU257      0.3649
     58  OE1      333.3940  -44.4080  -23.5890 O.co2 257  GLU257     -0.2457
     59  OE2      334.9990  -43.0180  -23.0550 O.co2 257  GLU257     -0.2457
     60  N        325.1140  -46.2910  -23.4780 N.3   262  VAL262     -0.1231
     61  CA       325.7990  -45.3280  -24.3500 C.3   262  VAL262      0.1692
     62  C        324.9430  -44.0690  -24.5590 C.2   262  VAL262      0.2593
     63  O        323.7210  -44.1550  -24.7290 O.2   262  VAL262     -0.2718
     64  CB       326.1970  -45.9720  -25.7120 C.3   262  VAL262      0.0266
     65  CG1      324.9720  -46.3610  -26.5370 C.3   262  VAL262      0.0020
     66  CG2      327.1240  -45.0590  -26.5130 C.3   262  VAL262      0.0020
     67  N        325.5920  -42.9060  -24.5270 N.am  263  GLY263     -0.1942
     68  CA       324.9120  -41.6190  -24.6840 C.3   263  GLY263      0.2014
     69  C        324.6930  -40.9580  -23.3380 C.2   263  GLY263      0.2638
     70  O        323.6360  -41.1260  -22.7310 O.2   263  GLY263     -0.2714
     71  N        325.6950  -40.2110  -22.8770 N.am  264  TRP264     -0.1973
     72  CA       325.6800  -39.6000  -21.5470 C.3   264  TRP264      0.1640
     73  C        324.6000  -38.5230  -21.4130 C.2   264  TRP264      0.2290
     74  O        324.0090  -38.3580  -20.3390 O.2   264  TRP264     -0.2864
     75  CB       327.0590  -39.0100  -21.2030 C.3   264  TRP264      0.0576
     76  CG       327.2990  -37.6180  -21.7720 C.ar  264  TRP264      0.0006
     77  CD1      327.8580  -37.3040  -22.9840 C.ar  264  TRP264      0.0946
     78  CD2      326.9730  -36.3640  -21.1480 C.ar  264  TRP264      0.0152
     79  NE1      327.9020  -35.9380  -23.1480 N.ar  264  TRP264     -0.2442
     80  CE2      327.3620  -35.3380  -22.0390 C.ar  264  TRP264      0.0810
     81  CE3      326.3840  -36.0090  -19.9240 C.ar  264  TRP264      0.0012
     82  CZ2      327.1850  -33.9820  -21.7430 C.ar  264  TRP264      0.0191
     83  CZ3      326.2100  -34.6630  -19.6320 C.ar  264  TRP264      0.0001
     84  CH2      326.6110  -33.6670  -20.5370 C.ar  264  TRP264      0.0015
     85  N        332.0390  -43.4990  -16.9810 N.3   307  ASP307     -0.1239
     86  CA       332.2790  -42.2050  -17.6120 C.3   307  ASP307      0.1674
     87  C        331.1590  -41.2100  -17.2720 C.2   307  ASP307      0.2266
     88  O        330.3720  -40.8130  -18.1430 O.2   307  ASP307     -0.2867
     89  CB       332.4260  -42.3780  -19.1220 C.3   307  ASP307      0.1410
     90  CG       333.5110  -41.5010  -19.7040 C.2   307  ASP307      0.3668
     91  OD1      334.6740  -41.5690  -19.2270 O.co2 307  ASP307     -0.2456
     92  OD2      333.2010  -40.7510  -20.6530 O.co2 307  ASP307     -0.2456
     93  N        330.7380  -35.8360  -16.2930 N.3   310  PHE310     -0.1241
     94  CA       330.1790  -34.7350  -17.0710 C.3   310  PHE310      0.1605
     95  C        329.3690  -33.8100  -16.1710 C.2   310  PHE310      0.2264
     96  O        328.9120  -34.2130  -15.0910 O.2   310  PHE310     -0.2867
     97  CB       329.2260  -35.2650  -18.1310 C.3   310  PHE310      0.0534
     98  CG       329.8760  -36.0830  -19.1940 C.ar  310  PHE310     -0.0203
     99  CD1      330.0550  -37.4530  -19.0250 C.ar  310  PHE310     -0.0042
    100  CD2      330.2770  -35.4940  -20.3860 C.ar  310  PHE310     -0.0042
    101  CE1      330.6440  -38.2150  -20.0250 C.ar  310  PHE310     -0.0003
    102  CE2      330.8640  -36.2490  -21.3840 C.ar  310  PHE310     -0.0003
    103  CZ       331.0490  -37.6100  -21.2050 C.ar  310  PHE310     -0.0000
    104  N        323.8210  -38.5790  -17.4570 N.3   321  ARG321     -0.1245
    105  CA       324.8040  -39.4710  -16.8260 C.3   321  ARG321      0.1563
    106  C        325.9070  -38.7040  -16.0990 C.2   321  ARG321      0.2260
    107  O        327.0290  -38.5770  -16.5960 O.2   321  ARG321     -0.2867
    108  CB       325.4090  -40.4500  -17.8360 C.3   321  ARG321      0.0307
    109  CG       326.0610  -41.6600  -17.1690 C.3   321  ARG321      0.0489
    110  CD       327.3060  -42.1160  -17.9080 C.3   321  ARG321      0.2205
    111  NE       326.9800  -42.6930  -19.2010 N.pl3 321  ARG321     -0.0865
    112  CZ       327.7620  -42.6220  -20.2700 C.cat 321  ARG321      0.5346
    113  NH1      327.3780  -43.1850  -21.4080 N.pl3 321  ARG321      0.1354
    114  NH2      328.9270  -41.9910  -20.2080 N.pl3 321  ARG321      0.1354
@<TRIPOS>BOND
     1    34    35    1
     2    36    35    1
     3    36    37    2
     4    35    38    1
     5    38    39    1
     6    28    27    2
     7    40    39   ar
     8    27    26    1
     9    39    41   ar
    10    20    19    2
    11    26    29    1
    12    26    25    1
    13    29    30    1
    14    32    31   ar
    15    19    25   am
    16    19    18    1
    17    30    31    1
    18    31    33   ar
    19    17    18    1
    20    18    21    1
    21    24    22   am
    22    65    64    1
    23    66    64    1
    24    21    22    1
    25    22    23    2
    26    64    61    1
    27     6     5    1
    28    14    16   ar
    29    14    12   ar
    30    63    62    2
    31    68    67    1
    32    68    69    1
    33    62    67   am
    34    62    61    1
    35    16    15   ar
    36    61    60    1
    37    11    12    1
    38    11     8    1
    39    12    13   ar
    40     5     2    1
    41    58    57   ar
    42     9     8    1
    43     9    10    2
    44    45    44    2
    45    69    71   am
    46    69    70    2
    47    47    46    1
    48    47    48    1
    49     8     7    1
    50    79    77   ar
    51    79    80   ar
    52    49    48    1
    53    49    50    1
    54    15    13   ar
    55    59    57   ar
    56    46    43    1
    57    42    43    1
    58    77    76   ar
    59    71    72    1
    60    57    56    1
    61     2     3    1
    62     2     1    1
    63     3     4    2
    64    44    43    1
    65    80    82   ar
    66    80    78   ar
    67    76    75    1
    68    76    78   ar
    69    82    84   ar
    70    72    73    1
    71    72    75    1
    72    56    55    1
    73    73    74    2
    74   113   112    1
    75    55    52    1
    76   102   103   ar
    77   102   100   ar
    78   103   101   ar
    79    78    81   ar
    80    54    53    2
    81    92    90   ar
    82    84    83   ar
    83   100    98   ar
    84   112   114    1
    85   112   111    2
    86   101    99   ar
    87    52    53    1
    88    52    51    1
    89    81    83   ar
    90    90    91   ar
    91    90    89    1
    92   111   110    1
    93    98    99   ar
    94    98    97    1
    95    89    86    1
    96    88    87    2
    97    97    94    1
    98   110   109    1
    99   108   109    1
   100   108   105    1
   101    86    87    1
   102    86    85    1
   103   104   105    1
   104    94    93    1
   105    94    95    1
   106   105   106    1
   107   107   106    2
   108    95    96    2
