@<TRIPOS>MOLECULE
tmp/4kgmA00.pdb
 160 160 0 0 0
SMALL
GASTEIGER

@<TRIPOS>ATOM
      1  N         66.3760   90.4350   68.9570 N.3    28  ASP28      -0.1225
      2  CA        65.0340   89.9000   68.7370 C.3    28  ASP28       0.1805
      3  C         64.9980   88.9080   67.5760 C.2    28  ASP28       0.2598
      4  O         65.4930   89.1960   66.4870 O.2    28  ASP28      -0.2718
      5  CB        64.0390   91.0370   68.4890 C.3    28  ASP28       0.1424
      6  CG        62.5940   90.5670   68.5180 C.2    28  ASP28       0.3668
      7  OD1       62.0980   90.0910   67.4750 O.co2  28  ASP28      -0.2456
      8  OD2       61.9520   90.6780   69.5850 O.co2  28  ASP28      -0.2456
      9  N         64.4050   87.7410   67.8190 N.am   29  GLY29      -0.1942
     10  CA        64.3190   86.6950   66.8150 C.3    29  GLY29       0.2014
     11  C         63.5550   87.1150   65.5740 C.2    29  GLY29       0.2639
     12  O         62.5040   87.7470   65.6640 O.2    29  GLY29      -0.2714
     13  N         64.0870   86.7600   64.4090 N.am   30  ALA30      -0.1963
     14  CA        63.4560   87.1110   63.1410 C.3    30  ALA30       0.1728
     15  C         62.3960   86.0880   62.7420 C.2    30  ALA30       0.2616
     16  O         62.6750   84.8900   62.6670 O.2    30  ALA30      -0.2715
     17  CB        64.5050   87.2460   62.0460 C.3    30  ALA30       0.0334
     18  N         61.1830   86.5750   62.4880 N.am   31  HIS31      -0.1959
     19  CA        60.0620   85.7340   62.0710 C.3    31  HIS31       0.1787
     20  C         59.8410   84.5510   63.0080 C.2    31  HIS31       0.2620
     21  O         59.7150   83.4130   62.5580 O.2    31  HIS31      -0.2715
     22  CB        60.2670   85.2250   60.6410 C.3    31  HIS31       0.0785
     23  CG        60.4770   86.3130   59.6360 C.ar   31  HIS31       0.0821
     24  ND1       59.5420   87.2970   59.3970 N.ar   31  HIS31      -0.2267
     25  CD2       61.5130   86.5690   58.8020 C.ar   31  HIS31       0.1154
     26  CE1       59.9940   88.1140   58.4630 C.ar   31  HIS31       0.1986
     27  NE2       61.1880   87.6940   58.0850 N.ar   31  HIS31      -0.2212
     28  N         59.7950   84.8200   64.3090 N.am   32  PHE32      -0.1960
     29  CA        59.6340   83.7480   65.2860 C.3    32  PHE32       0.1771
     30  C         58.1820   83.3060   65.4500 C.2    32  PHE32       0.2619
     31  O         57.8480   82.5540   66.3630 O.2    32  PHE32      -0.2715
     32  CB        60.2760   84.1170   66.6250 C.3    32  PHE32       0.0574
     33  CG        61.6420   83.5200   66.8160 C.ar   32  PHE32      -0.0200
     34  CD1       62.5910   83.6020   65.8100 C.ar   32  PHE32      -0.0042
     35  CD2       61.9760   82.8720   67.9930 C.ar   32  PHE32      -0.0042
     36  CE1       63.8460   83.0500   65.9730 C.ar   32  PHE32      -0.0003
     37  CE2       63.2320   82.3200   68.1640 C.ar   32  PHE32      -0.0003
     38  CZ        64.1680   82.4090   67.1510 C.ar   32  PHE32      -0.0000
     39  N         57.3230   83.7850   64.5590 N.am   33  HIS33      -0.1973
     40  CA        55.9500   83.3090   64.5030 C.3    33  HIS33       0.1656
     41  C         55.9190   82.0460   63.6520 C.2    33  HIS33       0.2291
     42  O         55.0900   81.1620   63.8630 O.2    33  HIS33      -0.2864
     43  CB        55.0290   84.3760   63.9080 C.3    33  HIS33       0.0771
     44  CG        53.5770   84.1410   64.1830 C.ar   33  HIS33       0.0820
     45  ND1       53.1340   83.2960   65.1770 N.ar   33  HIS33      -0.2267
     46  CD2       52.4650   84.6430   63.5940 C.ar   33  HIS33       0.1154
     47  CE1       51.8130   83.2860   65.1890 C.ar   33  HIS33       0.1986
     48  NE2       51.3830   84.0960   64.2380 N.ar   33  HIS33      -0.2212
     49  N         58.5830   79.2780   65.5790 N.3    36  THR36      -0.1218
     50  CA        57.9810   78.6420   66.7460 C.3    36  THR36       0.1862
     51  C         56.6820   77.9220   66.3930 C.2    36  THR36       0.2287
     52  O         56.0950   77.2400   67.2340 O.2    36  THR36      -0.2866
     53  CB        57.7220   79.6510   67.8840 C.3    36  THR36       0.1770
     54  OG1       56.7880   80.6460   67.4460 O.3    36  THR36      -0.2211
     55  CG2       59.0210   80.3230   68.3050 C.3    36  THR36       0.0375
     56  N         56.0760   74.5540   68.0540 N.3    39  CYS39      -0.1221
     57  CA        56.5140   74.4310   69.4380 C.3    39  CYS39       0.1808
     58  C         55.3210   74.3400   70.3810 C.2    39  CYS39       0.2601
     59  O         54.1860   74.6180   69.9920 O.2    39  CYS39      -0.2717
     60  CB        57.4050   75.6130   69.8300 C.3    39  CYS39       0.0970
     61  SG        59.0030   75.6740   68.9790 S.3    39  CYS39      -0.0800
     62  N         55.5870   73.9510   71.6240 N.am   40  ALA40      -0.1965
     63  CA        54.5410   73.8210   72.6300 C.3    40  ALA40       0.1728
     64  C         53.9460   75.1770   72.9970 C.2    40  ALA40       0.2616
     65  O         54.6370   76.0510   73.5220 O.2    40  ALA40      -0.2715
     66  CB        55.0830   73.1240   73.8710 C.3    40  ALA40       0.0334
     67  N         52.6590   75.3460   72.7100 N.am   41  LYS41      -0.1964
     68  CA        51.9490   76.5720   73.0480 C.3    41  LYS41       0.1713
     69  C         51.1940   76.3850   74.3630 C.2    41  LYS41       0.2458
     70  O         50.7250   75.2850   74.6540 O.2    41  LYS41      -0.2730
     71  CB        50.9840   76.9540   71.9230 C.3    41  LYS41       0.0311
     72  CG        51.5520   77.2140   70.5310 C.3    41  LYS41       0.0038
     73  CD        52.4170   78.4120   70.6740 C.3    41  LYS41       0.0206
     74  CE        53.0810   78.4280   69.2740 C.3    41  LYS41       0.1093
     75  NZ        54.4500   78.9390   69.4470 N.3    41  LYS41      -0.1314
     76  N         51.0740   77.4570   75.1650 N.am   42  PRO42      -0.2716
     77  CA        51.5770   78.8080   74.8930 C.3    42  PRO42       0.1536
     78  C         53.0640   78.9690   75.2120 C.2    42  PRO42       0.2599
     79  O         53.7160   79.8430   74.6410 O.2    42  PRO42      -0.2715
     80  CB        50.7460   79.6760   75.8380 C.3    42  PRO42       0.0310
     81  CG        50.4840   78.7880   77.0020 C.3    42  PRO42       0.0237
     82  CD        50.3310   77.3960   76.4370 C.3    42  PRO42       0.0939
     83  N         53.5880   78.1370   76.1050 N.am   43  PHE43      -0.1960
     84  CA        54.9830   78.2470   76.5150 C.3    43  PHE43       0.1771
     85  C         55.7380   76.9350   76.3150 C.2    43  PHE43       0.2619
     86  O         55.3000   75.8800   76.7730 O.2    43  PHE43      -0.2715
     87  CB        55.0770   78.6970   77.9750 C.3    43  PHE43       0.0574
     88  CG        54.5230   80.0960   78.1060 C.ar   43  PHE43      -0.0200
     89  CD1       55.2440   81.1550   77.5930 C.ar   43  PHE43      -0.0042
     90  CD2       53.3010   80.3210   78.7010 C.ar   43  PHE43      -0.0042
     91  CE1       54.7080   82.4320   77.6500 C.ar   43  PHE43      -0.0003
     92  CE2       52.7980   81.5850   78.7500 C.ar   43  PHE43      -0.0003
     93  CZ        53.5060   82.6380   78.2390 C.ar   43  PHE43      -0.0000
     94  N         56.8720   77.0100   75.6240 N.am   44  ASP44      -0.1971
     95  CA        57.7090   75.8390   75.3830 C.3    44  ASP44       0.1709
     96  C         58.9560   75.8690   76.2670 C.2    44  ASP44       0.2293
     97  O         59.7560   76.8020   76.1960 O.2    44  ASP44      -0.2864
     98  CB        58.1020   75.7580   73.9060 C.3    44  ASP44       0.1436
     99  CG        58.8880   74.5020   73.5770 C.2    44  ASP44       0.3671
    100  OD1       58.2640   73.4880   73.1980 O.co2  44  ASP44      -0.2456
    101  OD2       60.1310   74.5270   73.6980 O.co2  44  ASP44      -0.2456
    102  N         62.3400   75.6250   74.1780 N.3    47  LEU47      -0.1231
    103  CA        62.6790   76.8640   73.4910 C.3    47  LEU47       0.1693
    104  C         63.1860   77.9110   74.4770 C.2    47  LEU47       0.2591
    105  O         64.1880   78.5820   74.2260 O.2    47  LEU47      -0.2718
    106  CB        61.4640   77.4060   72.7370 C.3    47  LEU47       0.0284
    107  CG        61.6810   78.7060   71.9620 C.3    47  LEU47       0.0019
    108  CD1       62.6090   78.4780   70.7810 C.3    47  LEU47       0.0001
    109  CD2       60.3550   79.2900   71.5040 C.3    47  LEU47       0.0001
    110  N         62.4900   78.0390   75.6020 N.am   48  ALA48      -0.1980
    111  CA        62.8530   79.0120   76.6230 C.3    48  ALA48       0.1597
    112  C         64.2320   78.7300   77.2170 C.2    48  ALA48       0.2287
    113  O         65.0030   79.6520   77.4700 O.2    48  ALA48      -0.2864
    114  CB        61.7980   79.0500   77.7160 C.3    48  ALA48       0.0319
    115  N         65.4970   88.0770   79.5680 N.3    70  HIS70      -0.1241
    116  CA        64.8000   87.3600   78.5050 C.3    70  HIS70       0.1621
    117  C         63.2830   87.4090   78.6380 C.2    70  HIS70       0.2264
    118  O         62.7350   87.3640   79.7400 O.2    70  HIS70      -0.2867
    119  CB        65.2480   85.9010   78.4210 C.3    70  HIS70       0.0745
    120  CG        64.4170   85.0800   77.4830 C.ar   70  HIS70       0.0817
    121  ND1       63.4620   84.1870   77.9190 N.ar   70  HIS70      -0.2268
    122  CD2       64.3740   85.0450   76.1300 C.ar   70  HIS70       0.1154
    123  CE1       62.8800   83.6230   76.8760 C.ar   70  HIS70       0.1986
    124  NE2       63.4140   84.1270   75.7780 N.ar   70  HIS70      -0.2212
    125  N         59.9170   86.1630   75.7360 N.3    72  SER72      -0.1202
    126  CA        59.5240   85.7450   74.3910 C.3    72  SER72       0.2020
    127  C         60.7390   85.4160   73.5250 C.2    72  SER72       0.2618
    128  O         61.5290   84.5320   73.8560 O.2    72  SER72      -0.2717
    129  CB        58.6700   86.8210   73.7120 C.3    72  SER72       0.2103
    130  OG        57.5790   87.2030   74.5290 O.3    72  SER72      -0.2182
    131  N         60.8900   86.1440   72.4240 N.am   73  ASP73      -0.1973
    132  CA        62.0010   85.9170   71.5060 C.3    73  ASP73       0.1709
    133  C         63.0010   87.0710   71.5270 C.2    73  ASP73       0.2293
    134  O         63.7750   87.2460   70.5860 O.2    73  ASP73      -0.2864
    135  CB        61.4830   85.7120   70.0820 C.3    73  ASP73       0.1436
    136  CG        60.8590   86.9660   69.5040 C.2    73  ASP73       0.3671
    137  OD1       60.3120   87.7730   70.2860 O.co2  73  ASP73      -0.2456
    138  OD2       60.9190   87.1460   68.2690 O.co2  73  ASP73      -0.2456
    139  N         49.4370   85.5060   74.8430 N.3   156  MET156     -0.1245
    140  CA        49.9310   84.2120   74.3770 C.3   156  MET156      0.1570
    141  C         49.1360   83.0530   74.9720 C.2   156  MET156      0.2261
    142  O         48.7670   82.1160   74.2630 O.2   156  MET156     -0.2867
    143  CB        51.4210   84.0520   74.6970 C.3   156  MET156      0.0387
    144  CG        52.3480   84.7770   73.7300 C.3   156  MET156      0.0595
    145  SD        54.0400   84.9380   74.3410 S.3   156  MET156     -0.1393
    146  CE        54.5240   83.2200   74.5030 C.3   156  MET156      0.0692
    147  N         58.8160   83.1720   84.8780 N.3   191  TRP191     -0.1241
    148  CA        59.3590   83.4280   83.5450 C.3   191  TRP191      0.1605
    149  C         58.2940   83.4860   82.4530 C.2   191  TRP191      0.2264
    150  O         58.5060   84.0890   81.4020 O.2   191  TRP191     -0.2867
    151  CB        60.4450   82.4070   83.1830 C.3   191  TRP191      0.0550
    152  CG        59.9420   81.0260   82.8770 C.ar  191  TRP191      0.0003
    153  CD1       59.8300   79.9830   83.7490 C.ar  191  TRP191      0.0946
    154  CD2       59.5080   80.5320   81.6030 C.ar  191  TRP191      0.0152
    155  NE1       59.3440   78.8730   83.1000 N.ar  191  TRP191     -0.2442
    156  CE2       59.1380   79.1840   81.7820 C.ar  191  TRP191      0.0810
    157  CE3       59.3900   81.1000   80.3310 C.ar  191  TRP191      0.0012
    158  CZ2       58.6610   78.3950   80.7360 C.ar  191  TRP191      0.0191
    159  CZ3       58.9150   80.3160   79.2940 C.ar  191  TRP191      0.0001
    160  CH2       58.5570   78.9780   79.5030 C.ar  191  TRP191      0.0015
@<TRIPOS>BOND
     1    27    26   ar
     2    27    25   ar
     3    26    24   ar
     4    25    23   ar
     5    24    23   ar
     6    23    22    1
     7    22    19    1
     8    17    14    1
     9    19    18    1
    10    19    20    1
    11    18    15   am
    12    21    20    2
    13    16    15    2
    14    15    14    1
    15    20    28   am
    16    14    13    1
    17    46    44   ar
    18    46    48   ar
    19    41    42    2
    20    41    40    1
    21    43    44    1
    22    43    40    1
    23    44    45   ar
    24    48    47   ar
    25    28    29    1
    26    13    11   am
    27    40    39    1
    28    39    30   am
    29    45    47   ar
    30    29    30    1
    31    29    32    1
    32    30    31    2
    33    11    12    2
    34    11    10    1
    35    49    50    1
    36    34    36   ar
    37    34    33   ar
    38    36    38   ar
    39    51    50    1
    40    51    52    2
    41     4     3    2
    42    32    33    1
    43    50    53    1
    44    10     9    1
    45    33    35   ar
    46    38    37   ar
    47    54    53    1
    48     7     6   ar
    49     3     9   am
    50     3     2    1
    51    53    55    1
    52    35    37   ar
    53    56    57    1
    54   138   136   ar
    55     5     6    1
    56     5     2    1
    57     6     8   ar
    58     2     1    1
    59    61    60    1
    60    74    75    1
    61    74    73    1
    62    57    60    1
    63    57    58    1
    64   136   135    1
    65   136   137   ar
    66    59    58    2
    67   135   132    1
    68    58    62   am
    69    72    73    1
    70    72    71    1
    71   134   133    2
    72   108   107    1
    73   109   107    1
    74   132   133    1
    75   132   131    1
    76    62    63    1
    77    71    68    1
    78   107   106    1
    79   131   127   am
    80    63    64    1
    81    63    66    1
    82    67    64   am
    83    67    68    1
    84   106   103    1
    85    64    65    2
    86    68    69    1
    87   100    99   ar
    88   103   102    1
    89   103   104    1
    90   127   128    2
    91   127   126    1
    92    99   101   ar
    93    99    98    1
    94   129   126    1
    95   129   130    1
    96   144   145    1
    97   144   143    1
    98    98    95    1
    99   105   104    2
   100   142   141    2
   101   145   146    1
   102    69    70    2
   103    69    76   am
   104   140   143    1
   105   140   139    1
   106   140   141    1
   107   126   125    1
   108   104   110   am
   109    79    78    2
   110    77    76    1
   111    77    78    1
   112    77    80    1
   113    76    82    1
   114    78    83   am
   115    95    94    1
   116    95    96    1
   117   110   111    1
   118    94    85   am
   119   124   122   ar
   120   124   123   ar
   121    80    81    1
   122    83    84    1
   123   122   120   ar
   124    97    96    2
   125    85    84    1
   126    85    86    2
   127    82    81    1
   128    84    87    1
   129   111   112    1
   130   111   114    1
   131   123   121   ar
   132   112   113    2
   133   120   121   ar
   134   120   119    1
   135    89    91   ar
   136    89    88   ar
   137    91    93   ar
   138    87    88    1
   139    88    90   ar
   140    93    92   ar
   141   119   116    1
   142   116   117    1
   143   116   115    1
   144   117   118    2
   145    90    92   ar
   146   159   160   ar
   147   159   157   ar
   148   160   158   ar
   149   157   154   ar
   150   158   156   ar
   151   150   149    2
   152   154   156   ar
   153   154   152   ar
   154   156   155   ar
   155   149   148    1
   156   152   151    1
   157   152   153   ar
   158   155   153   ar
   159   151   148    1
   160   148   147    1
