@<TRIPOS>MOLECULE
tmp/4kgnC00.pdb
 158 153 0 0 0
SMALL
GASTEIGER

@<TRIPOS>ATOM
      1  N          0.8540  -31.0380   -0.0110 N.3    81  PHE81      -0.1227
      2  CA         2.2990  -30.8200    0.1200 C.3    81  PHE81       0.1736
      3  C          2.9670  -31.9990   -0.5450 C.2    81  PHE81       0.2596
      4  O          2.7590  -33.1390   -0.1660 O.2    81  PHE81      -0.2718
      5  CB         2.7030  -30.6260    1.6040 C.3    81  PHE81       0.0547
      6  CG         2.2110  -29.3280    2.1580 C.ar   81  PHE81      -0.0202
      7  CD1        2.9180  -28.1770    1.9370 C.ar   81  PHE81      -0.0042
      8  CD2        0.9700  -29.2440    2.7450 C.ar   81  PHE81      -0.0042
      9  CE1        2.4280  -26.9520    2.3430 C.ar   81  PHE81      -0.0003
     10  CE2        0.4670  -28.0360    3.1770 C.ar   81  PHE81      -0.0003
     11  CZ         1.1930  -26.8750    2.9510 C.ar   81  PHE81      -0.0000
     12  N          3.6860  -31.7150   -1.6120 N.am   82  THR82      -0.1939
     13  CA         4.3010  -32.7450   -2.4090 C.3    82  THR82       0.2028
     14  C          5.5970  -32.1970   -3.0320 C.2    82  THR82       0.2642
     15  O          5.6390  -31.0430   -3.4960 O.2    82  THR82      -0.2714
     16  CB         3.3550  -33.2560   -3.5150 C.3    82  THR82       0.1808
     17  OG1        4.1040  -34.0280   -4.4400 O.3    82  THR82      -0.2208
     18  CG2        2.7200  -32.1450   -4.2770 C.3    82  THR82       0.0379
     19  N          6.6230  -33.0380   -3.0940 N.am   83  THR83      -0.1950
     20  CA         7.8710  -32.6650   -3.7820 C.3    83  THR83       0.1897
     21  C          7.6710  -32.4200   -5.2560 C.2    83  THR83       0.2313
     22  O          8.5400  -31.8710   -5.9120 O.2    83  THR83      -0.2863
     23  CB         8.9510  -33.7450   -3.6580 C.3    83  THR83       0.1794
     24  OG1        8.4220  -34.9940   -4.1250 O.3    83  THR83      -0.2208
     25  CG2        9.3960  -33.8920   -2.2600 C.3    83  THR83       0.0378
     26  N         -0.8490  -34.0920    3.5460 N.3   102  PHE102     -0.1227
     27  CA         0.4690  -34.7210    3.4580 C.3   102  PHE102      0.1736
     28  C          0.2790  -36.2010    3.1340 C.2   102  PHE102      0.2596
     29  O         -0.7270  -36.8250    3.5490 O.2   102  PHE102     -0.2718
     30  CB         1.2670  -34.5770    4.7920 C.3   102  PHE102      0.0547
     31  CG         1.4020  -33.1520    5.2660 C.ar  102  PHE102     -0.0202
     32  CD1        0.4320  -32.5640    6.0480 C.ar  102  PHE102     -0.0042
     33  CD2        2.5130  -32.4120    4.9280 C.ar  102  PHE102     -0.0042
     34  CE1        0.5400  -31.2490    6.4520 C.ar  102  PHE102     -0.0003
     35  CE2        2.6230  -31.0900    5.3260 C.ar  102  PHE102     -0.0003
     36  CZ         1.6360  -30.5100    6.0930 C.ar  102  PHE102     -0.0000
     37  N          1.2350  -36.7560    2.3890 N.am  103  GLY103     -0.1942
     38  CA         1.1640  -38.1740    1.9670 C.3   103  GLY103      0.2014
     39  C          2.0030  -39.1330    2.7740 C.2   103  GLY103      0.2639
     40  O          2.5950  -38.7440    3.7800 O.2   103  GLY103     -0.2714
     41  N          2.0460  -40.3870    2.3210 N.am  104  ALA104     -0.1963
     42  CA         2.6450  -41.4710    3.0850 C.3   104  ALA104      0.1728
     43  C          4.1330  -41.5430    2.8500 C.2   104  ALA104      0.2616
     44  O          4.6380  -41.1020    1.8170 O.2   104  ALA104     -0.2715
     45  CB         2.0040  -42.8100    2.7260 C.3   104  ALA104      0.0334
     46  N          4.8160  -42.1520    3.8050 N.am  105  GLU105     -0.1963
     47  CA         6.2810  -42.1520    3.8330 C.3   105  GLU105      0.1733
     48  C          6.9560  -42.7300    2.5750 C.2   105  GLU105      0.2617
     49  O          7.9350  -42.1970    2.1000 O.2   105  GLU105     -0.2715
     50  CB         6.7670  -42.8570    5.0890 C.3   105  GLU105      0.0429
     51  CG         6.4670  -42.0980    6.3880 C.3   105  GLU105      0.1163
     52  CD         5.0750  -42.3560    6.9860 C.2   105  GLU105      0.3649
     53  OE1        4.1240  -42.7260    6.2850 O.co2 105  GLU105     -0.2457
     54  OE2        4.9150  -42.1940    8.2080 O.co2 105  GLU105     -0.2457
     55  N          6.4060  -43.7750    1.9930 N.am  106  THR106     -0.1937
     56  CA         7.1280  -44.5260    0.9760 C.3   106  THR106      0.2028
     57  C          6.9460  -43.8640   -0.3470 C.2   106  THR106      0.2642
     58  O          7.9140  -43.6030   -1.0500 O.2   106  THR106     -0.2714
     59  CB         6.5740  -45.9660    0.8830 C.3   106  THR106      0.1808
     60  OG1        6.6810  -46.5730    2.1630 O.3   106  THR106     -0.2208
     61  CG2        7.3180  -46.8020   -0.1540 C.3   106  THR106      0.0379
     62  N          5.7000  -43.5450   -0.6650 N.am  107  ARG107     -0.1963
     63  CA         5.3570  -43.0860   -1.9850 C.3   107  ARG107      0.1729
     64  C          4.7050  -41.7040   -2.0420 C.2   107  ARG107      0.2617
     65  O          4.5550  -41.1520   -3.1220 O.2   107  ARG107     -0.2715
     66  CB         4.4780  -44.1340   -2.6850 C.3   107  ARG107      0.0348
     67  CG         4.0410  -43.7200   -4.0520 C.3   107  ARG107      0.0492
     68  CD         3.1150  -44.7210   -4.6260 C.3   107  ARG107      0.2205
     69  NE         1.8590  -44.9480   -3.9740 N.pl3 107  ARG107     -0.0865
     70  CZ         0.7970  -44.1470   -3.9720 C.cat 107  ARG107      0.5346
     71  NH1        0.8810  -42.9820   -4.6420 N.pl3 107  ARG107      0.1354
     72  NH2       -0.3500  -44.4450   -3.3720 N.pl3 107  ARG107      0.1354
     73  N          4.3820  -41.1010   -0.8990 N.am  108  GLY108     -0.1940
     74  CA         3.7430  -39.7800   -0.9380 C.3   108  GLY108      0.2014
     75  C          2.3000  -39.8830   -1.4410 C.2   108  GLY108      0.2638
     76  O          1.7510  -40.9750   -1.5420 O.2   108  GLY108     -0.2714
     77  N          1.6890  -38.7370   -1.7150 N.am  109  LEU109     -0.1977
     78  CA         0.2670  -38.6750   -2.1010 C.3   109  LEU109      0.1596
     79  C          0.0240  -39.2790   -3.4780 C.2   109  LEU109      0.2287
     80  O          0.7430  -38.9780   -4.4320 O.2   109  LEU109     -0.2864
     81  CB        -0.1890  -37.2250   -2.1680 C.3   109  LEU109      0.0297
     82  CG        -0.2150  -36.4120   -0.8990 C.3   109  LEU109      0.0022
     83  CD1       -0.3580  -34.9270   -1.2050 C.3   109  LEU109      0.0001
     84  CD2       -1.3550  -36.9360   -0.0250 C.3   109  LEU109      0.0001
     85  N          2.0360  -27.6780   -3.1450 N.3   123  VAL123     -0.1231
     86  CA         3.1390  -26.8920   -2.5980 C.3   123  VAL123      0.1692
     87  C          4.3550  -27.7300   -2.2370 C.2   123  VAL123      0.2592
     88  O          4.2520  -28.7030   -1.5290 O.2   123  VAL123     -0.2718
     89  CB         2.7030  -26.1490   -1.3230 C.3   123  VAL123      0.0266
     90  CG1        3.8400  -25.3060   -0.7940 C.3   123  VAL123      0.0020
     91  CG2        1.4950  -25.2550   -1.5850 C.3   123  VAL123      0.0020
     92  N          5.5170  -27.3100   -2.6920 N.am  124  ARG124     -0.1966
     93  CA         6.7700  -28.0130   -2.4160 C.3   124  ARG124      0.1729
     94  C          7.5270  -27.1080   -1.4690 C.2   124  ARG124      0.2616
     95  O          7.6140  -25.9020   -1.7110 O.2   124  ARG124     -0.2715
     96  CB         7.5550  -28.2310   -3.7350 C.3   124  ARG124      0.0348
     97  CG         9.0250  -28.6560   -3.5980 C.3   124  ARG124      0.0492
     98  CD         9.7280  -28.6200   -4.9500 C.3   124  ARG124      0.2205
     99  NE        11.1830  -28.7070   -4.8330 N.pl3 124  ARG124     -0.0865
    100  CZ        11.9060  -29.8290   -4.8000 C.cat 124  ARG124      0.5346
    101  NH1       11.3560  -31.0440   -4.9260 N.pl3 124  ARG124      0.1354
    102  NH2       13.2180  -29.7270   -4.6670 N.pl3 124  ARG124      0.1354
    103  N          8.0310  -27.6640   -0.3790 N.am  125  LEU125     -0.1977
    104  CA         8.9560  -26.9610    0.4970 C.3   125  LEU125      0.1596
    105  C         10.3410  -27.0430   -0.0960 C.2   125  LEU125      0.2287
    106  O         10.7160  -28.1060   -0.5960 O.2   125  LEU125     -0.2864
    107  CB         8.9960  -27.5880    1.8810 C.3   125  LEU125      0.0297
    108  CG         7.9710  -27.0460    2.8560 C.3   125  LEU125      0.0022
    109  CD1        6.5570  -27.4190    2.4180 C.3   125  LEU125      0.0001
    110  CD2        8.2950  -27.6040    4.2270 C.3   125  LEU125      0.0001
    111  N         14.2350  -27.4630   -0.9110 N.3   127  MET127     -0.1245
    112  CA        15.3080  -28.3330   -0.4220 C.3   127  MET127      0.1570
    113  C         16.5650  -28.0460   -1.2160 C.2   127  MET127      0.2261
    114  O         16.5020  -27.4960   -2.3070 O.2   127  MET127     -0.2867
    115  CB        14.9040  -29.8160   -0.5640 C.3   127  MET127      0.0387
    116  CG        13.6880  -30.2200    0.2750 C.3   127  MET127      0.0595
    117  SD        13.1750  -31.9430    0.1210 S.3   127  MET127     -0.1393
    118  CE        12.9530  -32.0410   -1.6700 C.3   127  MET127      0.0692
    119  N         15.4230  -35.6870   -3.3220 N.3   132  ARG132     -0.1231
    120  CA        15.2900  -35.7670   -1.8670 C.3   132  ARG132      0.1694
    121  C         13.8540  -35.6670   -1.4360 C.2   132  ARG132      0.2593
    122  O         12.9790  -35.2720   -2.2100 O.2   132  ARG132     -0.2718
    123  CB        15.9990  -34.5770   -1.1920 C.3   132  ARG132      0.0321
    124  CG        17.3250  -34.1780   -1.7880 C.3   132  ARG132      0.0489
    125  CD        17.8660  -32.9280   -1.1200 C.3   132  ARG132      0.2205
    126  NE        19.2960  -32.8590   -1.3390 N.pl3 132  ARG132     -0.0865
    127  CZ        20.1800  -33.5930   -0.6760 C.cat 132  ARG132      0.5346
    128  NH1       19.7860  -34.4460    0.2720 N.pl3 132  ARG132      0.1354
    129  NH2       21.4610  -33.4810   -0.9720 N.pl3 132  ARG132      0.1354
    130  N         13.6260  -35.9510   -0.1590 N.am  133  SER133     -0.1938
    131  CA        12.3730  -35.5730    0.4630 C.3   133  SER133      0.2055
    132  C         12.5910  -35.3840    1.9430 C.2   133  SER133      0.2642
    133  O         13.5010  -35.9830    2.5400 O.2   133  SER133     -0.2714
    134  CB        11.2570  -36.6250    0.1800 C.3   133  SER133      0.2130
    135  OG        11.5870  -37.8550    0.8120 O.3   133  SER133     -0.2179
    136  N         11.7580  -34.5470    2.5440 N.am  134  LEU134     -0.1977
    137  CA        11.7740  -34.3670    3.9790 C.3   134  LEU134      0.1596
    138  C         11.0520  -35.5460    4.6320 C.2   134  LEU134      0.2287
    139  O         10.1300  -36.1300    4.0400 O.2   134  LEU134     -0.2864
    140  CB        11.0770  -33.0610    4.3510 C.3   134  LEU134      0.0297
    141  CG        11.5950  -31.7970    3.6600 C.3   134  LEU134      0.0022
    142  CD1       10.7320  -30.6010    4.0580 C.3   134  LEU134      0.0001
    143  CD2       13.0480  -31.5510    4.0490 C.3   134  LEU134      0.0001
    144  N          8.2210  -36.9670    6.9360 N.3   136  LEU136     -0.1245
    145  CA         6.8230  -36.5110    6.9900 C.3   136  LEU136      0.1561
    146  C          6.5150  -35.5730    8.1600 C.2   136  LEU136      0.2260
    147  O          5.9470  -34.4970    7.9630 O.2   136  LEU136     -0.2867
    148  CB         5.8870  -37.7300    7.0350 C.3   136  LEU136      0.0270
    149  CG         4.4030  -37.5300    7.3560 C.3   136  LEU136      0.0019
    150  CD1        3.8140  -36.5640    6.3550 C.3   136  LEU136      0.0001
    151  CD2        3.6540  -38.8710    7.3130 C.3   136  LEU136      0.0001
    152  N          8.0380  -32.1410    7.8840 N.3   139  THR139     -0.1218
    153  CA         7.3310  -31.3080    6.9210 C.3   139  THR139      0.1862
    154  C          6.1120  -30.6950    7.5770 C.2   139  THR139      0.2287
    155  O          5.8810  -29.4760    7.5110 O.2   139  THR139     -0.2866
    156  CB         6.8680  -32.1110    5.6880 C.3   139  THR139      0.1770
    157  OG1        7.9370  -32.9380    5.1760 O.3   139  THR139     -0.2211
    158  CG2        6.3310  -31.1780    4.5960 C.3   139  THR139      0.0375
@<TRIPOS>BOND
     1    22    21    2
     2    21    20    1
     3    98    99    1
     4    98    97    1
     5   101   100    1
     6    99   100    2
     7   100   102    1
     8    71    70    1
     9    68    67    1
    10    68    69    1
    11    17    16    1
    12    80    79    2
    13    18    16    1
    14    24    23    1
    15    67    66    1
    16    69    70    2
    17    70    72    1
    18    20    23    1
    19    20    19    1
    20    96    97    1
    21    96    93    1
    22    23    25    1
    23    16    13    1
    24    15    14    2
    25    79    78    1
    26   119   120    1
    27    85    86    1
    28    65    64    2
    29    19    14   am
    30    14    13    1
    31    92    93    1
    32    92    87   am
    33    66    63    1
    34    86    87    1
    35    86    89    1
    36    93    94    1
    37    13    12    1
    38   114   113    2
    39    87    88    2
    40   122   121    2
    41    81    78    1
    42    81    82    1
    43    78    77    1
    44    64    63    1
    45    64    73   am
    46    63    62    1
    47   120   121    1
    48   120   123    1
    49   124   123    1
    50   124   125    1
    51    77    75   am
    52    95    94    2
    53   118   117    1
    54    12     3   am
    55    91    89    1
    56    76    75    2
    57    94   103   am
    58    75    74    1
    59   121   130   am
    60   126   125    1
    61   126   127    2
    62    89    90    1
    63   113   112    1
    64    83    82    1
    65    58    57    2
    66   129   127    1
    67    74    73    1
    68   111   112    1
    69    82    84    1
    70   127   128    1
    71    62    57   am
    72   106   105    2
    73   115   112    1
    74   115   116    1
    75     3     4    2
    76     3     2    1
    77   103   104    1
    78    57    56    1
    79   130   131    1
    80    61    59    1
    81   105   104    1
    82     1     2    1
    83     2     5    1
    84   117   116    1
    85   134   131    1
    86   134   135    1
    87   131   132    1
    88   104   107    1
    89    59    56    1
    90    59    60    1
    91    56    55    1
    92     5     6    1
    93    44    43    2
    94   107   108    1
    95     7     6   ar
    96     7     9   ar
    97   132   133    2
    98   132   136   am
    99    38    37    1
   100    38    39    1
   101    55    48   am
   102    49    48    2
   103     6     8   ar
   104    41    39   am
   105    41    42    1
   106     9    11   ar
   107    37    28   am
   108   109   108    1
   109   136   137    1
   110    48    47    1
   111    45    42    1
   112     8    10   ar
   113    39    40    2
   114    43    42    1
   115    43    46   am
   116   108   110    1
   117    11    10   ar
   118    28    27    1
   119    28    29    2
   120    27    26    1
   121    27    30    1
   122   141   143    1
   123   141   142    1
   124   141   140    1
   125    46    47    1
   126    47    50    1
   127   137   140    1
   128   137   138    1
   129   139   138    2
   130   158   156    1
   131    30    31    1
   132    33    31   ar
   133    33    35   ar
   134    50    51    1
   135   157   156    1
   136    31    32   ar
   137    35    36   ar
   138   156   153    1
   139    32    34   ar
   140    36    34   ar
   141    53    52   ar
   142   150   149    1
   143    51    52    1
   144   153   154    1
   145   153   152    1
   146   144   145    1
   147    52    54   ar
   148   145   148    1
   149   145   146    1
   150   148   149    1
   151   151   149    1
   152   155   154    2
   153   147   146    2
